MODEL 1
REMARK VINA RESULT:    -8.233      0.000      0.000
REMARK INTER + INTRA:         -14.302
REMARK INTER:                 -11.216
REMARK INTRA:                  -3.085
REMARK CONF_INDEPENDENT:        2.983
REMARK UNBOUND:                -3.085
REMARK  10 active torsions:
REMARK  status: ('A' for Active; 'I' for Inactive)
REMARK    1  A    between atoms: O_2  and  C_3 
REMARK    2  A    between atoms: C_3  and  C_5 
REMARK    3  A    between atoms: C_5  and  C_6 
REMARK    4  A    between atoms: C_5  and  N_12 
REMARK    5  A    between atoms: C_6  and  C_7 
REMARK       I    between atoms: N_12  and  C_13 
REMARK    6  A    between atoms: C_13  and  C_15 
REMARK    7  A    between atoms: C_15  and  O_16 
REMARK    8  A    between atoms: O_16  and  C_17 
REMARK    9  A    between atoms: C_19  and  O_20 
REMARK   10  A    between atoms: C_26  and  C_27 
ROOT
ATOM      1  C   UNL d   1      29.474 -15.049   1.014  0.00  0.00     0.074 A 
ATOM      2  C   UNL d   1      30.708 -14.593   1.469  0.00  0.00     0.074 A 
ATOM      3  C   UNL d   1      30.805 -13.972   2.714  0.00  0.00     0.085 A 
ATOM      4  C   UNL d   1      29.669 -13.781   3.511  0.00  0.00     0.077 A 
ATOM      5  C   UNL d   1      28.423 -14.195   3.037  0.00  0.00     0.088 A 
ATOM      6  C   UNL d   1      28.324 -14.804   1.777  0.00  0.00     0.074 A 
ATOM      7  O   UNL d   1      27.246 -14.005   3.712  0.00  0.00    -0.349 OA
ATOM      8  C   UNL d   1      27.395 -13.885   5.130  0.00  0.00     0.193 C 
ATOM      9  C   UNL d   1      28.452 -12.872   5.558  0.00  0.00     0.118 C 
ATOM     10  C   UNL d   1      29.755 -13.118   4.830  0.00  0.00     0.175 C 
ATOM     11  O   UNL d   1      30.831 -12.756   5.298  0.00  0.00    -0.291 OA
ENDROOT
BRANCH   1  12
ATOM     12  O   UNL d   1      29.315 -15.670  -0.197  0.00  0.00    -0.342 OA
BRANCH  12  13
ATOM     13  C   UNL d   1      28.709 -16.970  -0.150  0.00  0.00     0.278 C 
BRANCH  13  14
ATOM     14  C   UNL d   1      27.216 -16.866  -0.510  0.00  0.00     0.242 C 
ATOM     15  N   UNL d   1      26.838 -15.796  -1.311  0.00  0.00    -0.345 N 
ATOM     16  H   UNL d   1      27.513 -15.083  -1.582  0.00  0.00     0.163 HD
ATOM     17  O   UNL d   1      26.378 -17.682  -0.129  0.00  0.00    -0.271 OA
BRANCH  15  18
ATOM     18  C   UNL d   1      25.430 -15.606  -1.745  0.00  0.00     0.190 C 
BRANCH  18  19
ATOM     19  C   UNL d   1      25.355 -14.556  -2.888  0.00  0.00     0.281 C 
ATOM     20  O   UNL d   1      24.406 -14.450  -3.659  0.00  0.00    -0.263 OA
BRANCH  19  21
ATOM     21  O   UNL d   1      26.476 -13.777  -2.940  0.00  0.00    -0.325 OA
ATOM     22  C   UNL d   1      26.276 -12.360  -3.092  0.00  0.00     0.213 C 
ENDBRANCH  19  21
ENDBRANCH  18  19
BRANCH  18  23
ATOM     23  C   UNL d   1      24.838 -16.945  -2.199  0.00  0.00     0.093 C 
BRANCH  23  24
ATOM     24  C   UNL d   1      23.768 -17.520  -1.355  0.00  0.00     0.028 A 
ATOM     25  C   UNL d   1      23.284 -17.063  -0.155  0.00  0.00     0.114 A 
ATOM     26  N   UNL d   1      22.283 -17.919   0.232  0.00  0.00    -0.360 N 
ATOM     27  C   UNL d   1      22.131 -18.898  -0.659  0.00  0.00     0.180 A 
ATOM     28  H   UNL d   1      21.724 -17.822   1.076  0.00  0.00     0.166 HD
ATOM     29  N   UNL d   1      23.019 -18.660  -1.625  0.00  0.00    -0.354 N 
ATOM     30  H   UNL d   1      23.184 -19.308  -2.394  0.00  0.00     0.166 HD
ENDBRANCH  23  24
ENDBRANCH  18  23
ENDBRANCH  15  18
ENDBRANCH  13  14
ENDBRANCH  12  13
ENDBRANCH   1  12
BRANCH   3  31
ATOM     31  O   UNL d   1      32.031 -13.548   3.138  0.00  0.00    -0.360 OA
ATOM     32  H   UNL d   1      32.170 -13.716   4.080  0.00  0.00     0.217 HD
ENDBRANCH   3  31
BRANCH   9  33
ATOM     33  C   UNL d   1      28.666 -12.938   7.060  0.00  0.00    -0.042 A 
ATOM     34  C   UNL d   1      28.156 -11.922   7.892  0.00  0.00     0.011 A 
ATOM     35  C   UNL d   1      28.315 -11.984   9.271  0.00  0.00     0.040 A 
ATOM     36  C   UNL d   1      28.984 -13.064   9.835  0.00  0.00     0.102 A 
ATOM     37  C   UNL d   1      29.467 -14.096   9.024  0.00  0.00     0.102 A 
ATOM     38  O   UNL d   1      29.119 -13.049  11.198  0.00  0.00    -0.346 OA
ATOM     39  C   UNL d   1      29.315 -14.033   7.640  0.00  0.00     0.047 A 
ATOM     40  O   UNL d   1      30.113 -15.199   9.516  0.00  0.00    -0.346 OA
ATOM     41  C   UNL d   1      29.919 -15.330  10.928  0.00  0.00     0.202 C 
ATOM     42  C   UNL d   1      30.097 -13.996  11.632  0.00  0.00     0.202 C 
ENDBRANCH   9  33
TORSDOF 10
ENDMDL
MODEL 2
REMARK VINA RESULT:    -6.755      5.349      9.704
REMARK INTER + INTRA:         -14.175
REMARK INTER:                  -9.738
REMARK INTRA:                  -4.437
REMARK CONF_INDEPENDENT:        2.983
REMARK UNBOUND:                -4.437
REMARK  10 active torsions:
REMARK  status: ('A' for Active; 'I' for Inactive)
REMARK    1  A    between atoms: O_2  and  C_3 
REMARK    2  A    between atoms: C_3  and  C_5 
REMARK    3  A    between atoms: C_5  and  C_6 
REMARK    4  A    between atoms: C_5  and  N_12 
REMARK    5  A    between atoms: C_6  and  C_7 
REMARK       I    between atoms: N_12  and  C_13 
REMARK    6  A    between atoms: C_13  and  C_15 
REMARK    7  A    between atoms: C_15  and  O_16 
REMARK    8  A    between atoms: O_16  and  C_17 
REMARK    9  A    between atoms: C_19  and  O_20 
REMARK   10  A    between atoms: C_26  and  C_27 
ROOT
ATOM      1  C   UNL d   1      26.506  -9.754  -3.134  0.00  0.00     0.074 A 
ATOM      2  C   UNL d   1      25.905 -10.444  -4.184  0.00  0.00     0.074 A 
ATOM      3  C   UNL d   1      25.758 -11.828  -4.113  0.00  0.00     0.085 A 
ATOM      4  C   UNL d   1      26.223 -12.544  -3.002  0.00  0.00     0.077 A 
ATOM      5  C   UNL d   1      26.867 -11.860  -1.969  0.00  0.00     0.088 A 
ATOM      6  C   UNL d   1      27.030 -10.470  -2.049  0.00  0.00     0.074 A 
ATOM      7  O   UNL d   1      27.406 -12.471  -0.868  0.00  0.00    -0.349 OA
ATOM      8  C   UNL d   1      26.808 -13.730  -0.542  0.00  0.00     0.193 C 
ATOM      9  C   UNL d   1      26.711 -14.692  -1.720  0.00  0.00     0.118 C 
ATOM     10  C   UNL d   1      26.080 -14.013  -2.915  0.00  0.00     0.175 C 
ATOM     11  O   UNL d   1      25.502 -14.654  -3.789  0.00  0.00    -0.291 OA
ENDROOT
BRANCH   1  12
ATOM     12  O   UNL d   1      26.676  -8.395  -3.143  0.00  0.00    -0.342 OA
BRANCH  12  13
ATOM     13  C   UNL d   1      28.035  -7.941  -3.055  0.00  0.00     0.278 C 
BRANCH  13  14
ATOM     14  C   UNL d   1      28.398  -7.658  -1.586  0.00  0.00     0.242 C 
ATOM     15  N   UNL d   1      27.388  -7.827  -0.647  0.00  0.00    -0.345 N 
ATOM     16  H   UNL d   1      26.440  -8.059  -0.937  0.00  0.00     0.163 HD
ATOM     17  O   UNL d   1      29.523  -7.309  -1.231  0.00  0.00    -0.271 OA
BRANCH  15  18
ATOM     18  C   UNL d   1      27.627  -7.609   0.803  0.00  0.00     0.190 C 
BRANCH  18  19
ATOM     19  C   UNL d   1      26.287  -7.682   1.587  0.00  0.00     0.281 C 
ATOM     20  O   UNL d   1      26.212  -7.729   2.811  0.00  0.00    -0.263 OA
BRANCH  19  21
ATOM     21  O   UNL d   1      25.207  -7.703   0.751  0.00  0.00    -0.325 OA
ATOM     22  C   UNL d   1      24.861  -6.465   0.105  0.00  0.00     0.213 C 
ENDBRANCH  19  21
ENDBRANCH  18  19
BRANCH  18  23
ATOM     23  C   UNL d   1      28.622  -8.648   1.332  0.00  0.00     0.093 C 
BRANCH  23  24
ATOM     24  C   UNL d   1      28.050  -9.825   2.022  0.00  0.00     0.028 A 
ATOM     25  C   UNL d   1      27.998 -10.088   3.368  0.00  0.00     0.114 A 
ATOM     26  N   UNL d   1      27.356 -11.292   3.522  0.00  0.00    -0.360 N 
ATOM     27  C   UNL d   1      27.020 -11.801   2.337  0.00  0.00     0.180 A 
ATOM     28  H   UNL d   1      27.153 -11.736   4.413  0.00  0.00     0.166 HD
ATOM     29  N   UNL d   1      27.428 -10.917   1.426  0.00  0.00    -0.354 N 
ATOM     30  H   UNL d   1      27.381 -11.096   0.423  0.00  0.00     0.166 HD
ENDBRANCH  23  24
ENDBRANCH  18  23
ENDBRANCH  15  18
ENDBRANCH  13  14
ENDBRANCH  12  13
ENDBRANCH   1  12
BRANCH   3  31
ATOM     31  O   UNL d   1      25.154 -12.474  -5.153  0.00  0.00    -0.360 OA
ATOM     32  H   UNL d   1      24.445 -13.061  -4.856  0.00  0.00     0.217 HD
ENDBRANCH   3  31
BRANCH   9  33
ATOM     33  C   UNL d   1      25.910 -15.922  -1.328  0.00  0.00    -0.042 A 
ATOM     34  C   UNL d   1      26.562 -17.047  -0.785  0.00  0.00     0.011 A 
ATOM     35  C   UNL d   1      25.841 -18.168  -0.393  0.00  0.00     0.040 A 
ATOM     36  C   UNL d   1      24.458 -18.177  -0.535  0.00  0.00     0.102 A 
ATOM     37  C   UNL d   1      23.795 -17.054  -1.043  0.00  0.00     0.102 A 
ATOM     38  O   UNL d   1      23.816 -19.322  -0.144  0.00  0.00    -0.346 OA
ATOM     39  C   UNL d   1      24.516 -15.932  -1.445  0.00  0.00     0.047 A 
ATOM     40  O   UNL d   1      22.434 -16.988  -1.187  0.00  0.00    -0.346 OA
ATOM     41  C   UNL d   1      21.780 -18.025  -0.449  0.00  0.00     0.202 C 
ATOM     42  C   UNL d   1      22.477 -19.360  -0.645  0.00  0.00     0.202 C 
ENDBRANCH   9  33
TORSDOF 10
ENDMDL
MODEL 3
REMARK VINA RESULT:    -6.697      5.220     10.916
REMARK INTER + INTRA:         -15.002
REMARK INTER:                  -9.680
REMARK INTRA:                  -5.322
REMARK CONF_INDEPENDENT:        2.983
REMARK UNBOUND:                -5.322
REMARK  10 active torsions:
REMARK  status: ('A' for Active; 'I' for Inactive)
REMARK    1  A    between atoms: O_2  and  C_3 
REMARK    2  A    between atoms: C_3  and  C_5 
REMARK    3  A    between atoms: C_5  and  C_6 
REMARK    4  A    between atoms: C_5  and  N_12 
REMARK    5  A    between atoms: C_6  and  C_7 
REMARK       I    between atoms: N_12  and  C_13 
REMARK    6  A    between atoms: C_13  and  C_15 
REMARK    7  A    between atoms: C_15  and  O_16 
REMARK    8  A    between atoms: O_16  and  C_17 
REMARK    9  A    between atoms: C_19  and  O_20 
REMARK   10  A    between atoms: C_26  and  C_27 
ROOT
ATOM      1  C   UNL d   1      26.758 -13.584  -1.821  0.00  0.00     0.074 A 
ATOM      2  C   UNL d   1      25.933 -14.147  -2.791  0.00  0.00     0.074 A 
ATOM      3  C   UNL d   1      26.481 -14.616  -3.985  0.00  0.00     0.085 A 
ATOM      4  C   UNL d   1      27.856 -14.512  -4.232  0.00  0.00     0.077 A 
ATOM      5  C   UNL d   1      28.679 -13.907  -3.281  0.00  0.00     0.088 A 
ATOM      6  C   UNL d   1      28.124 -13.420  -2.088  0.00  0.00     0.074 A 
ATOM      7  O   UNL d   1      30.024 -13.708  -3.449  0.00  0.00    -0.349 OA
ATOM      8  C   UNL d   1      30.645 -14.621  -4.358  0.00  0.00     0.193 C 
ATOM      9  C   UNL d   1      29.928 -14.743  -5.699  0.00  0.00     0.118 C 
ATOM     10  C   UNL d   1      28.452 -14.999  -5.495  0.00  0.00     0.175 C 
ATOM     11  O   UNL d   1      27.771 -15.557  -6.352  0.00  0.00    -0.291 OA
ENDROOT
BRANCH   1  12
ATOM     12  O   UNL d   1      26.280 -13.110  -0.628  0.00  0.00    -0.342 OA
BRANCH  12  13
ATOM     13  C   UNL d   1      27.136 -13.314   0.506  0.00  0.00     0.278 C 
BRANCH  13  14
ATOM     14  C   UNL d   1      27.108 -14.796   0.924  0.00  0.00     0.242 C 
ATOM     15  N   UNL d   1      26.437 -15.672   0.081  0.00  0.00    -0.345 N 
ATOM     16  H   UNL d   1      25.932 -15.327  -0.734  0.00  0.00     0.163 HD
ATOM     17  O   UNL d   1      27.654 -15.212   1.944  0.00  0.00    -0.271 OA
BRANCH  15  18
ATOM     18  C   UNL d   1      26.364 -17.128   0.367  0.00  0.00     0.190 C 
BRANCH  18  19
ATOM     19  C   UNL d   1      25.095 -17.743  -0.287  0.00  0.00     0.281 C 
ATOM     20  O   UNL d   1      24.748 -18.911  -0.141  0.00  0.00    -0.263 OA
BRANCH  19  21
ATOM     21  O   UNL d   1      24.422 -16.832  -1.052  0.00  0.00    -0.325 OA
ATOM     22  C   UNL d   1      23.049 -16.581  -0.705  0.00  0.00     0.213 C 
ENDBRANCH  19  21
ENDBRANCH  18  19
BRANCH  18  23
ATOM     23  C   UNL d   1      27.629 -17.825  -0.146  0.00  0.00     0.093 C 
BRANCH  23  24
ATOM     24  C   UNL d   1      28.763 -16.953  -0.523  0.00  0.00     0.028 A 
ATOM     25  C   UNL d   1      29.271 -16.701  -1.772  0.00  0.00     0.114 A 
ATOM     26  N   UNL d   1      30.307 -15.813  -1.617  0.00  0.00    -0.360 N 
ATOM     27  C   UNL d   1      30.481 -15.512  -0.330  0.00  0.00     0.180 A 
ATOM     28  H   UNL d   1      30.865 -15.426  -2.375  0.00  0.00     0.166 HD
ATOM     29  N   UNL d   1      29.546 -16.191   0.337  0.00  0.00    -0.354 N 
ATOM     30  H   UNL d   1      29.506 -16.218   1.355  0.00  0.00     0.166 HD
ENDBRANCH  23  24
ENDBRANCH  18  23
ENDBRANCH  15  18
ENDBRANCH  13  14
ENDBRANCH  12  13
ENDBRANCH   1  12
BRANCH   3  31
ATOM     31  O   UNL d   1      25.648 -15.173  -4.911  0.00  0.00    -0.360 OA
ATOM     32  H   UNL d   1      25.817 -14.838  -5.803  0.00  0.00     0.217 HD
ENDBRANCH   3  31
BRANCH   9  33
ATOM     33  C   UNL d   1      30.548 -15.855  -6.527  0.00  0.00    -0.042 A 
ATOM     34  C   UNL d   1      31.530 -15.556  -7.491  0.00  0.00     0.011 A 
ATOM     35  C   UNL d   1      32.130 -16.565  -8.235  0.00  0.00     0.040 A 
ATOM     36  C   UNL d   1      31.756 -17.886  -8.021  0.00  0.00     0.102 A 
ATOM     37  C   UNL d   1      30.806 -18.202  -7.043  0.00  0.00     0.102 A 
ATOM     38  O   UNL d   1      32.376 -18.826  -8.802  0.00  0.00    -0.346 OA
ATOM     39  C   UNL d   1      30.198 -17.191  -6.301  0.00  0.00     0.047 A 
ATOM     40  O   UNL d   1      30.412 -19.484  -6.765  0.00  0.00    -0.346 OA
ATOM     41  C   UNL d   1      31.317 -20.441  -7.323  0.00  0.00     0.202 C 
ATOM     42  C   UNL d   1      31.687 -20.078  -8.750  0.00  0.00     0.202 C 
ENDBRANCH   9  33
TORSDOF 10
ENDMDL
MODEL 4
REMARK VINA RESULT:    -6.687      3.215      9.233
REMARK INTER + INTRA:         -14.001
REMARK INTER:                  -9.670
REMARK INTRA:                  -4.331
REMARK CONF_INDEPENDENT:        2.983
REMARK UNBOUND:                -4.331
REMARK  10 active torsions:
REMARK  status: ('A' for Active; 'I' for Inactive)
REMARK    1  A    between atoms: O_2  and  C_3 
REMARK    2  A    between atoms: C_3  and  C_5 
REMARK    3  A    between atoms: C_5  and  C_6 
REMARK    4  A    between atoms: C_5  and  N_12 
REMARK    5  A    between atoms: C_6  and  C_7 
REMARK       I    between atoms: N_12  and  C_13 
REMARK    6  A    between atoms: C_13  and  C_15 
REMARK    7  A    between atoms: C_15  and  O_16 
REMARK    8  A    between atoms: O_16  and  C_17 
REMARK    9  A    between atoms: C_19  and  O_20 
REMARK   10  A    between atoms: C_26  and  C_27 
ROOT
ATOM      1  C   UNL d   1      31.290 -12.773   2.882  0.00  0.00     0.074 A 
ATOM      2  C   UNL d   1      30.041 -12.230   3.174  0.00  0.00     0.074 A 
ATOM      3  C   UNL d   1      28.899 -12.736   2.554  0.00  0.00     0.085 A 
ATOM      4  C   UNL d   1      28.991 -13.777   1.621  0.00  0.00     0.077 A 
ATOM      5  C   UNL d   1      30.246 -14.291   1.291  0.00  0.00     0.088 A 
ATOM      6  C   UNL d   1      31.395 -13.770   1.902  0.00  0.00     0.074 A 
ATOM      7  O   UNL d   1      30.449 -15.269   0.353  0.00  0.00    -0.349 OA
ATOM      8  C   UNL d   1      29.320 -16.120   0.137  0.00  0.00     0.193 C 
ATOM      9  C   UNL d   1      28.017 -15.369  -0.115  0.00  0.00     0.118 C 
ATOM     10  C   UNL d   1      27.790 -14.320   0.950  0.00  0.00     0.175 C 
ATOM     11  O   UNL d   1      26.664 -13.913   1.224  0.00  0.00    -0.291 OA
ENDROOT
BRANCH   1  12
ATOM     12  O   UNL d   1      32.446 -12.322   3.460  0.00  0.00    -0.342 OA
BRANCH  12  13
ATOM     13  C   UNL d   1      32.423 -10.958   3.908  0.00  0.00     0.278 C 
BRANCH  13  14
ATOM     14  C   UNL d   1      31.773 -10.876   5.302  0.00  0.00     0.242 C 
ATOM     15  N   UNL d   1      31.362 -12.073   5.873  0.00  0.00    -0.345 N 
ATOM     16  H   UNL d   1      31.427 -12.948   5.355  0.00  0.00     0.163 HD
ATOM     17  O   UNL d   1      31.623  -9.816   5.908  0.00  0.00    -0.271 OA
BRANCH  15  18
ATOM     18  C   UNL d   1      30.745 -12.122   7.224  0.00  0.00     0.190 C 
BRANCH  18  19
ATOM     19  C   UNL d   1      29.668 -11.011   7.365  0.00  0.00     0.281 C 
ATOM     20  O   UNL d   1      29.691 -10.142   8.230  0.00  0.00    -0.263 OA
BRANCH  19  21
ATOM     21  O   UNL d   1      28.686 -11.128   6.421  0.00  0.00    -0.325 OA
ATOM     22  C   UNL d   1      28.529 -10.027   5.508  0.00  0.00     0.213 C 
ENDBRANCH  19  21
ENDBRANCH  18  19
BRANCH  18  23
ATOM     23  C   UNL d   1      30.132 -13.505   7.468  0.00  0.00     0.093 C 
BRANCH  23  24
ATOM     24  C   UNL d   1      29.305 -14.069   6.379  0.00  0.00     0.028 A 
ATOM     25  C   UNL d   1      29.628 -15.054   5.479  0.00  0.00     0.114 A 
ATOM     26  N   UNL d   1      28.531 -15.247   4.677  0.00  0.00    -0.360 N 
ATOM     27  C   UNL d   1      27.545 -14.417   5.020  0.00  0.00     0.180 A 
ATOM     28  H   UNL d   1      28.467 -15.930   3.927  0.00  0.00     0.166 HD
ATOM     29  N   UNL d   1      28.002 -13.708   6.053  0.00  0.00    -0.354 N 
ATOM     30  H   UNL d   1      27.484 -12.930   6.460  0.00  0.00     0.166 HD
ENDBRANCH  23  24
ENDBRANCH  18  23
ENDBRANCH  15  18
ENDBRANCH  13  14
ENDBRANCH  12  13
ENDBRANCH   1  12
BRANCH   3  31
ATOM     31  O   UNL d   1      27.689 -12.192   2.872  0.00  0.00    -0.360 OA
ATOM     32  H   UNL d   1      27.009 -12.866   3.008  0.00  0.00     0.217 HD
ENDBRANCH   3  31
BRANCH   9  33
ATOM     33  C   UNL d   1      26.850 -16.340  -0.155  0.00  0.00    -0.042 A 
ATOM     34  C   UNL d   1      27.031 -17.680   0.242  0.00  0.00     0.011 A 
ATOM     35  C   UNL d   1      25.966 -18.573   0.241  0.00  0.00     0.040 A 
ATOM     36  C   UNL d   1      24.708 -18.138  -0.155  0.00  0.00     0.102 A 
ATOM     37  C   UNL d   1      24.506 -16.802  -0.521  0.00  0.00     0.102 A 
ATOM     38  O   UNL d   1      23.711 -19.077  -0.148  0.00  0.00    -0.346 OA
ATOM     39  C   UNL d   1      25.573 -15.906  -0.528  0.00  0.00     0.047 A 
ATOM     40  O   UNL d   1      23.288 -16.302  -0.898  0.00  0.00    -0.346 OA
ATOM     41  C   UNL d   1      22.226 -17.190  -0.537  0.00  0.00     0.202 C 
ATOM     42  C   UNL d   1      22.571 -18.628  -0.885  0.00  0.00     0.202 C 
ENDBRANCH   9  33
TORSDOF 10
ENDMDL
MODEL 5
REMARK VINA RESULT:    -6.444      2.413      3.555
REMARK INTER + INTRA:         -13.828
REMARK INTER:                  -9.427
REMARK INTRA:                  -4.401
REMARK CONF_INDEPENDENT:        2.983
REMARK UNBOUND:                -4.401
REMARK  10 active torsions:
REMARK  status: ('A' for Active; 'I' for Inactive)
REMARK    1  A    between atoms: O_2  and  C_3 
REMARK    2  A    between atoms: C_3  and  C_5 
REMARK    3  A    between atoms: C_5  and  C_6 
REMARK    4  A    between atoms: C_5  and  N_12 
REMARK    5  A    between atoms: C_6  and  C_7 
REMARK       I    between atoms: N_12  and  C_13 
REMARK    6  A    between atoms: C_13  and  C_15 
REMARK    7  A    between atoms: C_15  and  O_16 
REMARK    8  A    between atoms: O_16  and  C_17 
REMARK    9  A    between atoms: C_19  and  O_20 
REMARK   10  A    between atoms: C_26  and  C_27 
ROOT
ATOM      1  C   UNL d   1      28.696 -12.637  -0.305  0.00  0.00     0.074 A 
ATOM      2  C   UNL d   1      27.406 -12.837   0.179  0.00  0.00     0.074 A 
ATOM      3  C   UNL d   1      27.207 -13.143   1.525  0.00  0.00     0.085 A 
ATOM      4  C   UNL d   1      28.293 -13.272   2.399  0.00  0.00     0.077 A 
ATOM      5  C   UNL d   1      29.591 -13.118   1.907  0.00  0.00     0.088 A 
ATOM      6  C   UNL d   1      29.790 -12.827   0.550  0.00  0.00     0.074 A 
ATOM      7  O   UNL d   1      30.720 -13.278   2.665  0.00  0.00    -0.349 OA
ATOM      8  C   UNL d   1      30.525 -13.054   4.065  0.00  0.00     0.193 C 
ATOM      9  C   UNL d   1      29.346 -13.819   4.656  0.00  0.00     0.118 C 
ATOM     10  C   UNL d   1      28.099 -13.603   3.828  0.00  0.00     0.175 C 
ATOM     11  O   UNL d   1      26.976 -13.726   4.311  0.00  0.00    -0.291 OA
ENDROOT
BRANCH   1  12
ATOM     12  O   UNL d   1      28.955 -12.331  -1.615  0.00  0.00    -0.342 OA
BRANCH  12  13
ATOM     13  C   UNL d   1      27.967 -11.519  -2.267  0.00  0.00     0.278 C 
BRANCH  13  14
ATOM     14  C   UNL d   1      26.860 -12.413  -2.856  0.00  0.00     0.242 C 
ATOM     15  N   UNL d   1      27.139 -13.770  -2.957  0.00  0.00    -0.345 N 
ATOM     16  H   UNL d   1      28.060 -14.133  -2.717  0.00  0.00     0.163 HD
ATOM     17  O   UNL d   1      25.769 -11.975  -3.216  0.00  0.00    -0.271 OA
BRANCH  15  18
ATOM     18  C   UNL d   1      26.139 -14.734  -3.486  0.00  0.00     0.190 C 
BRANCH  18  19
ATOM     19  C   UNL d   1      26.639 -15.350  -4.822  0.00  0.00     0.281 C 
ATOM     20  O   UNL d   1      25.906 -15.613  -5.770  0.00  0.00    -0.263 OA
BRANCH  19  21
ATOM     21  O   UNL d   1      27.986 -15.577  -4.808  0.00  0.00    -0.325 OA
ATOM     22  C   UNL d   1      28.811 -14.631  -5.510  0.00  0.00     0.213 C 
ENDBRANCH  19  21
ENDBRANCH  18  19
BRANCH  18  23
ATOM     23  C   UNL d   1      25.873 -15.831  -2.449  0.00  0.00     0.093 C 
BRANCH  23  24
ATOM     24  C   UNL d   1      27.007 -16.213  -1.579  0.00  0.00     0.028 A 
ATOM     25  C   UNL d   1      27.039 -16.321  -0.211  0.00  0.00     0.114 A 
ATOM     26  N   UNL d   1      28.305 -16.725   0.135  0.00  0.00    -0.360 N 
ATOM     27  C   UNL d   1      29.069 -16.857  -0.949  0.00  0.00     0.180 A 
ATOM     28  H   UNL d   1      28.622 -16.908   1.083  0.00  0.00     0.166 HD
ATOM     29  N   UNL d   1      28.289 -16.558  -1.990  0.00  0.00    -0.354 N 
ATOM     30  H   UNL d   1      28.645 -16.488  -2.943  0.00  0.00     0.166 HD
ENDBRANCH  23  24
ENDBRANCH  18  23
ENDBRANCH  15  18
ENDBRANCH  13  14
ENDBRANCH  12  13
ENDBRANCH   1  12
BRANCH   3  31
ATOM     31  O   UNL d   1      25.930 -13.321   1.971  0.00  0.00    -0.360 OA
ATOM     32  H   UNL d   1      25.903 -13.694   2.863  0.00  0.00     0.217 HD
ENDBRANCH   3  31
BRANCH   9  33
ATOM     33  C   UNL d   1      29.107 -13.388   6.092  0.00  0.00    -0.042 A 
ATOM     34  C   UNL d   1      28.761 -12.054   6.382  0.00  0.00     0.011 A 
ATOM     35  C   UNL d   1      28.508 -11.651   7.688  0.00  0.00     0.040 A 
ATOM     36  C   UNL d   1      28.595 -12.578   8.719  0.00  0.00     0.102 A 
ATOM     37  C   UNL d   1      28.905 -13.914   8.442  0.00  0.00     0.102 A 
ATOM     38  O   UNL d   1      28.350 -12.105   9.982  0.00  0.00    -0.346 OA
ATOM     39  C   UNL d   1      29.167 -14.320   7.135  0.00  0.00     0.047 A 
ATOM     40  O   UNL d   1      28.983 -14.882   9.408  0.00  0.00    -0.346 OA
ATOM     41  C   UNL d   1      28.380 -14.450  10.631  0.00  0.00     0.202 C 
ATOM     42  C   UNL d   1      28.796 -13.031  10.976  0.00  0.00     0.202 C 
ENDBRANCH   9  33
TORSDOF 10
ENDMDL
MODEL 6
REMARK VINA RESULT:    -5.885      2.966      9.712
REMARK INTER + INTRA:         -14.016
REMARK INTER:                  -8.868
REMARK INTRA:                  -5.149
REMARK CONF_INDEPENDENT:        2.983
REMARK UNBOUND:                -5.149
REMARK  10 active torsions:
REMARK  status: ('A' for Active; 'I' for Inactive)
REMARK    1  A    between atoms: O_2  and  C_3 
REMARK    2  A    between atoms: C_3  and  C_5 
REMARK    3  A    between atoms: C_5  and  C_6 
REMARK    4  A    between atoms: C_5  and  N_12 
REMARK    5  A    between atoms: C_6  and  C_7 
REMARK       I    between atoms: N_12  and  C_13 
REMARK    6  A    between atoms: C_13  and  C_15 
REMARK    7  A    between atoms: C_15  and  O_16 
REMARK    8  A    between atoms: O_16  and  C_17 
REMARK    9  A    between atoms: C_19  and  O_20 
REMARK   10  A    between atoms: C_26  and  C_27 
ROOT
ATOM      1  C   UNL d   1      30.720 -11.321   4.027  0.00  0.00     0.074 A 
ATOM      2  C   UNL d   1      31.238 -12.579   3.730  0.00  0.00     0.074 A 
ATOM      3  C   UNL d   1      30.505 -13.466   2.944  0.00  0.00     0.085 A 
ATOM      4  C   UNL d   1      29.238 -13.117   2.460  0.00  0.00     0.077 A 
ATOM      5  C   UNL d   1      28.695 -11.875   2.794  0.00  0.00     0.088 A 
ATOM      6  C   UNL d   1      29.427 -10.990   3.599  0.00  0.00     0.074 A 
ATOM      7  O   UNL d   1      27.445 -11.460   2.418  0.00  0.00    -0.349 OA
ATOM      8  C   UNL d   1      26.949 -12.088   1.232  0.00  0.00     0.193 C 
ATOM      9  C   UNL d   1      27.049 -13.609   1.249  0.00  0.00     0.118 C 
ATOM     10  C   UNL d   1      28.445 -14.050   1.629  0.00  0.00     0.175 C 
ATOM     11  O   UNL d   1      28.888 -15.144   1.292  0.00  0.00    -0.291 OA
ENDROOT
BRANCH   1  12
ATOM     12  O   UNL d   1      31.394 -10.405   4.790  0.00  0.00    -0.342 OA
BRANCH  12  13
ATOM     13  C   UNL d   1      32.478 -10.929   5.572  0.00  0.00     0.278 C 
BRANCH  13  14
ATOM     14  C   UNL d   1      31.925 -11.722   6.770  0.00  0.00     0.242 C 
ATOM     15  N   UNL d   1      30.544 -11.832   6.865  0.00  0.00    -0.345 N 
ATOM     16  H   UNL d   1      29.936 -11.346   6.207  0.00  0.00     0.163 HD
ATOM     17  O   UNL d   1      32.649 -12.253   7.611  0.00  0.00    -0.271 OA
BRANCH  15  18
ATOM     18  C   UNL d   1      29.895 -12.594   7.963  0.00  0.00     0.190 C 
BRANCH  18  19
ATOM     19  C   UNL d   1      28.487 -12.012   8.264  0.00  0.00     0.281 C 
ATOM     20  O   UNL d   1      27.784 -11.454   7.428  0.00  0.00    -0.263 OA
BRANCH  19  21
ATOM     21  O   UNL d   1      28.133 -12.182   9.573  0.00  0.00    -0.325 OA
ATOM     22  C   UNL d   1      29.180 -12.556  10.486  0.00  0.00     0.213 C 
ENDBRANCH  19  21
ENDBRANCH  18  19
BRANCH  18  23
ATOM     23  C   UNL d   1      29.799 -14.076   7.584  0.00  0.00     0.093 C 
BRANCH  23  24
ATOM     24  C   UNL d   1      29.096 -14.396   6.323  0.00  0.00     0.028 A 
ATOM     25  C   UNL d   1      29.514 -15.194   5.287  0.00  0.00     0.114 A 
ATOM     26  N   UNL d   1      28.512 -15.200   4.349  0.00  0.00    -0.360 N 
ATOM     27  C   UNL d   1      27.496 -14.432   4.741  0.00  0.00     0.180 A 
ATOM     28  H   UNL d   1      28.530 -15.723   3.477  0.00  0.00     0.166 HD
ATOM     29  N   UNL d   1      27.838 -13.949   5.937  0.00  0.00    -0.354 N 
ATOM     30  H   UNL d   1      27.280 -13.253   6.430  0.00  0.00     0.166 HD
ENDBRANCH  23  24
ENDBRANCH  18  23
ENDBRANCH  15  18
ENDBRANCH  13  14
ENDBRANCH  12  13
ENDBRANCH   1  12
BRANCH   3  31
ATOM     31  O   UNL d   1      31.045 -14.687   2.660  0.00  0.00    -0.360 OA
ATOM     32  H   UNL d   1      30.372 -15.377   2.588  0.00  0.00     0.217 HD
ENDBRANCH   3  31
BRANCH   9  33
ATOM     33  C   UNL d   1      26.668 -14.176  -0.108  0.00  0.00    -0.042 A 
ATOM     34  C   UNL d   1      26.286 -15.526  -0.228  0.00  0.00     0.011 A 
ATOM     35  C   UNL d   1      25.904 -16.052  -1.456  0.00  0.00     0.040 A 
ATOM     36  C   UNL d   1      25.897 -15.233  -2.579  0.00  0.00     0.102 A 
ATOM     37  C   UNL d   1      26.243 -13.881  -2.468  0.00  0.00     0.102 A 
ATOM     38  O   UNL d   1      25.527 -15.823  -3.759  0.00  0.00    -0.346 OA
ATOM     39  C   UNL d   1      26.634 -13.353  -1.239  0.00  0.00     0.047 A 
ATOM     40  O   UNL d   1      26.234 -13.014  -3.529  0.00  0.00    -0.346 OA
ATOM     41  C   UNL d   1      25.511 -13.555  -4.639  0.00  0.00     0.202 C 
ATOM     42  C   UNL d   1      25.882 -15.009  -4.878  0.00  0.00     0.202 C 
ENDBRANCH   9  33
TORSDOF 10
ENDMDL
MODEL 7
REMARK VINA RESULT:    -5.821      2.903      5.446
REMARK INTER + INTRA:         -13.817
REMARK INTER:                  -8.804
REMARK INTRA:                  -5.012
REMARK CONF_INDEPENDENT:        2.983
REMARK UNBOUND:                -5.012
REMARK  10 active torsions:
REMARK  status: ('A' for Active; 'I' for Inactive)
REMARK    1  A    between atoms: O_2  and  C_3 
REMARK    2  A    between atoms: C_3  and  C_5 
REMARK    3  A    between atoms: C_5  and  C_6 
REMARK    4  A    between atoms: C_5  and  N_12 
REMARK    5  A    between atoms: C_6  and  C_7 
REMARK       I    between atoms: N_12  and  C_13 
REMARK    6  A    between atoms: C_13  and  C_15 
REMARK    7  A    between atoms: C_15  and  O_16 
REMARK    8  A    between atoms: O_16  and  C_17 
REMARK    9  A    between atoms: C_19  and  O_20 
REMARK   10  A    between atoms: C_26  and  C_27 
ROOT
ATOM      1  C   UNL d   1      25.396 -14.407  -2.543  0.00  0.00     0.074 A 
ATOM      2  C   UNL d   1      25.361 -15.634  -1.887  0.00  0.00     0.074 A 
ATOM      3  C   UNL d   1      26.036 -15.797  -0.677  0.00  0.00     0.085 A 
ATOM      4  C   UNL d   1      26.769 -14.742  -0.118  0.00  0.00     0.077 A 
ATOM      5  C   UNL d   1      26.845 -13.525  -0.797  0.00  0.00     0.088 A 
ATOM      6  C   UNL d   1      26.179 -13.369  -2.022  0.00  0.00     0.074 A 
ATOM      7  O   UNL d   1      27.578 -12.452  -0.364  0.00  0.00    -0.349 OA
ATOM      8  C   UNL d   1      27.800 -12.423   1.049  0.00  0.00     0.193 C 
ATOM      9  C   UNL d   1      28.338 -13.731   1.618  0.00  0.00     0.118 C 
ATOM     10  C   UNL d   1      27.496 -14.900   1.161  0.00  0.00     0.175 C 
ATOM     11  O   UNL d   1      27.442 -15.945   1.804  0.00  0.00    -0.291 OA
ENDROOT
BRANCH   1  12
ATOM     12  O   UNL d   1      24.751 -14.185  -3.731  0.00  0.00    -0.342 OA
BRANCH  12  13
ATOM     13  C   UNL d   1      25.568 -13.661  -4.790  0.00  0.00     0.278 C 
BRANCH  13  14
ATOM     14  C   UNL d   1      26.783 -14.579  -5.016  0.00  0.00     0.242 C 
ATOM     15  N   UNL d   1      27.943 -14.266  -4.319  0.00  0.00    -0.345 N 
ATOM     16  H   UNL d   1      27.996 -13.427  -3.744  0.00  0.00     0.163 HD
ATOM     17  O   UNL d   1      26.753 -15.555  -5.764  0.00  0.00    -0.271 OA
BRANCH  15  18
ATOM     18  C   UNL d   1      29.171 -15.094  -4.437  0.00  0.00     0.190 C 
BRANCH  18  19
ATOM     19  C   UNL d   1      30.415 -14.280  -3.983  0.00  0.00     0.281 C 
ATOM     20  O   UNL d   1      31.572 -14.607  -4.226  0.00  0.00    -0.263 OA
BRANCH  19  21
ATOM     21  O   UNL d   1      30.066 -13.168  -3.269  0.00  0.00    -0.325 OA
ATOM     22  C   UNL d   1      30.727 -11.939  -3.618  0.00  0.00     0.213 C 
ENDBRANCH  19  21
ENDBRANCH  18  19
BRANCH  18  23
ATOM     23  C   UNL d   1      29.024 -16.370  -3.601  0.00  0.00     0.093 C 
BRANCH  23  24
ATOM     24  C   UNL d   1      29.370 -16.269  -2.166  0.00  0.00     0.028 A 
ATOM     25  C   UNL d   1      28.809 -16.928  -1.101  0.00  0.00     0.114 A 
ATOM     26  N   UNL d   1      29.479 -16.521   0.027  0.00  0.00    -0.360 N 
ATOM     27  C   UNL d   1      30.419 -15.627  -0.281  0.00  0.00     0.180 A 
ATOM     28  H   UNL d   1      29.295 -16.856   0.969  0.00  0.00     0.166 HD
ATOM     29  N   UNL d   1      30.365 -15.477  -1.606  0.00  0.00    -0.354 N 
ATOM     30  H   UNL d   1      30.917 -14.778  -2.103  0.00  0.00     0.166 HD
ENDBRANCH  23  24
ENDBRANCH  18  23
ENDBRANCH  15  18
ENDBRANCH  13  14
ENDBRANCH  12  13
ENDBRANCH   1  12
BRANCH   3  31
ATOM     31  O   UNL d   1      25.972 -17.008  -0.052  0.00  0.00    -0.360 OA
ATOM     32  H   UNL d   1      25.724 -16.926   0.879  0.00  0.00     0.217 HD
ENDBRANCH   3  31
BRANCH   9  33
ATOM     33  C   UNL d   1      28.375 -13.668   3.135  0.00  0.00    -0.042 A 
ATOM     34  C   UNL d   1      28.511 -14.851   3.889  0.00  0.00     0.011 A 
ATOM     35  C   UNL d   1      28.578 -14.808   5.276  0.00  0.00     0.040 A 
ATOM     36  C   UNL d   1      28.512 -13.582   5.927  0.00  0.00     0.102 A 
ATOM     37  C   UNL d   1      28.410 -12.397   5.190  0.00  0.00     0.102 A 
ATOM     38  O   UNL d   1      28.566 -13.618   7.295  0.00  0.00    -0.346 OA
ATOM     39  C   UNL d   1      28.335 -12.437   3.799  0.00  0.00     0.047 A 
ATOM     40  O   UNL d   1      28.366 -11.155   5.767  0.00  0.00    -0.346 OA
ATOM     41  C   UNL d   1      28.783 -11.200   7.134  0.00  0.00     0.202 C 
ATOM     42  C   UNL d   1      28.150 -12.373   7.862  0.00  0.00     0.202 C 
ENDBRANCH   9  33
TORSDOF 10
ENDMDL
