MODEL 1
REMARK VINA RESULT:    -9.624      0.000      0.000
REMARK INTER + INTRA:         -14.468
REMARK INTER:                 -12.607
REMARK INTRA:                  -1.861
REMARK CONF_INDEPENDENT:        2.983
REMARK UNBOUND:                -1.861
REMARK  10 active torsions:
REMARK  status: ('A' for Active; 'I' for Inactive)
REMARK    1  A    between atoms: C_2  and  C_3 
REMARK    2  A    between atoms: C_3  and  C_4 
REMARK    3  A    between atoms: C_4  and  O_5 
REMARK    4  A    between atoms: O_5  and  C_6 
REMARK    5  A    between atoms: C_11  and  N_12 
REMARK       I    between atoms: N_12  and  C_13 
REMARK    6  A    between atoms: C_13  and  C_15 
REMARK    7  A    between atoms: C_15  and  N_16 
REMARK    8  A    between atoms: N_16  and  C_17 
REMARK    9  A    between atoms: C_22  and  C_23 
REMARK       I    between atoms: C_23  and  N_25 
REMARK   10  A    between atoms: N_25  and  C_26 
ROOT
ATOM      1  N   UNL d   1      25.238 -13.854  -2.922  0.00  0.00    -0.381 N 
ATOM      2  H   UNL d   1      24.758 -13.073  -2.475  0.00  0.00     0.160 HD
ENDROOT
BRANCH   1   3
ATOM      3  C   UNL d   1      25.476 -13.676  -4.357  0.00  0.00     0.223 C 
BRANCH   3   4
ATOM      4  C   UNL d   1      26.378 -14.827  -4.885  0.00  0.00     0.239 C 
ATOM      5  N   UNL d   1      27.664 -14.872  -4.354  0.00  0.00    -0.323 N 
ATOM      6  H   UNL d   1      27.759 -14.680  -3.365  0.00  0.00     0.169 HD
ATOM      7  O   UNL d   1      25.966 -15.585  -5.763  0.00  0.00    -0.271 OA
BRANCH   5   8
ATOM      8  C   UNL d   1      28.790 -15.466  -5.003  0.00  0.00     0.068 A 
ATOM      9  C   UNL d   1      29.591 -16.338  -4.232  0.00  0.00     0.032 A 
ATOM     10  C   UNL d   1      30.671 -17.037  -4.797  0.00  0.00     0.002 A 
ATOM     11  C   UNL d   1      30.975 -16.872  -6.140  0.00  0.00     0.003 A 
ATOM     12  C   UNL d   1      30.247 -15.952  -6.895  0.00  0.00     0.039 A 
ATOM     13  C   UNL d   1      29.168 -15.232  -6.340  0.00  0.00     0.095 A 
BRANCH  13  14
ATOM     14  O   UNL d   1      28.566 -14.401  -7.247  0.00  0.00    -0.349 OA
BRANCH  14  15
ATOM     15  C   UNL d   1      29.029 -13.055  -7.359  0.00  0.00     0.175 C 
BRANCH  15  16
ATOM     16  C   UNL d   1      27.821 -12.170  -7.684  0.00  0.00     0.026 C 
BRANCH  16  17
ATOM     17  C   UNL d   1      27.723 -11.879  -9.179  0.00  0.00    -0.002 C 
ATOM     18  C   UNL d   1      26.720 -10.773  -9.456  0.00  0.00     0.005 C 
ENDBRANCH  16  17
ENDBRANCH  15  16
ENDBRANCH  14  15
ENDBRANCH  13  14
ENDBRANCH   5   8
ENDBRANCH   3   4
ENDBRANCH   1   3
BRANCH   1  19
ATOM     19  C   UNL d   1      25.402 -14.999  -2.176  0.00  0.00     0.029 A 
ATOM     20  C   UNL d   1      26.611 -15.185  -1.504  0.00  0.00     0.031 A 
ATOM     21  C   UNL d   1      26.797 -16.255  -0.637  0.00  0.00     0.027 A 
ATOM     22  C   UNL d   1      25.755 -17.150  -0.393  0.00  0.00     0.049 A 
ATOM     23 CL   UNL d   1      26.048 -18.256   0.908  0.00  0.00    -0.083 Cl
ATOM     24  C   UNL d   1      24.557 -17.057  -1.131  0.00  0.00     0.055 A 
ATOM     25  C   UNL d   1      24.406 -15.969  -2.021  0.00  0.00     0.048 A 
BRANCH  24  26
ATOM     26  C   UNL d   1      23.471 -18.078  -0.984  0.00  0.00     0.253 C 
ATOM     27  O   UNL d   1      23.336 -18.984  -1.817  0.00  0.00    -0.268 OA
ATOM     28  N   UNL d   1      22.603 -18.002   0.093  0.00  0.00    -0.352 N 
ATOM     29  H   UNL d   1      22.659 -17.263   0.777  0.00  0.00     0.163 HD
BRANCH  28  30
ATOM     30  C   UNL d   1      21.578 -19.023   0.282  0.00  0.00     0.084 C 
ATOM     31  C   UNL d   1      20.999 -18.950   1.705  0.00  0.00     0.025 C 
ATOM     32  C   UNL d   1      19.907 -19.988   1.926  0.00  0.00     0.002 C 
ATOM     33  C   UNL d   1      18.800 -19.855   0.889  0.00  0.00     0.000 C 
ATOM     34  C   UNL d   1      19.364 -19.940  -0.526  0.00  0.00     0.002 C 
ATOM     35  C   UNL d   1      20.457 -18.897  -0.758  0.00  0.00     0.025 C 
ENDBRANCH  28  30
ENDBRANCH  24  26
ENDBRANCH   1  19
TORSDOF 10
ENDMDL
MODEL 2
REMARK VINA RESULT:    -9.375      1.138      3.036
REMARK INTER + INTRA:         -14.295
REMARK INTER:                 -12.358
REMARK INTRA:                  -1.937
REMARK CONF_INDEPENDENT:        2.983
REMARK UNBOUND:                -1.937
REMARK  10 active torsions:
REMARK  status: ('A' for Active; 'I' for Inactive)
REMARK    1  A    between atoms: C_2  and  C_3 
REMARK    2  A    between atoms: C_3  and  C_4 
REMARK    3  A    between atoms: C_4  and  O_5 
REMARK    4  A    between atoms: O_5  and  C_6 
REMARK    5  A    between atoms: C_11  and  N_12 
REMARK       I    between atoms: N_12  and  C_13 
REMARK    6  A    between atoms: C_13  and  C_15 
REMARK    7  A    between atoms: C_15  and  N_16 
REMARK    8  A    between atoms: N_16  and  C_17 
REMARK    9  A    between atoms: C_22  and  C_23 
REMARK       I    between atoms: C_23  and  N_25 
REMARK   10  A    between atoms: N_25  and  C_26 
ROOT
ATOM      1  N   UNL d   1      25.056 -14.058  -2.897  0.00  0.00    -0.381 N 
ATOM      2  H   UNL d   1      24.791 -13.230  -2.361  0.00  0.00     0.160 HD
ENDROOT
BRANCH   1   3
ATOM      3  C   UNL d   1      24.973 -13.892  -4.349  0.00  0.00     0.223 C 
BRANCH   3   4
ATOM      4  C   UNL d   1      26.237 -14.499  -5.019  0.00  0.00     0.239 C 
ATOM      5  N   UNL d   1      27.384 -13.711  -4.959  0.00  0.00    -0.323 N 
ATOM      6  H   UNL d   1      27.559 -13.222  -4.090  0.00  0.00     0.169 HD
ATOM      7  O   UNL d   1      26.169 -15.576  -5.611  0.00  0.00    -0.271 OA
BRANCH   5   8
ATOM      8  C   UNL d   1      28.472 -13.790  -5.882  0.00  0.00     0.068 A 
ATOM      9  C   UNL d   1      28.780 -12.621  -6.613  0.00  0.00     0.032 A 
ATOM     10  C   UNL d   1      29.881 -12.568  -7.484  0.00  0.00     0.002 A 
ATOM     11  C   UNL d   1      30.690 -13.683  -7.646  0.00  0.00     0.003 A 
ATOM     12  C   UNL d   1      30.350 -14.870  -6.996  0.00  0.00     0.039 A 
ATOM     13  C   UNL d   1      29.241 -14.944  -6.128  0.00  0.00     0.095 A 
BRANCH  13  14
ATOM     14  O   UNL d   1      29.092 -16.185  -5.568  0.00  0.00    -0.349 OA
BRANCH  14  15
ATOM     15  C   UNL d   1      29.453 -16.369  -4.199  0.00  0.00     0.175 C 
BRANCH  15  16
ATOM     16  C   UNL d   1      30.581 -17.405  -4.146  0.00  0.00     0.026 C 
BRANCH  16  17
ATOM     17  C   UNL d   1      31.103 -17.738  -5.541  0.00  0.00    -0.002 C 
ATOM     18  C   UNL d   1      30.410 -18.965  -6.106  0.00  0.00     0.005 C 
ENDBRANCH  16  17
ENDBRANCH  15  16
ENDBRANCH  14  15
ENDBRANCH  13  14
ENDBRANCH   5   8
ENDBRANCH   3   4
ENDBRANCH   1   3
BRANCH   1  19
ATOM     19  C   UNL d   1      25.247 -15.225  -2.191  0.00  0.00     0.029 A 
ATOM     20  C   UNL d   1      26.487 -15.436  -1.584  0.00  0.00     0.031 A 
ATOM     21  C   UNL d   1      26.708 -16.531  -0.757  0.00  0.00     0.027 A 
ATOM     22  C   UNL d   1      25.672 -17.426  -0.488  0.00  0.00     0.049 A 
ATOM     23 CL   UNL d   1      26.020 -18.570   0.767  0.00  0.00    -0.083 Cl
ATOM     24  C   UNL d   1      24.441 -17.306  -1.163  0.00  0.00     0.055 A 
ATOM     25  C   UNL d   1      24.254 -16.193  -2.015  0.00  0.00     0.048 A 
BRANCH  24  26
ATOM     26  C   UNL d   1      23.356 -18.325  -0.991  0.00  0.00     0.253 C 
ATOM     27  O   UNL d   1      23.282 -19.304  -1.744  0.00  0.00    -0.268 OA
ATOM     28  N   UNL d   1      22.420 -18.163   0.017  0.00  0.00    -0.352 N 
ATOM     29  H   UNL d   1      22.426 -17.365   0.632  0.00  0.00     0.163 HD
BRANCH  28  30
ATOM     30  C   UNL d   1      21.393 -19.177   0.234  0.00  0.00     0.084 C 
ATOM     31  C   UNL d   1      20.859 -19.105   1.674  0.00  0.00     0.025 C 
ATOM     32  C   UNL d   1      19.767 -20.136   1.925  0.00  0.00     0.002 C 
ATOM     33  C   UNL d   1      18.629 -19.991   0.924  0.00  0.00     0.000 C 
ATOM     34  C   UNL d   1      19.149 -20.075  -0.509  0.00  0.00     0.002 C 
ATOM     35  C   UNL d   1      20.242 -19.039  -0.771  0.00  0.00     0.025 C 
ENDBRANCH  28  30
ENDBRANCH  24  26
ENDBRANCH   1  19
TORSDOF 10
ENDMDL
MODEL 3
REMARK VINA RESULT:    -8.904      1.435      3.510
REMARK INTER + INTRA:         -14.157
REMARK INTER:                 -11.887
REMARK INTRA:                  -2.271
REMARK CONF_INDEPENDENT:        2.983
REMARK UNBOUND:                -2.271
REMARK  10 active torsions:
REMARK  status: ('A' for Active; 'I' for Inactive)
REMARK    1  A    between atoms: C_2  and  C_3 
REMARK    2  A    between atoms: C_3  and  C_4 
REMARK    3  A    between atoms: C_4  and  O_5 
REMARK    4  A    between atoms: O_5  and  C_6 
REMARK    5  A    between atoms: C_11  and  N_12 
REMARK       I    between atoms: N_12  and  C_13 
REMARK    6  A    between atoms: C_13  and  C_15 
REMARK    7  A    between atoms: C_15  and  N_16 
REMARK    8  A    between atoms: N_16  and  C_17 
REMARK    9  A    between atoms: C_22  and  C_23 
REMARK       I    between atoms: C_23  and  N_25 
REMARK   10  A    between atoms: N_25  and  C_26 
ROOT
ATOM      1  N   UNL d   1      25.097 -14.043  -2.859  0.00  0.00    -0.381 N 
ATOM      2  H   UNL d   1      24.743 -13.235  -2.346  0.00  0.00     0.160 HD
ENDROOT
BRANCH   1   3
ATOM      3  C   UNL d   1      25.145 -13.866  -4.312  0.00  0.00     0.223 C 
BRANCH   3   4
ATOM      4  C   UNL d   1      26.224 -14.806  -4.918  0.00  0.00     0.239 C 
ATOM      5  N   UNL d   1      27.537 -14.534  -4.542  0.00  0.00    -0.323 N 
ATOM      6  H   UNL d   1      27.693 -14.279  -3.575  0.00  0.00     0.169 HD
ATOM      7  O   UNL d   1      25.904 -15.678  -5.727  0.00  0.00    -0.271 OA
BRANCH   5   8
ATOM      8  C   UNL d   1      28.691 -14.888  -5.307  0.00  0.00     0.068 A 
ATOM      9  C   UNL d   1      28.927 -14.153  -6.491  0.00  0.00     0.032 A 
ATOM     10  C   UNL d   1      30.077 -14.365  -7.270  0.00  0.00     0.002 A 
ATOM     11  C   UNL d   1      31.006 -15.320  -6.886  0.00  0.00     0.003 A 
ATOM     12  C   UNL d   1      30.746 -16.112  -5.767  0.00  0.00     0.039 A 
ATOM     13  C   UNL d   1      29.591 -15.921  -4.981  0.00  0.00     0.095 A 
BRANCH  13  14
ATOM     14  O   UNL d   1      29.532 -16.777  -3.914  0.00  0.00    -0.349 OA
BRANCH  14  15
ATOM     15  C   UNL d   1      30.022 -16.333  -2.648  0.00  0.00     0.175 C 
BRANCH  15  16
ATOM     16  C   UNL d   1      29.770 -17.451  -1.630  0.00  0.00     0.026 C 
BRANCH  16  17
ATOM     17  C   UNL d   1      29.956 -16.958  -0.197  0.00  0.00    -0.002 C 
ATOM     18  C   UNL d   1      30.948 -15.811  -0.138  0.00  0.00     0.005 C 
ENDBRANCH  16  17
ENDBRANCH  15  16
ENDBRANCH  14  15
ENDBRANCH  13  14
ENDBRANCH   5   8
ENDBRANCH   3   4
ENDBRANCH   1   3
BRANCH   1  19
ATOM     19  C   UNL d   1      25.276 -15.207  -2.145  0.00  0.00     0.029 A 
ATOM     20  C   UNL d   1      26.504 -15.416  -1.516  0.00  0.00     0.031 A 
ATOM     21  C   UNL d   1      26.711 -16.507  -0.681  0.00  0.00     0.027 A 
ATOM     22  C   UNL d   1      25.670 -17.401  -0.426  0.00  0.00     0.049 A 
ATOM     23 CL   UNL d   1      25.996 -18.540   0.840  0.00  0.00    -0.083 Cl
ATOM     24  C   UNL d   1      24.451 -17.284  -1.123  0.00  0.00     0.055 A 
ATOM     25  C   UNL d   1      24.279 -16.174  -1.982  0.00  0.00     0.048 A 
BRANCH  24  26
ATOM     26  C   UNL d   1      23.363 -18.302  -0.965  0.00  0.00     0.253 C 
ATOM     27  O   UNL d   1      23.281 -19.266  -1.737  0.00  0.00    -0.268 OA
ATOM     28  N   UNL d   1      22.433 -18.156   0.051  0.00  0.00    -0.352 N 
ATOM     29  H   UNL d   1      22.445 -17.370   0.682  0.00  0.00     0.163 HD
BRANCH  28  30
ATOM     30  C   UNL d   1      21.403 -19.170   0.254  0.00  0.00     0.084 C 
ATOM     31  C   UNL d   1      20.850 -19.100   1.687  0.00  0.00     0.025 C 
ATOM     32  C   UNL d   1      19.754 -20.131   1.922  0.00  0.00     0.002 C 
ATOM     33  C   UNL d   1      18.630 -19.984   0.906  0.00  0.00     0.000 C 
ATOM     34  C   UNL d   1      19.169 -20.067  -0.520  0.00  0.00     0.002 C 
ATOM     35  C   UNL d   1      20.266 -19.031  -0.766  0.00  0.00     0.025 C 
ENDBRANCH  28  30
ENDBRANCH  24  26
ENDBRANCH   1  19
TORSDOF 10
ENDMDL
MODEL 4
REMARK VINA RESULT:    -8.471      3.692      7.857
REMARK INTER + INTRA:         -13.844
REMARK INTER:                 -11.454
REMARK INTRA:                  -2.390
REMARK CONF_INDEPENDENT:        2.983
REMARK UNBOUND:                -2.390
REMARK  10 active torsions:
REMARK  status: ('A' for Active; 'I' for Inactive)
REMARK    1  A    between atoms: C_2  and  C_3 
REMARK    2  A    between atoms: C_3  and  C_4 
REMARK    3  A    between atoms: C_4  and  O_5 
REMARK    4  A    between atoms: O_5  and  C_6 
REMARK    5  A    between atoms: C_11  and  N_12 
REMARK       I    between atoms: N_12  and  C_13 
REMARK    6  A    between atoms: C_13  and  C_15 
REMARK    7  A    between atoms: C_15  and  N_16 
REMARK    8  A    between atoms: N_16  and  C_17 
REMARK    9  A    between atoms: C_22  and  C_23 
REMARK       I    between atoms: C_23  and  N_25 
REMARK   10  A    between atoms: N_25  and  C_26 
ROOT
ATOM      1  N   UNL d   1      25.571 -12.588  -3.960  0.00  0.00    -0.381 N 
ATOM      2  H   UNL d   1      24.630 -12.195  -3.998  0.00  0.00     0.160 HD
ENDROOT
BRANCH   1   3
ATOM      3  C   UNL d   1      25.828 -13.640  -4.947  0.00  0.00     0.223 C 
BRANCH   3   4
ATOM      4  C   UNL d   1      26.192 -14.964  -4.219  0.00  0.00     0.239 C 
ATOM      5  N   UNL d   1      25.410 -15.271  -3.108  0.00  0.00    -0.323 N 
ATOM      6  H   UNL d   1      24.418 -15.087  -3.180  0.00  0.00     0.169 HD
ATOM      7  O   UNL d   1      27.156 -15.632  -4.591  0.00  0.00    -0.271 OA
BRANCH   5   8
ATOM      8  C   UNL d   1      25.832 -16.101  -2.024  0.00  0.00     0.068 A 
ATOM      9  C   UNL d   1      27.220 -16.170  -1.770  0.00  0.00     0.032 A 
ATOM     10  C   UNL d   1      27.732 -16.890  -0.677  0.00  0.00     0.002 A 
ATOM     11  C   UNL d   1      26.868 -17.560   0.176  0.00  0.00     0.003 A 
ATOM     12  C   UNL d   1      25.502 -17.571  -0.109  0.00  0.00     0.039 A 
ATOM     13  C   UNL d   1      24.973 -16.864  -1.208  0.00  0.00     0.095 A 
BRANCH  13  14
ATOM     14  O   UNL d   1      23.611 -16.977  -1.302  0.00  0.00    -0.349 OA
BRANCH  14  15
ATOM     15  C   UNL d   1      22.906 -17.670  -0.271  0.00  0.00     0.175 C 
BRANCH  15  16
ATOM     16  C   UNL d   1      21.877 -18.586  -0.942  0.00  0.00     0.026 C 
BRANCH  16  17
ATOM     17  C   UNL d   1      21.033 -19.331   0.088  0.00  0.00    -0.002 C 
ATOM     18  C   UNL d   1      19.654 -19.649  -0.463  0.00  0.00     0.005 C 
ENDBRANCH  16  17
ENDBRANCH  15  16
ENDBRANCH  14  15
ENDBRANCH  13  14
ENDBRANCH   5   8
ENDBRANCH   3   4
ENDBRANCH   1   3
BRANCH   1  19
ATOM     19  C   UNL d   1      26.359 -12.224  -2.892  0.00  0.00     0.029 A 
ATOM     20  C   UNL d   1      27.124 -11.060  -3.000  0.00  0.00     0.031 A 
ATOM     21  C   UNL d   1      27.845 -10.569  -1.918  0.00  0.00     0.027 A 
ATOM     22  C   UNL d   1      27.786 -11.216  -0.684  0.00  0.00     0.049 A 
ATOM     23 CL   UNL d   1      28.509 -10.337   0.623  0.00  0.00    -0.083 Cl
ATOM     24  C   UNL d   1      27.112 -12.448  -0.563  0.00  0.00     0.055 A 
ATOM     25  C   UNL d   1      26.405 -12.933  -1.688  0.00  0.00     0.048 A 
BRANCH  24  26
ATOM     26  C   UNL d   1      27.140 -13.229   0.715  0.00  0.00     0.253 C 
ATOM     27  O   UNL d   1      26.135 -13.835   1.109  0.00  0.00    -0.268 OA
ATOM     28  N   UNL d   1      28.302 -13.264   1.469  0.00  0.00    -0.352 N 
ATOM     29  H   UNL d   1      29.132 -12.760   1.200  0.00  0.00     0.163 HD
BRANCH  28  30
ATOM     30  C   UNL d   1      28.362 -14.068   2.685  0.00  0.00     0.084 C 
ATOM     31  C   UNL d   1      29.768 -14.005   3.305  0.00  0.00     0.025 C 
ATOM     32  C   UNL d   1      29.856 -14.815   4.591  0.00  0.00     0.002 C 
ATOM     33  C   UNL d   1      28.805 -14.369   5.599  0.00  0.00     0.000 C 
ATOM     34  C   UNL d   1      27.405 -14.442   4.996  0.00  0.00     0.002 C 
ATOM     35  C   UNL d   1      27.306 -13.626   3.707  0.00  0.00     0.025 C 
ENDBRANCH  28  30
ENDBRANCH  24  26
ENDBRANCH   1  19
TORSDOF 10
ENDMDL
MODEL 5
REMARK VINA RESULT:    -7.822      4.280      8.803
REMARK INTER + INTRA:         -13.493
REMARK INTER:                 -10.805
REMARK INTRA:                  -2.689
REMARK CONF_INDEPENDENT:        2.983
REMARK UNBOUND:                -2.689
REMARK  10 active torsions:
REMARK  status: ('A' for Active; 'I' for Inactive)
REMARK    1  A    between atoms: C_2  and  C_3 
REMARK    2  A    between atoms: C_3  and  C_4 
REMARK    3  A    between atoms: C_4  and  O_5 
REMARK    4  A    between atoms: O_5  and  C_6 
REMARK    5  A    between atoms: C_11  and  N_12 
REMARK       I    between atoms: N_12  and  C_13 
REMARK    6  A    between atoms: C_13  and  C_15 
REMARK    7  A    between atoms: C_15  and  N_16 
REMARK    8  A    between atoms: N_16  and  C_17 
REMARK    9  A    between atoms: C_22  and  C_23 
REMARK       I    between atoms: C_23  and  N_25 
REMARK   10  A    between atoms: N_25  and  C_26 
ROOT
ATOM      1  N   UNL d   1      29.151 -17.610  -0.375  0.00  0.00    -0.381 N 
ATOM      2  H   UNL d   1      29.334 -18.423   0.215  0.00  0.00     0.160 HD
ENDROOT
BRANCH   1   3
ATOM      3  C   UNL d   1      30.317 -16.755  -0.607  0.00  0.00     0.223 C 
BRANCH   3   4
ATOM      4  C   UNL d   1      30.028 -15.322  -0.079  0.00  0.00     0.239 C 
ATOM      5  N   UNL d   1      29.163 -15.247   1.010  0.00  0.00    -0.323 N 
ATOM      6  H   UNL d   1      29.271 -15.950   1.730  0.00  0.00     0.169 HD
ATOM      7  O   UNL d   1      30.500 -14.341  -0.655  0.00  0.00    -0.271 OA
BRANCH   5   8
ATOM      8  C   UNL d   1      28.373 -14.103   1.341  0.00  0.00     0.068 A 
ATOM      9  C   UNL d   1      28.125 -13.172   0.308  0.00  0.00     0.032 A 
ATOM     10  C   UNL d   1      27.292 -12.058   0.507  0.00  0.00     0.002 A 
ATOM     11  C   UNL d   1      26.699 -11.850   1.744  0.00  0.00     0.003 A 
ATOM     12  C   UNL d   1      27.000 -12.714   2.797  0.00  0.00     0.039 A 
ATOM     13  C   UNL d   1      27.844 -13.829   2.618  0.00  0.00     0.095 A 
BRANCH  13  14
ATOM     14  O   UNL d   1      27.994 -14.567   3.762  0.00  0.00    -0.349 OA
BRANCH  14  15
ATOM     15  C   UNL d   1      29.228 -14.485   4.476  0.00  0.00     0.175 C 
BRANCH  15  16
ATOM     16  C   UNL d   1      28.902 -14.451   5.973  0.00  0.00     0.026 C 
BRANCH  16  17
ATOM     17  C   UNL d   1      28.154 -13.177   6.357  0.00  0.00    -0.002 C 
ATOM     18  C   UNL d   1      28.820 -11.951   5.758  0.00  0.00     0.005 C 
ENDBRANCH  16  17
ENDBRANCH  15  16
ENDBRANCH  14  15
ENDBRANCH  13  14
ENDBRANCH   5   8
ENDBRANCH   3   4
ENDBRANCH   1   3
BRANCH   1  19
ATOM     19  C   UNL d   1      27.835 -17.344  -0.682  0.00  0.00     0.029 A 
ATOM     20  C   UNL d   1      26.844 -18.115  -0.072  0.00  0.00     0.031 A 
ATOM     21  C   UNL d   1      25.496 -17.822  -0.241  0.00  0.00     0.027 A 
ATOM     22  C   UNL d   1      25.109 -16.718  -1.002  0.00  0.00     0.049 A 
ATOM     23 CL   UNL d   1      23.424 -16.325  -0.891  0.00  0.00    -0.083 Cl
ATOM     24  C   UNL d   1      26.073 -15.980  -1.718  0.00  0.00     0.055 A 
ATOM     25  C   UNL d   1      27.435 -16.317  -1.542  0.00  0.00     0.048 A 
BRANCH  24  26
ATOM     26  C   UNL d   1      25.675 -14.871  -2.643  0.00  0.00     0.253 C 
ATOM     27  O   UNL d   1      24.858 -15.067  -3.552  0.00  0.00    -0.268 OA
ATOM     28  N   UNL d   1      26.236 -13.615  -2.485  0.00  0.00    -0.352 N 
ATOM     29  H   UNL d   1      26.928 -13.421  -1.778  0.00  0.00     0.163 HD
BRANCH  28  30
ATOM     30  C   UNL d   1      25.815 -12.510  -3.340  0.00  0.00     0.084 C 
ATOM     31  C   UNL d   1      26.303 -11.168  -2.770  0.00  0.00     0.025 C 
ATOM     32  C   UNL d   1      25.900  -9.997  -3.655  0.00  0.00     0.002 C 
ATOM     33  C   UNL d   1      26.397 -10.185  -5.082  0.00  0.00     0.000 C 
ATOM     34  C   UNL d   1      25.905 -11.509  -5.661  0.00  0.00     0.002 C 
ATOM     35  C   UNL d   1      26.311 -12.691  -4.781  0.00  0.00     0.025 C 
ENDBRANCH  28  30
ENDBRANCH  24  26
ENDBRANCH   1  19
TORSDOF 10
ENDMDL
MODEL 6
REMARK VINA RESULT:    -6.725      3.141      5.869
REMARK INTER + INTRA:         -13.539
REMARK INTER:                  -9.708
REMARK INTRA:                  -3.832
REMARK CONF_INDEPENDENT:        2.983
REMARK UNBOUND:                -3.832
REMARK  10 active torsions:
REMARK  status: ('A' for Active; 'I' for Inactive)
REMARK    1  A    between atoms: C_2  and  C_3 
REMARK    2  A    between atoms: C_3  and  C_4 
REMARK    3  A    between atoms: C_4  and  O_5 
REMARK    4  A    between atoms: O_5  and  C_6 
REMARK    5  A    between atoms: C_11  and  N_12 
REMARK       I    between atoms: N_12  and  C_13 
REMARK    6  A    between atoms: C_13  and  C_15 
REMARK    7  A    between atoms: C_15  and  N_16 
REMARK    8  A    between atoms: N_16  and  C_17 
REMARK    9  A    between atoms: C_22  and  C_23 
REMARK       I    between atoms: C_23  and  N_25 
REMARK   10  A    between atoms: N_25  and  C_26 
ROOT
ATOM      1  N   UNL d   1      29.262 -15.353  -6.895  0.00  0.00    -0.381 N 
ATOM      2  H   UNL d   1      28.886 -15.520  -7.829  0.00  0.00     0.160 HD
ENDROOT
BRANCH   1   3
ATOM      3  C   UNL d   1      30.457 -16.137  -6.574  0.00  0.00     0.223 C 
BRANCH   3   4
ATOM      4  C   UNL d   1      30.161 -17.075  -5.371  0.00  0.00     0.239 C 
ATOM      5  N   UNL d   1      30.134 -16.459  -4.123  0.00  0.00    -0.323 N 
ATOM      6  H   UNL d   1      29.692 -15.550  -4.069  0.00  0.00     0.169 HD
ATOM      7  O   UNL d   1      30.031 -18.287  -5.547  0.00  0.00    -0.271 OA
BRANCH   5   8
ATOM      8  C   UNL d   1      30.384 -17.126  -2.883  0.00  0.00     0.068 A 
ATOM      9  C   UNL d   1      31.286 -18.214  -2.910  0.00  0.00     0.032 A 
ATOM     10  C   UNL d   1      31.664 -18.883  -1.733  0.00  0.00     0.002 A 
ATOM     11  C   UNL d   1      31.142 -18.483  -0.512  0.00  0.00     0.003 A 
ATOM     12  C   UNL d   1      30.187 -17.467  -0.479  0.00  0.00     0.039 A 
ATOM     13  C   UNL d   1      29.788 -16.793  -1.651  0.00  0.00     0.095 A 
BRANCH  13  14
ATOM     14  O   UNL d   1      28.864 -15.812  -1.407  0.00  0.00    -0.349 OA
BRANCH  14  15
ATOM     15  C   UNL d   1      29.214 -14.741  -0.530  0.00  0.00     0.175 C 
BRANCH  15  16
ATOM     16  C   UNL d   1      28.349 -14.864   0.729  0.00  0.00     0.026 C 
BRANCH  16  17
ATOM     17  C   UNL d   1      27.030 -14.110   0.581  0.00  0.00    -0.002 C 
ATOM     18  C   UNL d   1      27.104 -13.097  -0.547  0.00  0.00     0.005 C 
ENDBRANCH  16  17
ENDBRANCH  15  16
ENDBRANCH  14  15
ENDBRANCH  13  14
ENDBRANCH   5   8
ENDBRANCH   3   4
ENDBRANCH   1   3
BRANCH   1  19
ATOM     19  C   UNL d   1      28.496 -14.595  -6.039  0.00  0.00     0.029 A 
ATOM     20  C   UNL d   1      28.521 -13.206  -6.181  0.00  0.00     0.031 A 
ATOM     21  C   UNL d   1      27.682 -12.389  -5.434  0.00  0.00     0.027 A 
ATOM     22  C   UNL d   1      26.764 -12.951  -4.547  0.00  0.00     0.049 A 
ATOM     23 CL   UNL d   1      25.609 -11.831  -3.902  0.00  0.00    -0.083 Cl
ATOM     24  C   UNL d   1      26.780 -14.339  -4.298  0.00  0.00     0.055 A 
ATOM     25  C   UNL d   1      27.662 -15.141  -5.059  0.00  0.00     0.048 A 
BRANCH  24  26
ATOM     26  C   UNL d   1      25.895 -14.953  -3.258  0.00  0.00     0.253 C 
ATOM     27  O   UNL d   1      24.682 -14.708  -3.232  0.00  0.00    -0.268 OA
ATOM     28  N   UNL d   1      26.443 -15.799  -2.307  0.00  0.00    -0.352 N 
ATOM     29  H   UNL d   1      27.430 -16.001  -2.273  0.00  0.00     0.163 HD
BRANCH  28  30
ATOM     30  C   UNL d   1      25.585 -16.452  -1.324  0.00  0.00     0.084 C 
ATOM     31  C   UNL d   1      24.426 -17.185  -2.021  0.00  0.00     0.025 C 
ATOM     32  C   UNL d   1      23.526 -17.899  -1.022  0.00  0.00     0.002 C 
ATOM     33  C   UNL d   1      24.321 -18.860  -0.149  0.00  0.00     0.000 C 
ATOM     34  C   UNL d   1      25.465 -18.137   0.557  0.00  0.00     0.002 C 
ATOM     35  C   UNL d   1      26.377 -17.423  -0.439  0.00  0.00     0.025 C 
ENDBRANCH  28  30
ENDBRANCH  24  26
ENDBRANCH   1  19
TORSDOF 10
ENDMDL
