MODEL 1
REMARK VINA RESULT:    -6.870      0.000      0.000
REMARK INTER + INTRA:         -12.382
REMARK INTER:                  -9.554
REMARK INTRA:                  -2.828
REMARK CONF_INDEPENDENT:        2.685
REMARK UNBOUND:                -2.828
REMARK  9 active torsions:
REMARK  status: ('A' for Active; 'I' for Inactive)
REMARK    1  A    between atoms: C_2  and  C_3 
REMARK    2  A    between atoms: C_3  and  N_5 
REMARK       I    between atoms: N_5  and  C_6 
REMARK    3  A    between atoms: C_6  and  C_8 
REMARK    4  A    between atoms: C_8  and  N_10 
REMARK       I    between atoms: N_10  and  C_11 
REMARK       I    between atoms: C_11  and  N_13 
REMARK    5  A    between atoms: N_13  and  C_14 
REMARK    6  A    between atoms: C_14  and  C_15 
REMARK    7  A    between atoms: C_15  and  N_16 
REMARK    8  A    between atoms: N_16  and  C_17 
REMARK    9  A    between atoms: C_22  and  N_23 
ROOT
ATOM      1  N   UNL d   1      24.409 -17.074  -1.556  0.00  0.00    -0.330 N 
ATOM      2  C   UNL d   1      25.527 -16.291  -1.408  0.00  0.00     0.316 C 
ATOM      3  O   UNL d   1      25.946 -15.921  -0.323  0.00  0.00    -0.247 OA
ATOM      4  N   UNL d   1      26.192 -16.016  -2.576  0.00  0.00    -0.342 N 
ATOM      5  H   UNL d   1      24.036 -17.295  -2.470  0.00  0.00     0.165 HD
ATOM      6  H   UNL d   1      25.718 -16.154  -3.457  0.00  0.00     0.164 HD
ENDROOT
BRANCH   4   7
ATOM      7  C   UNL d   1      27.419 -15.212  -2.540  0.00  0.00     0.144 C 
BRANCH   7   8
ATOM      8  C   UNL d   1      28.452 -15.639  -3.590  0.00  0.00     0.139 C 
BRANCH   8   9
ATOM      9  N   UNL d   1      28.393 -14.819  -4.803  0.00  0.00    -0.386 N 
ATOM     10  H   UNL d   1      28.731 -15.216  -5.676  0.00  0.00     0.159 HD
BRANCH   9  11
ATOM     11  C   UNL d   1      27.695 -13.620  -4.873  0.00  0.00     0.061 A 
ATOM     12  C   UNL d   1      28.457 -12.429  -4.957  0.00  0.00     0.031 A 
ATOM     13  C   UNL d   1      27.863 -11.159  -5.032  0.00  0.00     0.002 A 
ATOM     14  C   UNL d   1      26.482 -11.044  -5.098  0.00  0.00     0.003 A 
ATOM     15  C   UNL d   1      25.700 -12.191  -5.031  0.00  0.00     0.038 A 
ATOM     16  C   UNL d   1      26.292 -13.468  -4.906  0.00  0.00     0.129 A 
BRANCH  16  17
ATOM     17  N   UNL d   1      25.350 -14.583  -4.702  0.00  0.00    -0.113 N 
ATOM     18  O   UNL d   1      25.530 -15.607  -5.379  0.00  0.00    -0.532 OA
ATOM     19  O   UNL d   1      24.405 -14.450  -3.910  0.00  0.00    -0.532 OA
ENDBRANCH  16  17
ENDBRANCH   9  11
ENDBRANCH   8   9
ENDBRANCH   7   8
ENDBRANCH   4   7
BRANCH   1  20
ATOM     20  C   UNL d   1      23.648 -17.571  -0.386  0.00  0.00     0.174 C 
ATOM     21  C   UNL d   1      24.583 -18.257   0.605  0.00  0.00     0.042 C 
BRANCH  20  22
ATOM     22  C   UNL d   1      22.546 -18.582  -0.818  0.00  0.00     0.240 C 
ATOM     23  N   UNL d   1      21.674 -19.037   0.171  0.00  0.00    -0.355 N 
ATOM     24  H   UNL d   1      21.801 -18.740   1.131  0.00  0.00     0.162 HD
ATOM     25  O   UNL d   1      22.462 -18.950  -1.993  0.00  0.00    -0.271 OA
BRANCH  23  26
ATOM     26  C   UNL d   1      20.585 -19.989  -0.124  0.00  0.00     0.080 C 
ATOM     27  C   UNL d   1      19.537 -19.325  -1.022  0.00  0.00     0.032 C 
BRANCH  26  28
ATOM     28  C   UNL d   1      19.905 -20.539   1.153  0.00  0.00     0.020 C 
ATOM     29  C   UNL d   1      20.213 -19.701   2.398  0.00  0.00     0.007 C 
ENDBRANCH  26  28
ENDBRANCH  23  26
ENDBRANCH  20  22
ENDBRANCH   1  20
TORSDOF 9
ENDMDL
MODEL 2
REMARK VINA RESULT:    -5.272      1.818      2.877
REMARK INTER + INTRA:         -12.739
REMARK INTER:                  -7.957
REMARK INTRA:                  -4.782
REMARK CONF_INDEPENDENT:        2.685
REMARK UNBOUND:                -4.782
REMARK  9 active torsions:
REMARK  status: ('A' for Active; 'I' for Inactive)
REMARK    1  A    between atoms: C_2  and  C_3 
REMARK    2  A    between atoms: C_3  and  N_5 
REMARK       I    between atoms: N_5  and  C_6 
REMARK    3  A    between atoms: C_6  and  C_8 
REMARK    4  A    between atoms: C_8  and  N_10 
REMARK       I    between atoms: N_10  and  C_11 
REMARK       I    between atoms: C_11  and  N_13 
REMARK    5  A    between atoms: N_13  and  C_14 
REMARK    6  A    between atoms: C_14  and  C_15 
REMARK    7  A    between atoms: C_15  and  N_16 
REMARK    8  A    between atoms: N_16  and  C_17 
REMARK    9  A    between atoms: C_22  and  N_23 
ROOT
ATOM      1  N   UNL d   1      27.304 -16.343  -2.322  0.00  0.00    -0.330 N 
ATOM      2  C   UNL d   1      28.496 -15.903  -2.841  0.00  0.00     0.316 C 
ATOM      3  O   UNL d   1      29.441 -15.561  -2.150  0.00  0.00    -0.247 OA
ATOM      4  N   UNL d   1      28.575 -15.950  -4.210  0.00  0.00    -0.342 N 
ATOM      5  H   UNL d   1      26.508 -16.539  -2.916  0.00  0.00     0.165 HD
ATOM      6  H   UNL d   1      27.727 -16.034  -4.751  0.00  0.00     0.164 HD
ENDROOT
BRANCH   4   7
ATOM      7  C   UNL d   1      29.813 -15.532  -4.879  0.00  0.00     0.144 C 
BRANCH   7   8
ATOM      8  C   UNL d   1      29.566 -14.671  -6.124  0.00  0.00     0.139 C 
BRANCH   8   9
ATOM      9  N   UNL d   1      28.142 -14.449  -6.381  0.00  0.00    -0.386 N 
ATOM     10  H   UNL d   1      27.628 -15.147  -6.913  0.00  0.00     0.159 HD
BRANCH   9  11
ATOM     11  C   UNL d   1      27.404 -13.455  -5.750  0.00  0.00     0.061 A 
ATOM     12  C   UNL d   1      27.799 -12.112  -5.970  0.00  0.00     0.031 A 
ATOM     13  C   UNL d   1      27.130 -11.025  -5.385  0.00  0.00     0.002 A 
ATOM     14  C   UNL d   1      25.996 -11.243  -4.616  0.00  0.00     0.003 A 
ATOM     15  C   UNL d   1      25.570 -12.546  -4.387  0.00  0.00     0.038 A 
ATOM     16  C   UNL d   1      26.268 -13.646  -4.933  0.00  0.00     0.129 A 
BRANCH  16  17
ATOM     17  N   UNL d   1      25.796 -14.973  -4.497  0.00  0.00    -0.113 N 
ATOM     18  O   UNL d   1      26.152 -15.950  -5.173  0.00  0.00    -0.532 OA
ATOM     19  O   UNL d   1      25.041 -15.063  -3.518  0.00  0.00    -0.532 OA
ENDBRANCH  16  17
ENDBRANCH   9  11
ENDBRANCH   8   9
ENDBRANCH   7   8
ENDBRANCH   4   7
BRANCH   1  20
ATOM     20  C   UNL d   1      27.095 -16.479  -0.862  0.00  0.00     0.174 C 
ATOM     21  C   UNL d   1      28.149 -17.404  -0.258  0.00  0.00     0.042 C 
BRANCH  20  22
ATOM     22  C   UNL d   1      25.683 -17.053  -0.544  0.00  0.00     0.240 C 
ATOM     23  N   UNL d   1      24.734 -17.012  -1.566  0.00  0.00    -0.355 N 
ATOM     24  H   UNL d   1      24.965 -16.582  -2.453  0.00  0.00     0.162 HD
ATOM     25  O   UNL d   1      25.437 -17.525   0.569  0.00  0.00    -0.271 OA
BRANCH  23  26
ATOM     26  C   UNL d   1      23.367 -17.537  -1.382  0.00  0.00     0.080 C 
ATOM     27  C   UNL d   1      22.546 -16.573  -0.520  0.00  0.00     0.032 C 
BRANCH  26  28
ATOM     28  C   UNL d   1      23.346 -18.950  -0.748  0.00  0.00     0.020 C 
ATOM     29  C   UNL d   1      21.976 -19.322  -0.170  0.00  0.00     0.007 C 
ENDBRANCH  26  28
ENDBRANCH  23  26
ENDBRANCH  20  22
ENDBRANCH   1  20
TORSDOF 9
ENDMDL
MODEL 3
REMARK VINA RESULT:    -4.863      2.227      3.767
REMARK INTER + INTRA:         -11.769
REMARK INTER:                  -7.548
REMARK INTRA:                  -4.221
REMARK CONF_INDEPENDENT:        2.685
REMARK UNBOUND:                -4.221
REMARK  9 active torsions:
REMARK  status: ('A' for Active; 'I' for Inactive)
REMARK    1  A    between atoms: C_2  and  C_3 
REMARK    2  A    between atoms: C_3  and  N_5 
REMARK       I    between atoms: N_5  and  C_6 
REMARK    3  A    between atoms: C_6  and  C_8 
REMARK    4  A    between atoms: C_8  and  N_10 
REMARK       I    between atoms: N_10  and  C_11 
REMARK       I    between atoms: C_11  and  N_13 
REMARK    5  A    between atoms: N_13  and  C_14 
REMARK    6  A    between atoms: C_14  and  C_15 
REMARK    7  A    between atoms: C_15  and  N_16 
REMARK    8  A    between atoms: N_16  and  C_17 
REMARK    9  A    between atoms: C_22  and  N_23 
ROOT
ATOM      1  N   UNL d   1      26.325 -14.258  -1.242  0.00  0.00    -0.330 N 
ATOM      2  C   UNL d   1      26.636 -12.934  -1.431  0.00  0.00     0.316 C 
ATOM      3  O   UNL d   1      27.499 -12.352  -0.794  0.00  0.00    -0.247 OA
ATOM      4  N   UNL d   1      25.951 -12.326  -2.452  0.00  0.00    -0.342 N 
ATOM      5  H   UNL d   1      25.548 -14.693  -1.723  0.00  0.00     0.165 HD
ATOM      6  H   UNL d   1      25.115 -12.761  -2.814  0.00  0.00     0.164 HD
ENDROOT
BRANCH   4   7
ATOM      7  C   UNL d   1      26.221 -10.918  -2.768  0.00  0.00     0.144 C 
BRANCH   7   8
ATOM      8  C   UNL d   1      26.308 -10.643  -4.275  0.00  0.00     0.139 C 
BRANCH   8   9
ATOM      9  N   UNL d   1      25.842 -11.774  -5.081  0.00  0.00    -0.386 N 
ATOM     10  H   UNL d   1      24.962 -11.685  -5.582  0.00  0.00     0.159 HD
BRANCH   9  11
ATOM     11  C   UNL d   1      26.643 -12.870  -5.381  0.00  0.00     0.061 A 
ATOM     12  C   UNL d   1      27.752 -12.651  -6.235  0.00  0.00     0.031 A 
ATOM     13  C   UNL d   1      28.629 -13.682  -6.609  0.00  0.00     0.002 A 
ATOM     14  C   UNL d   1      28.467 -14.953  -6.079  0.00  0.00     0.003 A 
ATOM     15  C   UNL d   1      27.398 -15.205  -5.227  0.00  0.00     0.038 A 
ATOM     16  C   UNL d   1      26.483 -14.183  -4.888  0.00  0.00     0.129 A 
BRANCH  16  17
ATOM     17  N   UNL d   1      25.319 -14.616  -4.094  0.00  0.00    -0.113 N 
ATOM     18  O   UNL d   1      24.289 -13.930  -4.180  0.00  0.00    -0.532 OA
ATOM     19  O   UNL d   1      25.418 -15.603  -3.350  0.00  0.00    -0.532 OA
ENDBRANCH  16  17
ENDBRANCH   9  11
ENDBRANCH   8   9
ENDBRANCH   7   8
ENDBRANCH   4   7
BRANCH   1  20
ATOM     20  C   UNL d   1      27.061 -15.097  -0.268  0.00  0.00     0.174 C 
ATOM     21  C   UNL d   1      28.518 -15.253  -0.693  0.00  0.00     0.042 C 
BRANCH  20  22
ATOM     22  C   UNL d   1      26.420 -16.511  -0.144  0.00  0.00     0.240 C 
ATOM     23  N   UNL d   1      25.208 -16.722  -0.802  0.00  0.00    -0.355 N 
ATOM     24  H   UNL d   1      24.762 -15.958  -1.296  0.00  0.00     0.162 HD
ATOM     25  O   UNL d   1      26.980 -17.395   0.508  0.00  0.00    -0.271 OA
BRANCH  23  26
ATOM     26  C   UNL d   1      24.515 -18.024  -0.764  0.00  0.00     0.080 C 
ATOM     27  C   UNL d   1      23.656 -18.199  -2.020  0.00  0.00     0.032 C 
BRANCH  26  28
ATOM     28  C   UNL d   1      23.635 -18.199   0.498  0.00  0.00     0.020 C 
ATOM     29  C   UNL d   1      22.170 -18.499   0.165  0.00  0.00     0.007 C 
ENDBRANCH  26  28
ENDBRANCH  23  26
ENDBRANCH  20  22
ENDBRANCH   1  20
TORSDOF 9
ENDMDL
MODEL 4
REMARK VINA RESULT:    -4.723      3.028      5.687
REMARK INTER + INTRA:         -11.689
REMARK INTER:                  -7.407
REMARK INTRA:                  -4.282
REMARK CONF_INDEPENDENT:        2.685
REMARK UNBOUND:                -4.282
REMARK  9 active torsions:
REMARK  status: ('A' for Active; 'I' for Inactive)
REMARK    1  A    between atoms: C_2  and  C_3 
REMARK    2  A    between atoms: C_3  and  N_5 
REMARK       I    between atoms: N_5  and  C_6 
REMARK    3  A    between atoms: C_6  and  C_8 
REMARK    4  A    between atoms: C_8  and  N_10 
REMARK       I    between atoms: N_10  and  C_11 
REMARK       I    between atoms: C_11  and  N_13 
REMARK    5  A    between atoms: N_13  and  C_14 
REMARK    6  A    between atoms: C_14  and  C_15 
REMARK    7  A    between atoms: C_15  and  N_16 
REMARK    8  A    between atoms: N_16  and  C_17 
REMARK    9  A    between atoms: C_22  and  N_23 
ROOT
ATOM      1  N   UNL d   1      27.507 -15.197  -3.933  0.00  0.00    -0.330 N 
ATOM      2  C   UNL d   1      27.774 -15.020  -5.268  0.00  0.00     0.316 C 
ATOM      3  O   UNL d   1      26.944 -15.196  -6.145  0.00  0.00    -0.247 OA
ATOM      4  N   UNL d   1      29.034 -14.550  -5.542  0.00  0.00    -0.342 N 
ATOM      5  H   UNL d   1      28.236 -15.127  -3.234  0.00  0.00     0.165 HD
ATOM      6  H   UNL d   1      29.749 -14.614  -4.832  0.00  0.00     0.164 HD
ENDROOT
BRANCH   4   7
ATOM      7  C   UNL d   1      29.424 -14.294  -6.933  0.00  0.00     0.144 C 
BRANCH   7   8
ATOM      8  C   UNL d   1      30.830 -14.808  -7.270  0.00  0.00     0.139 C 
BRANCH   8   9
ATOM      9  N   UNL d   1      31.403 -15.623  -6.198  0.00  0.00    -0.386 N 
ATOM     10  H   UNL d   1      31.974 -15.167  -5.491  0.00  0.00     0.159 HD
BRANCH   9  11
ATOM     11  C   UNL d   1      31.027 -16.941  -5.965  0.00  0.00     0.061 A 
ATOM     12  C   UNL d   1      31.282 -17.881  -6.993  0.00  0.00     0.031 A 
ATOM     13  C   UNL d   1      30.944 -19.239  -6.871  0.00  0.00     0.002 A 
ATOM     14  C   UNL d   1      30.406 -19.714  -5.684  0.00  0.00     0.003 A 
ATOM     15  C   UNL d   1      30.153 -18.824  -4.647  0.00  0.00     0.038 A 
ATOM     16  C   UNL d   1      30.445 -17.448  -4.783  0.00  0.00     0.129 A 
BRANCH  16  17
ATOM     17  N   UNL d   1      29.997 -16.595  -3.667  0.00  0.00    -0.113 N 
ATOM     18  O   UNL d   1      29.158 -17.076  -2.890  0.00  0.00    -0.532 OA
ATOM     19  O   UNL d   1      30.430 -15.437  -3.569  0.00  0.00    -0.532 OA
ENDBRANCH  16  17
ENDBRANCH   9  11
ENDBRANCH   8   9
ENDBRANCH   7   8
ENDBRANCH   4   7
BRANCH   1  20
ATOM     20  C   UNL d   1      26.157 -15.576  -3.454  0.00  0.00     0.174 C 
ATOM     21  C   UNL d   1      25.212 -14.379  -3.526  0.00  0.00     0.042 C 
BRANCH  20  22
ATOM     22  C   UNL d   1      26.204 -16.090  -1.985  0.00  0.00     0.240 C 
ATOM     23  N   UNL d   1      25.186 -16.954  -1.580  0.00  0.00    -0.355 N 
ATOM     24  H   UNL d   1      24.436 -17.187  -2.220  0.00  0.00     0.162 HD
ATOM     25  O   UNL d   1      27.113 -15.740  -1.230  0.00  0.00    -0.271 OA
BRANCH  23  26
ATOM     26  C   UNL d   1      25.134 -17.512  -0.214  0.00  0.00     0.080 C 
ATOM     27  C   UNL d   1      26.460 -18.199   0.123  0.00  0.00     0.032 C 
BRANCH  26  28
ATOM     28  C   UNL d   1      23.965 -18.510  -0.018  0.00  0.00     0.020 C 
ATOM     29  C   UNL d   1      22.596 -17.886  -0.306  0.00  0.00     0.007 C 
ENDBRANCH  26  28
ENDBRANCH  23  26
ENDBRANCH  20  22
ENDBRANCH   1  20
TORSDOF 9
ENDMDL
MODEL 5
REMARK VINA RESULT:    -4.416      3.252      6.351
REMARK INTER + INTRA:         -11.893
REMARK INTER:                  -7.101
REMARK INTRA:                  -4.792
REMARK CONF_INDEPENDENT:        2.685
REMARK UNBOUND:                -4.792
REMARK  9 active torsions:
REMARK  status: ('A' for Active; 'I' for Inactive)
REMARK    1  A    between atoms: C_2  and  C_3 
REMARK    2  A    between atoms: C_3  and  N_5 
REMARK       I    between atoms: N_5  and  C_6 
REMARK    3  A    between atoms: C_6  and  C_8 
REMARK    4  A    between atoms: C_8  and  N_10 
REMARK       I    between atoms: N_10  and  C_11 
REMARK       I    between atoms: C_11  and  N_13 
REMARK    5  A    between atoms: N_13  and  C_14 
REMARK    6  A    between atoms: C_14  and  C_15 
REMARK    7  A    between atoms: C_15  and  N_16 
REMARK    8  A    between atoms: N_16  and  C_17 
REMARK    9  A    between atoms: C_22  and  N_23 
ROOT
ATOM      1  N   UNL d   1      27.771 -13.514  -4.844  0.00  0.00    -0.330 N 
ATOM      2  C   UNL d   1      28.628 -13.342  -5.903  0.00  0.00     0.316 C 
ATOM      3  O   UNL d   1      28.249 -13.124  -7.043  0.00  0.00    -0.247 OA
ATOM      4  N   UNL d   1      29.959 -13.355  -5.570  0.00  0.00    -0.342 N 
ATOM      5  H   UNL d   1      28.110 -13.777  -3.928  0.00  0.00     0.165 HD
ATOM      6  H   UNL d   1      30.241 -13.738  -4.679  0.00  0.00     0.164 HD
ENDROOT
BRANCH   4   7
ATOM      7  C   UNL d   1      30.970 -13.151  -6.614  0.00  0.00     0.144 C 
BRANCH   7   8
ATOM      8  C   UNL d   1      31.290 -14.428  -7.403  0.00  0.00     0.139 C 
BRANCH   8   9
ATOM      9  N   UNL d   1      30.245 -15.446  -7.273  0.00  0.00    -0.386 N 
ATOM     10  H   UNL d   1      29.421 -15.376  -7.865  0.00  0.00     0.159 HD
BRANCH   9  11
ATOM     11  C   UNL d   1      30.419 -16.622  -6.554  0.00  0.00     0.061 A 
ATOM     12  C   UNL d   1      31.213 -17.635  -7.146  0.00  0.00     0.031 A 
ATOM     13  C   UNL d   1      31.457 -18.865  -6.514  0.00  0.00     0.002 A 
ATOM     14  C   UNL d   1      30.975 -19.092  -5.233  0.00  0.00     0.003 A 
ATOM     15  C   UNL d   1      30.203 -18.117  -4.614  0.00  0.00     0.038 A 
ATOM     16  C   UNL d   1      29.912 -16.897  -5.265  0.00  0.00     0.129 A 
BRANCH  16  17
ATOM     17  N   UNL d   1      28.968 -16.014  -4.558  0.00  0.00    -0.113 N 
ATOM     18  O   UNL d   1      29.402 -15.395  -3.574  0.00  0.00    -0.532 OA
ATOM     19  O   UNL d   1      27.788 -15.951  -4.934  0.00  0.00    -0.532 OA
ENDBRANCH  16  17
ENDBRANCH   9  11
ENDBRANCH   8   9
ENDBRANCH   7   8
ENDBRANCH   4   7
BRANCH   1  20
ATOM     20  C   UNL d   1      26.303 -13.399  -5.006  0.00  0.00     0.174 C 
ATOM     21  C   UNL d   1      25.882 -11.933  -5.013  0.00  0.00     0.042 C 
BRANCH  20  22
ATOM     22  C   UNL d   1      25.550 -14.132  -3.857  0.00  0.00     0.240 C 
ATOM     23  N   UNL d   1      26.323 -14.852  -2.946  0.00  0.00    -0.355 N 
ATOM     24  H   UNL d   1      27.325 -14.916  -3.073  0.00  0.00     0.162 HD
ATOM     25  O   UNL d   1      24.322 -14.061  -3.772  0.00  0.00    -0.271 OA
BRANCH  23  26
ATOM     26  C   UNL d   1      25.718 -15.577  -1.811  0.00  0.00     0.080 C 
ATOM     27  C   UNL d   1      26.815 -16.146  -0.907  0.00  0.00     0.032 C 
BRANCH  26  28
ATOM     28  C   UNL d   1      24.771 -16.716  -2.263  0.00  0.00     0.020 C 
ATOM     29  C   UNL d   1      24.377 -17.651  -1.115  0.00  0.00     0.007 C 
ENDBRANCH  26  28
ENDBRANCH  23  26
ENDBRANCH  20  22
ENDBRANCH   1  20
TORSDOF 9
ENDMDL
MODEL 6
REMARK VINA RESULT:    -4.048      4.408      6.873
REMARK INTER + INTRA:         -11.946
REMARK INTER:                  -6.732
REMARK INTRA:                  -5.214
REMARK CONF_INDEPENDENT:        2.685
REMARK UNBOUND:                -5.214
REMARK  9 active torsions:
REMARK  status: ('A' for Active; 'I' for Inactive)
REMARK    1  A    between atoms: C_2  and  C_3 
REMARK    2  A    between atoms: C_3  and  N_5 
REMARK       I    between atoms: N_5  and  C_6 
REMARK    3  A    between atoms: C_6  and  C_8 
REMARK    4  A    between atoms: C_8  and  N_10 
REMARK       I    between atoms: N_10  and  C_11 
REMARK       I    between atoms: C_11  and  N_13 
REMARK    5  A    between atoms: N_13  and  C_14 
REMARK    6  A    between atoms: C_14  and  C_15 
REMARK    7  A    between atoms: C_15  and  N_16 
REMARK    8  A    between atoms: N_16  and  C_17 
REMARK    9  A    between atoms: C_22  and  N_23 
ROOT
ATOM      1  N   UNL d   1      27.286 -13.453  -1.394  0.00  0.00    -0.330 N 
ATOM      2  C   UNL d   1      28.652 -13.416  -1.259  0.00  0.00     0.316 C 
ATOM      3  O   UNL d   1      29.421 -13.580  -2.192  0.00  0.00    -0.247 OA
ATOM      4  N   UNL d   1      29.093 -13.100   0.001  0.00  0.00    -0.342 N 
ATOM      5  H   UNL d   1      26.673 -13.399  -0.590  0.00  0.00     0.165 HD
ATOM      6  H   UNL d   1      28.456 -13.175   0.781  0.00  0.00     0.164 HD
ENDROOT
BRANCH   4   7
ATOM      7  C   UNL d   1      30.534 -13.000   0.260  0.00  0.00     0.144 C 
BRANCH   7   8
ATOM      8  C   UNL d   1      30.959 -13.668   1.575  0.00  0.00     0.139 C 
BRANCH   8   9
ATOM      9  N   UNL d   1      29.979 -14.645   2.052  0.00  0.00    -0.386 N 
ATOM     10  H   UNL d   1      30.033 -15.599   1.705  0.00  0.00     0.159 HD
BRANCH   9  11
ATOM     11  C   UNL d   1      29.124 -14.400   3.120  0.00  0.00     0.061 A 
ATOM     12  C   UNL d   1      29.649 -14.565   4.425  0.00  0.00     0.031 A 
ATOM     13  C   UNL d   1      28.880 -14.347   5.579  0.00  0.00     0.002 A 
ATOM     14  C   UNL d   1      27.577 -13.884   5.465  0.00  0.00     0.003 A 
ATOM     15  C   UNL d   1      27.030 -13.698   4.201  0.00  0.00     0.038 A 
ATOM     16  C   UNL d   1      27.784 -13.964   3.036  0.00  0.00     0.129 A 
BRANCH  16  17
ATOM     17  N   UNL d   1      27.041 -13.863   1.767  0.00  0.00    -0.113 N 
ATOM     18  O   UNL d   1      27.088 -14.841   1.005  0.00  0.00    -0.532 OA
ATOM     19  O   UNL d   1      26.443 -12.813   1.489  0.00  0.00    -0.532 OA
ENDBRANCH  16  17
ENDBRANCH   9  11
ENDBRANCH   8   9
ENDBRANCH   7   8
ENDBRANCH   4   7
BRANCH   1  20
ATOM     20  C   UNL d   1      26.641 -13.653  -2.712  0.00  0.00     0.174 C 
ATOM     21  C   UNL d   1      25.812 -12.428  -3.090  0.00  0.00     0.042 C 
BRANCH  20  22
ATOM     22  C   UNL d   1      25.713 -14.903  -2.703  0.00  0.00     0.240 C 
ATOM     23  N   UNL d   1      25.545 -15.563  -1.485  0.00  0.00    -0.355 N 
ATOM     24  H   UNL d   1      26.051 -15.249  -0.666  0.00  0.00     0.162 HD
ATOM     25  O   UNL d   1      25.155 -15.274  -3.738  0.00  0.00    -0.271 OA
BRANCH  23  26
ATOM     26  C   UNL d   1      24.680 -16.752  -1.355  0.00  0.00     0.080 C 
ATOM     27  C   UNL d   1      23.286 -16.339  -0.873  0.00  0.00     0.032 C 
BRANCH  26  28
ATOM     28  C   UNL d   1      25.267 -17.819  -0.398  0.00  0.00     0.020 C 
ATOM     29  C   UNL d   1      26.734 -17.557  -0.043  0.00  0.00     0.007 C 
ENDBRANCH  26  28
ENDBRANCH  23  26
ENDBRANCH  20  22
ENDBRANCH   1  20
TORSDOF 9
ENDMDL
MODEL 7
REMARK VINA RESULT:    -4.024      3.036      4.927
REMARK INTER + INTRA:         -11.656
REMARK INTER:                  -6.709
REMARK INTRA:                  -4.947
REMARK CONF_INDEPENDENT:        2.685
REMARK UNBOUND:                -4.947
REMARK  9 active torsions:
REMARK  status: ('A' for Active; 'I' for Inactive)
REMARK    1  A    between atoms: C_2  and  C_3 
REMARK    2  A    between atoms: C_3  and  N_5 
REMARK       I    between atoms: N_5  and  C_6 
REMARK    3  A    between atoms: C_6  and  C_8 
REMARK    4  A    between atoms: C_8  and  N_10 
REMARK       I    between atoms: N_10  and  C_11 
REMARK       I    between atoms: C_11  and  N_13 
REMARK    5  A    between atoms: N_13  and  C_14 
REMARK    6  A    between atoms: C_14  and  C_15 
REMARK    7  A    between atoms: C_15  and  N_16 
REMARK    8  A    between atoms: N_16  and  C_17 
REMARK    9  A    between atoms: C_22  and  N_23 
ROOT
ATOM      1  N   UNL d   1      28.075 -15.438  -3.824  0.00  0.00    -0.330 N 
ATOM      2  C   UNL d   1      28.353 -14.294  -4.530  0.00  0.00     0.316 C 
ATOM      3  O   UNL d   1      29.399 -13.675  -4.417  0.00  0.00    -0.247 OA
ATOM      4  N   UNL d   1      27.391 -13.936  -5.441  0.00  0.00    -0.342 N 
ATOM      5  H   UNL d   1      27.167 -15.883  -3.873  0.00  0.00     0.165 HD
ATOM      6  H   UNL d   1      26.467 -14.336  -5.365  0.00  0.00     0.164 HD
ENDROOT
BRANCH   4   7
ATOM      7  C   UNL d   1      27.591 -12.747  -6.277  0.00  0.00     0.144 C 
BRANCH   7   8
ATOM      8  C   UNL d   1      26.864 -11.505  -5.745  0.00  0.00     0.139 C 
BRANCH   8   9
ATOM      9  N   UNL d   1      25.838 -11.836  -4.753  0.00  0.00    -0.386 N 
ATOM     10  H   UNL d   1      24.868 -11.884  -5.053  0.00  0.00     0.159 HD
BRANCH   9  11
ATOM     11  C   UNL d   1      26.140 -12.307  -3.481  0.00  0.00     0.061 A 
ATOM     12  C   UNL d   1      26.815 -11.424  -2.603  0.00  0.00     0.031 A 
ATOM     13  C   UNL d   1      27.172 -11.791  -1.295  0.00  0.00     0.002 A 
ATOM     14  C   UNL d   1      26.798 -13.030  -0.798  0.00  0.00     0.003 A 
ATOM     15  C   UNL d   1      26.123 -13.920  -1.625  0.00  0.00     0.038 A 
ATOM     16  C   UNL d   1      25.805 -13.575  -2.958  0.00  0.00     0.129 A 
BRANCH  16  17
ATOM     17  N   UNL d   1      25.218 -14.658  -3.767  0.00  0.00    -0.113 N 
ATOM     18  O   UNL d   1      24.405 -14.331  -4.645  0.00  0.00    -0.532 OA
ATOM     19  O   UNL d   1      25.514 -15.837  -3.521  0.00  0.00    -0.532 OA
ENDBRANCH  16  17
ENDBRANCH   9  11
ENDBRANCH   8   9
ENDBRANCH   7   8
ENDBRANCH   4   7
BRANCH   1  20
ATOM     20  C   UNL d   1      29.061 -16.035  -2.893  0.00  0.00     0.174 C 
ATOM     21  C   UNL d   1      29.728 -17.250  -3.533  0.00  0.00     0.042 C 
BRANCH  20  22
ATOM     22  C   UNL d   1      28.385 -16.478  -1.562  0.00  0.00     0.240 C 
ATOM     23  N   UNL d   1      27.043 -16.857  -1.624  0.00  0.00    -0.355 N 
ATOM     24  H   UNL d   1      26.541 -16.796  -2.501  0.00  0.00     0.162 HD
ATOM     25  O   UNL d   1      29.027 -16.490  -0.510  0.00  0.00    -0.271 OA
BRANCH  23  26
ATOM     26  C   UNL d   1      26.303 -17.304  -0.428  0.00  0.00     0.080 C 
ATOM     27  C   UNL d   1      27.030 -18.480   0.231  0.00  0.00     0.032 C 
BRANCH  26  28
ATOM     28  C   UNL d   1      24.840 -17.706  -0.742  0.00  0.00     0.020 C 
ATOM     29  C   UNL d   1      23.875 -16.517  -0.696  0.00  0.00     0.007 C 
ENDBRANCH  26  28
ENDBRANCH  23  26
ENDBRANCH  20  22
ENDBRANCH   1  20
TORSDOF 9
ENDMDL
MODEL 8
REMARK VINA RESULT:    -3.956      2.904      6.001
REMARK INTER + INTRA:         -11.704
REMARK INTER:                  -6.641
REMARK INTRA:                  -5.063
REMARK CONF_INDEPENDENT:        2.685
REMARK UNBOUND:                -5.063
REMARK  9 active torsions:
REMARK  status: ('A' for Active; 'I' for Inactive)
REMARK    1  A    between atoms: C_2  and  C_3 
REMARK    2  A    between atoms: C_3  and  N_5 
REMARK       I    between atoms: N_5  and  C_6 
REMARK    3  A    between atoms: C_6  and  C_8 
REMARK    4  A    between atoms: C_8  and  N_10 
REMARK       I    between atoms: N_10  and  C_11 
REMARK       I    between atoms: C_11  and  N_13 
REMARK    5  A    between atoms: N_13  and  C_14 
REMARK    6  A    between atoms: C_14  and  C_15 
REMARK    7  A    between atoms: C_15  and  N_16 
REMARK    8  A    between atoms: N_16  and  C_17 
REMARK    9  A    between atoms: C_22  and  N_23 
ROOT
ATOM      1  N   UNL d   1      27.307 -14.620  -3.992  0.00  0.00    -0.330 N 
ATOM      2  C   UNL d   1      27.939 -15.101  -5.112  0.00  0.00     0.316 C 
ATOM      3  O   UNL d   1      27.392 -15.200  -6.198  0.00  0.00    -0.247 OA
ATOM      4  N   UNL d   1      29.268 -15.392  -4.937  0.00  0.00    -0.342 N 
ATOM      5  H   UNL d   1      27.757 -14.628  -3.085  0.00  0.00     0.165 HD
ATOM      6  H   UNL d   1      29.631 -15.497  -4.001  0.00  0.00     0.164 HD
ENDROOT
BRANCH   4   7
ATOM      7  C   UNL d   1      30.057 -15.885  -6.072  0.00  0.00     0.144 C 
BRANCH   7   8
ATOM      8  C   UNL d   1      30.767 -17.214  -5.782  0.00  0.00     0.139 C 
BRANCH   8   9
ATOM      9  N   UNL d   1      30.143 -17.957  -4.686  0.00  0.00    -0.386 N 
ATOM     10  H   UNL d   1      29.355 -18.564  -4.895  0.00  0.00     0.159 HD
BRANCH   9  11
ATOM     11  C   UNL d   1      30.709 -18.055  -3.420  0.00  0.00     0.061 A 
ATOM     12  C   UNL d   1      31.731 -19.018  -3.237  0.00  0.00     0.031 A 
ATOM     13  C   UNL d   1      32.375 -19.208  -2.004  0.00  0.00     0.002 A 
ATOM     14  C   UNL d   1      32.066 -18.387  -0.929  0.00  0.00     0.003 A 
ATOM     15  C   UNL d   1      31.076 -17.422  -1.072  0.00  0.00     0.038 A 
ATOM     16  C   UNL d   1      30.391 -17.260  -2.297  0.00  0.00     0.129 A 
BRANCH  16  17
ATOM     17  N   UNL d   1      29.271 -16.302  -2.272  0.00  0.00    -0.113 N 
ATOM     18  O   UNL d   1      28.177 -16.700  -2.699  0.00  0.00    -0.532 OA
ATOM     19  O   UNL d   1      29.465 -15.143  -1.876  0.00  0.00    -0.532 OA
ENDBRANCH  16  17
ENDBRANCH   9  11
ENDBRANCH   8   9
ENDBRANCH   7   8
ENDBRANCH   4   7
BRANCH   1  20
ATOM     20  C   UNL d   1      25.906 -14.138  -4.036  0.00  0.00     0.174 C 
ATOM     21  C   UNL d   1      25.862 -12.619  -3.889  0.00  0.00     0.042 C 
BRANCH  20  22
ATOM     22  C   UNL d   1      25.053 -14.776  -2.902  0.00  0.00     0.240 C 
ATOM     23  N   UNL d   1      25.692 -15.684  -2.057  0.00  0.00    -0.355 N 
ATOM     24  H   UNL d   1      26.660 -15.934  -2.223  0.00  0.00     0.162 HD
ATOM     25  O   UNL d   1      23.864 -14.475  -2.770  0.00  0.00    -0.271 OA
BRANCH  23  26
ATOM     26  C   UNL d   1      24.985 -16.343  -0.942  0.00  0.00     0.080 C 
ATOM     27  C   UNL d   1      25.979 -17.129  -0.081  0.00  0.00     0.032 C 
BRANCH  26  28
ATOM     28  C   UNL d   1      23.853 -17.285  -1.421  0.00  0.00     0.020 C 
ATOM     29  C   UNL d   1      23.343 -18.213  -0.314  0.00  0.00     0.007 C 
ENDBRANCH  26  28
ENDBRANCH  23  26
ENDBRANCH  20  22
ENDBRANCH   1  20
TORSDOF 9
ENDMDL
