MODEL 1
REMARK VINA RESULT:    -7.708      0.000      0.000
REMARK INTER + INTRA:         -10.394
REMARK INTER:                  -9.200
REMARK INTRA:                  -1.194
REMARK CONF_INDEPENDENT:        1.492
REMARK UNBOUND:                -1.194
REMARK  5 active torsions:
REMARK  status: ('A' for Active; 'I' for Inactive)
REMARK    1  A    between atoms: C_2  and  C_3 
REMARK       I    between atoms: C_2  and  N_16 
REMARK    2  A    between atoms: C_3  and  S_4 
REMARK    3  A    between atoms: S_4  and  C_5 
REMARK    4  A    between atoms: N_16  and  C_17 
REMARK    5  A    between atoms: C_23  and  N_24 
ROOT
ATOM      1  O   UNL d   1      30.823 -15.483  -1.408  0.00  0.00    -0.272 OA
ATOM      2  C   UNL d   1      29.806 -15.754  -0.765  0.00  0.00     0.231 C 
ATOM      3  N   UNL d   1      28.848 -16.533  -1.385  0.00  0.00    -0.324 N 
ATOM      4  H   UNL d   1      29.147 -16.957  -2.260  0.00  0.00     0.169 HD
ENDROOT
BRANCH   2   5
ATOM      5  C   UNL d   1      29.605 -15.356   0.715  0.00  0.00     0.185 C 
BRANCH   5   6
ATOM      6  S   UNL d   1      28.061 -14.462   0.989  0.00  0.00    -0.083 SA
BRANCH   6   7
ATOM      7  C   UNL d   1      28.051 -13.990   2.665  0.00  0.00     0.170 A 
ATOM      8  N   UNL d   1      28.139 -12.731   2.937  0.00  0.00    -0.224 NA
ATOM      9  C   UNL d   1      28.254 -12.343   4.280  0.00  0.00     0.075 A 
ATOM     10  C   UNL d   1      28.394 -10.985   4.581  0.00  0.00     0.032 A 
ATOM     11  C   UNL d   1      28.260 -13.264   5.329  0.00  0.00     0.061 A 
ATOM     12  C   UNL d   1      28.530 -10.558   5.905  0.00  0.00     0.002 A 
ATOM     13  C   UNL d   1      28.520 -11.488   6.945  0.00  0.00     0.001 A 
ATOM     14  C   UNL d   1      28.382 -12.848   6.660  0.00  0.00     0.019 A 
ATOM     15  C   UNL d   1      28.148 -14.690   4.967  0.00  0.00     0.260 A 
ATOM     16  O   UNL d   1      28.170 -15.575   5.809  0.00  0.00    -0.267 OA
ATOM     17  N   UNL d   1      28.035 -14.964   3.621  0.00  0.00    -0.302 N 
ATOM     18  H   UNL d   1      28.026 -15.940   3.379  0.00  0.00     0.171 HD
ENDBRANCH   6   7
ENDBRANCH   5   6
ENDBRANCH   2   5
BRANCH   3  19
ATOM     19  C   UNL d   1      27.623 -16.986  -0.856  0.00  0.00     0.063 A 
ATOM     20  C   UNL d   1      27.662 -17.897   0.213  0.00  0.00     0.032 A 
ATOM     21  C   UNL d   1      26.504 -18.421   0.760  0.00  0.00     0.004 A 
ATOM     22  C   UNL d   1      25.286 -17.995   0.269  0.00  0.00     0.026 A 
ATOM     23  C   UNL d   1      25.224 -17.026  -0.745  0.00  0.00     0.062 A 
ATOM     24 CL   UNL d   1      23.616 -16.663  -1.270  0.00  0.00    -0.082 Cl
ATOM     25  C   UNL d   1      26.390 -16.457  -1.326  0.00  0.00     0.079 A 
BRANCH  25  26
ATOM     26  N   UNL d   1      26.364 -15.436  -2.272  0.00  0.00    -0.374 N 
ATOM     27  C   UNL d   1      25.531 -14.235  -2.076  0.00  0.00     0.149 C 
ATOM     28  C   UNL d   1      24.487 -14.081  -3.198  0.00  0.00     0.187 C 
ATOM     29  O   UNL d   1      25.103 -14.121  -4.495  0.00  0.00    -0.388 OA
ATOM     30  C   UNL d   1      25.775 -15.381  -4.678  0.00  0.00     0.187 C 
ATOM     31  C   UNL d   1      26.900 -15.574  -3.639  0.00  0.00     0.149 C 
ENDBRANCH  25  26
ENDBRANCH   3  19
TORSDOF 5
ENDMDL
MODEL 2
REMARK VINA RESULT:    -7.589      3.172      7.201
REMARK INTER + INTRA:         -10.350
REMARK INTER:                  -9.081
REMARK INTRA:                  -1.269
REMARK CONF_INDEPENDENT:        1.492
REMARK UNBOUND:                -1.269
REMARK  5 active torsions:
REMARK  status: ('A' for Active; 'I' for Inactive)
REMARK    1  A    between atoms: C_2  and  C_3 
REMARK       I    between atoms: C_2  and  N_16 
REMARK    2  A    between atoms: C_3  and  S_4 
REMARK    3  A    between atoms: S_4  and  C_5 
REMARK    4  A    between atoms: N_16  and  C_17 
REMARK    5  A    between atoms: C_23  and  N_24 
ROOT
ATOM      1  O   UNL d   1      27.214 -13.069  -0.780  0.00  0.00    -0.272 OA
ATOM      2  C   UNL d   1      27.800 -13.303   0.280  0.00  0.00     0.231 C 
ATOM      3  N   UNL d   1      27.091 -13.131   1.453  0.00  0.00    -0.324 N 
ATOM      4  H   UNL d   1      26.092 -12.991   1.328  0.00  0.00     0.169 HD
ENDROOT
BRANCH   2   5
ATOM      5  C   UNL d   1      29.237 -13.871   0.349  0.00  0.00     0.185 C 
BRANCH   5   6
ATOM      6  S   UNL d   1      29.456 -15.331  -0.690  0.00  0.00    -0.083 SA
BRANCH   6   7
ATOM      7  C   UNL d   1      28.010 -16.286  -0.517  0.00  0.00     0.170 A 
ATOM      8  N   UNL d   1      26.911 -15.809  -0.999  0.00  0.00    -0.224 NA
ATOM      9  C   UNL d   1      25.718 -16.507  -0.762  0.00  0.00     0.075 A 
ATOM     10  C   UNL d   1      24.518 -15.975  -1.242  0.00  0.00     0.032 A 
ATOM     11  C   UNL d   1      25.679 -17.702  -0.042  0.00  0.00     0.061 A 
ATOM     12  C   UNL d   1      23.305 -16.630  -1.012  0.00  0.00     0.002 A 
ATOM     13  C   UNL d   1      23.281 -17.831  -0.303  0.00  0.00     0.001 A 
ATOM     14  C   UNL d   1      24.472 -18.374   0.184  0.00  0.00     0.019 A 
ATOM     15  C   UNL d   1      26.962 -18.210   0.481  0.00  0.00     0.260 A 
ATOM     16  O   UNL d   1      27.030 -19.234   1.145  0.00  0.00    -0.267 OA
ATOM     17  N   UNL d   1      28.075 -17.452   0.189  0.00  0.00    -0.302 N 
ATOM     18  H   UNL d   1      28.934 -17.771   0.604  0.00  0.00     0.171 HD
ENDBRANCH   6   7
ENDBRANCH   5   6
ENDBRANCH   2   5
BRANCH   3  19
ATOM     19  C   UNL d   1      27.533 -13.349   2.773  0.00  0.00     0.063 A 
ATOM     20  C   UNL d   1      27.780 -14.672   3.177  0.00  0.00     0.032 A 
ATOM     21  C   UNL d   1      28.175 -14.973   4.468  0.00  0.00     0.004 A 
ATOM     22  C   UNL d   1      28.375 -13.939   5.360  0.00  0.00     0.026 A 
ATOM     23  C   UNL d   1      28.210 -12.603   4.954  0.00  0.00     0.062 A 
ATOM     24 CL   UNL d   1      28.447 -11.452   6.223  0.00  0.00    -0.082 Cl
ATOM     25  C   UNL d   1      27.814 -12.253   3.634  0.00  0.00     0.079 A 
BRANCH  25  26
ATOM     26  N   UNL d   1      27.723 -10.942   3.177  0.00  0.00    -0.374 N 
ATOM     27  C   UNL d   1      28.653  -9.901   3.652  0.00  0.00     0.149 C 
ATOM     28  C   UNL d   1      27.906  -8.756   4.361  0.00  0.00     0.187 C 
ATOM     29  O   UNL d   1      26.858  -8.225   3.536  0.00  0.00    -0.388 OA
ATOM     30  C   UNL d   1      25.905  -9.260   3.230  0.00  0.00     0.187 C 
ATOM     31  C   UNL d   1      26.561 -10.412   2.440  0.00  0.00     0.149 C 
ENDBRANCH  25  26
ENDBRANCH   3  19
TORSDOF 5
ENDMDL
MODEL 3
REMARK VINA RESULT:    -7.565      5.720      8.372
REMARK INTER + INTRA:         -11.024
REMARK INTER:                  -9.056
REMARK INTRA:                  -1.968
REMARK CONF_INDEPENDENT:        1.492
REMARK UNBOUND:                -1.968
REMARK  5 active torsions:
REMARK  status: ('A' for Active; 'I' for Inactive)
REMARK    1  A    between atoms: C_2  and  C_3 
REMARK       I    between atoms: C_2  and  N_16 
REMARK    2  A    between atoms: C_3  and  S_4 
REMARK    3  A    between atoms: S_4  and  C_5 
REMARK    4  A    between atoms: N_16  and  C_17 
REMARK    5  A    between atoms: C_23  and  N_24 
ROOT
ATOM      1  O   UNL d   1      27.470 -15.057  -6.096  0.00  0.00    -0.272 OA
ATOM      2  C   UNL d   1      28.699 -15.051  -5.996  0.00  0.00     0.231 C 
ATOM      3  N   UNL d   1      29.433 -15.358  -7.126  0.00  0.00    -0.324 N 
ATOM      4  H   UNL d   1      28.891 -15.393  -7.986  0.00  0.00     0.169 HD
ENDROOT
BRANCH   2   5
ATOM      5  C   UNL d   1      29.445 -14.622  -4.712  0.00  0.00     0.185 C 
BRANCH   5   6
ATOM      6  S   UNL d   1      29.451 -15.912  -3.450  0.00  0.00    -0.083 SA
BRANCH   6   7
ATOM      7  C   UNL d   1      27.847 -15.950  -2.771  0.00  0.00     0.170 A 
ATOM      8  N   UNL d   1      27.629 -16.754  -1.784  0.00  0.00    -0.224 NA
ATOM      9  C   UNL d   1      26.317 -16.886  -1.306  0.00  0.00     0.075 A 
ATOM     10  C   UNL d   1      26.065 -17.787  -0.268  0.00  0.00     0.032 A 
ATOM     11  C   UNL d   1      25.248 -16.169  -1.844  0.00  0.00     0.061 A 
ATOM     12  C   UNL d   1      24.769 -17.961   0.226  0.00  0.00     0.002 A 
ATOM     13  C   UNL d   1      23.710 -17.228  -0.312  0.00  0.00     0.001 A 
ATOM     14  C   UNL d   1      23.947 -16.324  -1.350  0.00  0.00     0.019 A 
ATOM     15  C   UNL d   1      25.550 -15.256  -2.964  0.00  0.00     0.260 A 
ATOM     16  O   UNL d   1      24.679 -14.604  -3.520  0.00  0.00    -0.267 OA
ATOM     17  N   UNL d   1      26.870 -15.197  -3.355  0.00  0.00    -0.302 N 
ATOM     18  H   UNL d   1      27.056 -14.624  -4.160  0.00  0.00     0.171 HD
ENDBRANCH   6   7
ENDBRANCH   5   6
ENDBRANCH   2   5
BRANCH   3  19
ATOM     19  C   UNL d   1      30.834 -15.398  -7.266  0.00  0.00     0.063 A 
ATOM     20  C   UNL d   1      31.528 -14.178  -7.326  0.00  0.00     0.032 A 
ATOM     21  C   UNL d   1      32.899 -14.133  -7.504  0.00  0.00     0.004 A 
ATOM     22  C   UNL d   1      33.599 -15.321  -7.575  0.00  0.00     0.026 A 
ATOM     23  C   UNL d   1      32.935 -16.551  -7.437  0.00  0.00     0.062 A 
ATOM     24 CL   UNL d   1      33.967 -17.928  -7.612  0.00  0.00    -0.082 Cl
ATOM     25  C   UNL d   1      31.529 -16.639  -7.244  0.00  0.00     0.079 A 
BRANCH  25  26
ATOM     26  N   UNL d   1      30.852 -17.834  -7.021  0.00  0.00    -0.374 N 
ATOM     27  C   UNL d   1      30.405 -18.219  -5.669  0.00  0.00     0.149 C 
ATOM     28  C   UNL d   1      31.051 -19.540  -5.214  0.00  0.00     0.187 C 
ATOM     29  O   UNL d   1      30.845 -20.583  -6.181  0.00  0.00    -0.388 OA
ATOM     30  C   UNL d   1      31.435 -20.205  -7.439  0.00  0.00     0.187 C 
ATOM     31  C   UNL d   1      30.780 -18.929  -8.006  0.00  0.00     0.149 C 
ENDBRANCH  25  26
ENDBRANCH   3  19
TORSDOF 5
ENDMDL
MODEL 4
REMARK VINA RESULT:    -7.273      3.053      7.442
REMARK INTER + INTRA:         -10.453
REMARK INTER:                  -8.765
REMARK INTRA:                  -1.688
REMARK CONF_INDEPENDENT:        1.492
REMARK UNBOUND:                -1.688
REMARK  5 active torsions:
REMARK  status: ('A' for Active; 'I' for Inactive)
REMARK    1  A    between atoms: C_2  and  C_3 
REMARK       I    between atoms: C_2  and  N_16 
REMARK    2  A    between atoms: C_3  and  S_4 
REMARK    3  A    between atoms: S_4  and  C_5 
REMARK    4  A    between atoms: N_16  and  C_17 
REMARK    5  A    between atoms: C_23  and  N_24 
ROOT
ATOM      1  O   UNL d   1      27.464 -12.817  -1.214  0.00  0.00    -0.272 OA
ATOM      2  C   UNL d   1      27.965 -13.118  -0.128  0.00  0.00     0.231 C 
ATOM      3  N   UNL d   1      27.215 -12.884   1.008  0.00  0.00    -0.324 N 
ATOM      4  H   UNL d   1      26.243 -12.642   0.832  0.00  0.00     0.169 HD
ENDROOT
BRANCH   2   5
ATOM      5  C   UNL d   1      29.331 -13.829   0.009  0.00  0.00     0.185 C 
BRANCH   5   6
ATOM      6  S   UNL d   1      29.229 -15.599  -0.333  0.00  0.00    -0.083 SA
BRANCH   6   7
ATOM      7  C   UNL d   1      27.554 -15.945  -0.658  0.00  0.00     0.170 A 
ATOM      8  N   UNL d   1      26.965 -16.823   0.084  0.00  0.00    -0.224 NA
ATOM      9  C   UNL d   1      25.654 -17.202  -0.241  0.00  0.00     0.075 A 
ATOM     10  C   UNL d   1      25.025 -18.183   0.531  0.00  0.00     0.032 A 
ATOM     11  C   UNL d   1      24.961 -16.655  -1.322  0.00  0.00     0.061 A 
ATOM     12  C   UNL d   1      23.725 -18.602   0.230  0.00  0.00     0.002 A 
ATOM     13  C   UNL d   1      23.038 -18.037  -0.845  0.00  0.00     0.001 A 
ATOM     14  C   UNL d   1      23.655 -17.056  -1.626  0.00  0.00     0.019 A 
ATOM     15  C   UNL d   1      25.674 -15.649  -2.134  0.00  0.00     0.260 A 
ATOM     16  O   UNL d   1      25.164 -15.131  -3.115  0.00  0.00    -0.267 OA
ATOM     17  N   UNL d   1      26.956 -15.344  -1.728  0.00  0.00    -0.302 N 
ATOM     18  H   UNL d   1      27.457 -14.709  -2.325  0.00  0.00     0.171 HD
ENDBRANCH   6   7
ENDBRANCH   5   6
ENDBRANCH   2   5
BRANCH   3  19
ATOM     19  C   UNL d   1      27.561 -13.156   2.347  0.00  0.00     0.063 A 
ATOM     20  C   UNL d   1      27.809 -14.492   2.707  0.00  0.00     0.032 A 
ATOM     21  C   UNL d   1      28.112 -14.847   4.009  0.00  0.00     0.004 A 
ATOM     22  C   UNL d   1      28.218 -13.852   4.960  0.00  0.00     0.026 A 
ATOM     23  C   UNL d   1      28.052 -12.503   4.605  0.00  0.00     0.062 A 
ATOM     24 CL   UNL d   1      28.164 -11.409   5.941  0.00  0.00    -0.082 Cl
ATOM     25  C   UNL d   1      27.750 -12.098   3.277  0.00  0.00     0.079 A 
BRANCH  25  26
ATOM     26  N   UNL d   1      27.661 -10.768   2.875  0.00  0.00    -0.374 N 
ATOM     27  C   UNL d   1      28.449  -9.715   3.542  0.00  0.00     0.149 C 
ATOM     28  C   UNL d   1      27.541  -8.647   4.179  0.00  0.00     0.187 C 
ATOM     29  O   UNL d   1      26.608  -8.117   3.224  0.00  0.00    -0.388 OA
ATOM     30  C   UNL d   1      25.771  -9.175   2.720  0.00  0.00     0.187 C 
ATOM     31  C   UNL d   1      26.602 -10.250   1.989  0.00  0.00     0.149 C 
ENDBRANCH  25  26
ENDBRANCH   3  19
TORSDOF 5
ENDMDL
MODEL 5
REMARK VINA RESULT:    -7.273      5.031      7.305
REMARK INTER + INTRA:         -10.389
REMARK INTER:                  -8.764
REMARK INTRA:                  -1.625
REMARK CONF_INDEPENDENT:        1.492
REMARK UNBOUND:                -1.625
REMARK  5 active torsions:
REMARK  status: ('A' for Active; 'I' for Inactive)
REMARK    1  A    between atoms: C_2  and  C_3 
REMARK       I    between atoms: C_2  and  N_16 
REMARK    2  A    between atoms: C_3  and  S_4 
REMARK    3  A    between atoms: S_4  and  C_5 
REMARK    4  A    between atoms: N_16  and  C_17 
REMARK    5  A    between atoms: C_23  and  N_24 
ROOT
ATOM      1  O   UNL d   1      25.164 -15.251  -4.273  0.00  0.00    -0.272 OA
ATOM      2  C   UNL d   1      26.218 -14.673  -4.549  0.00  0.00     0.231 C 
ATOM      3  N   UNL d   1      26.963 -15.171  -5.600  0.00  0.00    -0.324 N 
ATOM      4  H   UNL d   1      26.486 -15.871  -6.163  0.00  0.00     0.169 HD
ENDROOT
BRANCH   2   5
ATOM      5  C   UNL d   1      26.683 -13.374  -3.850  0.00  0.00     0.185 C 
BRANCH   5   6
ATOM      6  S   UNL d   1      27.203 -13.652  -2.144  0.00  0.00    -0.083 SA
BRANCH   6   7
ATOM      7  C   UNL d   1      26.451 -15.137  -1.632  0.00  0.00     0.170 A 
ATOM      8  N   UNL d   1      25.161 -15.189  -1.626  0.00  0.00    -0.224 NA
ATOM      9  C   UNL d   1      24.539 -16.332  -1.102  0.00  0.00     0.075 A 
ATOM     10  C   UNL d   1      23.143 -16.377  -1.051  0.00  0.00     0.032 A 
ATOM     11  C   UNL d   1      25.262 -17.417  -0.605  0.00  0.00     0.061 A 
ATOM     12  C   UNL d   1      22.485 -17.490  -0.520  0.00  0.00     0.002 A 
ATOM     13  C   UNL d   1      23.219 -18.575  -0.040  0.00  0.00     0.001 A 
ATOM     14  C   UNL d   1      24.615 -18.543  -0.083  0.00  0.00     0.019 A 
ATOM     15  C   UNL d   1      26.734 -17.314  -0.643  0.00  0.00     0.260 A 
ATOM     16  O   UNL d   1      27.456 -18.199  -0.209  0.00  0.00    -0.267 OA
ATOM     17  N   UNL d   1      27.244 -16.152  -1.181  0.00  0.00    -0.302 N 
ATOM     18  H   UNL d   1      28.245 -16.062  -1.142  0.00  0.00     0.171 HD
ENDBRANCH   6   7
ENDBRANCH   5   6
ENDBRANCH   2   5
BRANCH   3  19
ATOM     19  C   UNL d   1      28.179 -14.678  -6.111  0.00  0.00     0.063 A 
ATOM     20  C   UNL d   1      28.155 -13.466  -6.822  0.00  0.00     0.032 A 
ATOM     21  C   UNL d   1      29.299 -12.936  -7.391  0.00  0.00     0.004 A 
ATOM     22  C   UNL d   1      30.498 -13.598  -7.210  0.00  0.00     0.026 A 
ATOM     23  C   UNL d   1      30.558 -14.769  -6.437  0.00  0.00     0.062 A 
ATOM     24 CL   UNL d   1      32.131 -15.486  -6.374  0.00  0.00    -0.082 Cl
ATOM     25  C   UNL d   1      29.406 -15.339  -5.828  0.00  0.00     0.079 A 
BRANCH  25  26
ATOM     26  N   UNL d   1      29.444 -16.449  -4.989  0.00  0.00    -0.374 N 
ATOM     27  C   UNL d   1      29.167 -16.325  -3.546  0.00  0.00     0.149 C 
ATOM     28  C   UNL d   1      30.375 -16.765  -2.699  0.00  0.00     0.187 C 
ATOM     29  O   UNL d   1      30.820 -18.081  -3.065  0.00  0.00    -0.388 OA
ATOM     30  C   UNL d   1      31.214 -18.095  -4.450  0.00  0.00     0.187 C 
ATOM     31  C   UNL d   1      30.030 -17.746  -5.375  0.00  0.00     0.149 C 
ENDBRANCH  25  26
ENDBRANCH   3  19
TORSDOF 5
ENDMDL
MODEL 6
REMARK VINA RESULT:    -6.988      5.790      8.179
REMARK INTER + INTRA:         -10.475
REMARK INTER:                  -8.479
REMARK INTRA:                  -1.996
REMARK CONF_INDEPENDENT:        1.492
REMARK UNBOUND:                -1.996
REMARK  5 active torsions:
REMARK  status: ('A' for Active; 'I' for Inactive)
REMARK    1  A    between atoms: C_2  and  C_3 
REMARK       I    between atoms: C_2  and  N_16 
REMARK    2  A    between atoms: C_3  and  S_4 
REMARK    3  A    between atoms: S_4  and  C_5 
REMARK    4  A    between atoms: N_16  and  C_17 
REMARK    5  A    between atoms: C_23  and  N_24 
ROOT
ATOM      1  O   UNL d   1      27.294 -15.209  -6.060  0.00  0.00    -0.272 OA
ATOM      2  C   UNL d   1      28.495 -14.945  -5.964  0.00  0.00     0.231 C 
ATOM      3  N   UNL d   1      29.249 -14.974  -7.122  0.00  0.00    -0.324 N 
ATOM      4  H   UNL d   1      28.706 -15.043  -7.979  0.00  0.00     0.169 HD
ENDROOT
BRANCH   2   5
ATOM      5  C   UNL d   1      29.163 -14.490  -4.646  0.00  0.00     0.185 C 
BRANCH   5   6
ATOM      6  S   UNL d   1      29.203 -15.796  -3.402  0.00  0.00    -0.083 SA
BRANCH   6   7
ATOM      7  C   UNL d   1      27.604 -15.878  -2.715  0.00  0.00     0.170 A 
ATOM      8  N   UNL d   1      27.404 -16.713  -1.751  0.00  0.00    -0.224 NA
ATOM      9  C   UNL d   1      26.097 -16.878  -1.270  0.00  0.00     0.075 A 
ATOM     10  C   UNL d   1      25.865 -17.812  -0.257  0.00  0.00     0.032 A 
ATOM     11  C   UNL d   1      25.014 -16.163  -1.781  0.00  0.00     0.061 A 
ATOM     12  C   UNL d   1      24.574 -18.020   0.239  0.00  0.00     0.002 A 
ATOM     13  C   UNL d   1      23.502 -17.288  -0.271  0.00  0.00     0.001 A 
ATOM     14  C   UNL d   1      23.719 -16.352  -1.285  0.00  0.00     0.019 A 
ATOM     15  C   UNL d   1      25.296 -15.213  -2.876  0.00  0.00     0.260 A 
ATOM     16  O   UNL d   1      24.412 -14.559  -3.408  0.00  0.00    -0.267 OA
ATOM     17  N   UNL d   1      26.613 -15.123  -3.272  0.00  0.00    -0.302 N 
ATOM     18  H   UNL d   1      26.785 -14.524  -4.061  0.00  0.00     0.171 HD
ENDBRANCH   6   7
ENDBRANCH   5   6
ENDBRANCH   2   5
BRANCH   3  19
ATOM     19  C   UNL d   1      30.622 -14.695  -7.270  0.00  0.00     0.063 A 
ATOM     20  C   UNL d   1      31.535 -15.744  -7.070  0.00  0.00     0.032 A 
ATOM     21  C   UNL d   1      32.901 -15.542  -7.156  0.00  0.00     0.004 A 
ATOM     22  C   UNL d   1      33.366 -14.287  -7.493  0.00  0.00     0.026 A 
ATOM     23  C   UNL d   1      32.468 -13.243  -7.774  0.00  0.00     0.062 A 
ATOM     24 CL   UNL d   1      33.236 -11.732  -8.119  0.00  0.00    -0.082 Cl
ATOM     25  C   UNL d   1      31.058 -13.414  -7.706  0.00  0.00     0.079 A 
BRANCH  25  26
ATOM     26  N   UNL d   1      30.142 -12.428  -8.058  0.00  0.00    -0.374 N 
ATOM     27  C   UNL d   1      29.344 -11.726  -7.035  0.00  0.00     0.149 C 
ATOM     28  C   UNL d   1      27.835 -11.942  -7.249  0.00  0.00     0.187 C 
ATOM     29  O   UNL d   1      27.441 -11.599  -8.587  0.00  0.00    -0.388 OA
ATOM     30  C   UNL d   1      28.149 -12.424  -9.531  0.00  0.00     0.187 C 
ATOM     31  C   UNL d   1      29.674 -12.201  -9.438  0.00  0.00     0.149 C 
ENDBRANCH  25  26
ENDBRANCH   3  19
TORSDOF 5
ENDMDL
MODEL 7
REMARK VINA RESULT:    -6.958      4.490      6.236
REMARK INTER + INTRA:         -10.461
REMARK INTER:                  -8.449
REMARK INTRA:                  -2.012
REMARK CONF_INDEPENDENT:        1.492
REMARK UNBOUND:                -2.012
REMARK  5 active torsions:
REMARK  status: ('A' for Active; 'I' for Inactive)
REMARK    1  A    between atoms: C_2  and  C_3 
REMARK       I    between atoms: C_2  and  N_16 
REMARK    2  A    between atoms: C_3  and  S_4 
REMARK    3  A    between atoms: S_4  and  C_5 
REMARK    4  A    between atoms: N_16  and  C_17 
REMARK    5  A    between atoms: C_23  and  N_24 
ROOT
ATOM      1  O   UNL d   1      29.557 -17.517  -2.619  0.00  0.00    -0.272 OA
ATOM      2  C   UNL d   1      29.603 -16.416  -3.171  0.00  0.00     0.231 C 
ATOM      3  N   UNL d   1      29.303 -16.364  -4.519  0.00  0.00    -0.324 N 
ATOM      4  H   UNL d   1      28.902 -17.218  -4.897  0.00  0.00     0.169 HD
ENDROOT
BRANCH   2   5
ATOM      5  C   UNL d   1      29.875 -15.096  -2.413  0.00  0.00     0.185 C 
BRANCH   5   6
ATOM      6  S   UNL d   1      29.430 -15.195  -0.667  0.00  0.00    -0.083 SA
BRANCH   6   7
ATOM      7  C   UNL d   1      28.016 -16.206  -0.571  0.00  0.00     0.170 A 
ATOM      8  N   UNL d   1      26.903 -15.730  -1.019  0.00  0.00    -0.224 NA
ATOM      9  C   UNL d   1      25.732 -16.482  -0.839  0.00  0.00     0.075 A 
ATOM     10  C   UNL d   1      24.517 -15.954  -1.282  0.00  0.00     0.032 A 
ATOM     11  C   UNL d   1      25.732 -17.729  -0.212  0.00  0.00     0.061 A 
ATOM     12  C   UNL d   1      23.325 -16.664  -1.106  0.00  0.00     0.002 A 
ATOM     13  C   UNL d   1      23.339 -17.915  -0.490  0.00  0.00     0.001 A 
ATOM     14  C   UNL d   1      24.547 -18.455  -0.041  0.00  0.00     0.019 A 
ATOM     15  C   UNL d   1      27.030 -18.234   0.275  0.00  0.00     0.260 A 
ATOM     16  O   UNL d   1      27.130 -19.302   0.860  0.00  0.00    -0.267 OA
ATOM     17  N   UNL d   1      28.119 -17.420   0.045  0.00  0.00    -0.302 N 
ATOM     18  H   UNL d   1      28.987 -17.742   0.437  0.00  0.00     0.171 HD
ENDBRANCH   6   7
ENDBRANCH   5   6
ENDBRANCH   2   5
BRANCH   3  19
ATOM     19  C   UNL d   1      29.269 -15.232  -5.357  0.00  0.00     0.063 A 
ATOM     20  C   UNL d   1      30.192 -15.164  -6.415  0.00  0.00     0.032 A 
ATOM     21  C   UNL d   1      30.251 -14.068  -7.256  0.00  0.00     0.004 A 
ATOM     22  C   UNL d   1      29.346 -13.042  -7.074  0.00  0.00     0.026 A 
ATOM     23  C   UNL d   1      28.363 -13.125  -6.072  0.00  0.00     0.062 A 
ATOM     24 CL   UNL d   1      27.359 -11.721  -5.959  0.00  0.00    -0.082 Cl
ATOM     25  C   UNL d   1      28.264 -14.239  -5.195  0.00  0.00     0.079 A 
BRANCH  25  26
ATOM     26  N   UNL d   1      27.254 -14.391  -4.249  0.00  0.00    -0.374 N 
ATOM     27  C   UNL d   1      25.973 -15.034  -4.597  0.00  0.00     0.149 C 
ATOM     28  C   UNL d   1      24.786 -14.075  -4.394  0.00  0.00     0.187 C 
ATOM     29  O   UNL d   1      24.783 -13.518  -3.070  0.00  0.00    -0.388 OA
ATOM     30  C   UNL d   1      25.999 -12.779  -2.849  0.00  0.00     0.187 C 
ATOM     31  C   UNL d   1      27.238 -13.693  -2.951  0.00  0.00     0.149 C 
ENDBRANCH  25  26
ENDBRANCH   3  19
TORSDOF 5
ENDMDL
MODEL 8
REMARK VINA RESULT:    -6.681      4.503      6.474
REMARK INTER + INTRA:         -10.493
REMARK INTER:                  -8.173
REMARK INTRA:                  -2.320
REMARK CONF_INDEPENDENT:        1.492
REMARK UNBOUND:                -2.320
REMARK  5 active torsions:
REMARK  status: ('A' for Active; 'I' for Inactive)
REMARK    1  A    between atoms: C_2  and  C_3 
REMARK       I    between atoms: C_2  and  N_16 
REMARK    2  A    between atoms: C_3  and  S_4 
REMARK    3  A    between atoms: S_4  and  C_5 
REMARK    4  A    between atoms: N_16  and  C_17 
REMARK    5  A    between atoms: C_23  and  N_24 
ROOT
ATOM      1  O   UNL d   1      29.779 -17.249  -0.993  0.00  0.00    -0.272 OA
ATOM      2  C   UNL d   1      29.337 -16.280  -1.613  0.00  0.00     0.231 C 
ATOM      3  N   UNL d   1      28.692 -16.527  -2.810  0.00  0.00    -0.324 N 
ATOM      4  H   UNL d   1      28.490 -17.508  -2.987  0.00  0.00     0.169 HD
ENDROOT
BRANCH   2   5
ATOM      5  C   UNL d   1      29.378 -14.833  -1.070  0.00  0.00     0.185 C 
BRANCH   5   6
ATOM      6  S   UNL d   1      27.952 -14.440  -0.035  0.00  0.00    -0.083 SA
BRANCH   6   7
ATOM      7  C   UNL d   1      26.859 -15.789  -0.163  0.00  0.00     0.170 A 
ATOM      8  N   UNL d   1      25.642 -15.547  -0.522  0.00  0.00    -0.224 NA
ATOM      9  C   UNL d   1      24.719 -16.603  -0.513  0.00  0.00     0.075 A 
ATOM     10  C   UNL d   1      23.390 -16.341  -0.857  0.00  0.00     0.032 A 
ATOM     11  C   UNL d   1      25.071 -17.903  -0.148  0.00  0.00     0.061 A 
ATOM     12  C   UNL d   1      22.435 -17.362  -0.843  0.00  0.00     0.002 A 
ATOM     13  C   UNL d   1      22.803 -18.660  -0.490  0.00  0.00     0.001 A 
ATOM     14  C   UNL d   1      24.128 -18.937  -0.142  0.00  0.00     0.019 A 
ATOM     15  C   UNL d   1      26.476 -18.131   0.245  0.00  0.00     0.260 A 
ATOM     16  O   UNL d   1      26.877 -19.227   0.606  0.00  0.00    -0.267 OA
ATOM     17  N   UNL d   1      27.302 -17.028   0.198  0.00  0.00    -0.302 N 
ATOM     18  H   UNL d   1      28.239 -17.178   0.530  0.00  0.00     0.171 HD
ENDBRANCH   6   7
ENDBRANCH   5   6
ENDBRANCH   2   5
BRANCH   3  19
ATOM     19  C   UNL d   1      28.092 -15.596  -3.681  0.00  0.00     0.063 A 
ATOM     20  C   UNL d   1      26.884 -15.000  -3.281  0.00  0.00     0.032 A 
ATOM     21  C   UNL d   1      26.212 -14.109  -4.097  0.00  0.00     0.004 A 
ATOM     22  C   UNL d   1      26.773 -13.766  -5.311  0.00  0.00     0.026 A 
ATOM     23  C   UNL d   1      28.019 -14.290  -5.695  0.00  0.00     0.062 A 
ATOM     24 CL   UNL d   1      28.531 -13.793  -7.271  0.00  0.00    -0.082 Cl
ATOM     25  C   UNL d   1      28.745 -15.201  -4.880  0.00  0.00     0.079 A 
BRANCH  25  26
ATOM     26  N   UNL d   1      30.017 -15.673  -5.192  0.00  0.00    -0.374 N 
ATOM     27  C   UNL d   1      30.242 -16.550  -6.356  0.00  0.00     0.149 C 
ATOM     28  C   UNL d   1      30.818 -17.913  -5.934  0.00  0.00     0.187 C 
ATOM     29  O   UNL d   1      31.995 -17.756  -5.126  0.00  0.00    -0.388 OA
ATOM     30  C   UNL d   1      31.673 -17.017  -3.933  0.00  0.00     0.187 C 
ATOM     31  C   UNL d   1      31.165 -15.599  -4.270  0.00  0.00     0.149 C 
ENDBRANCH  25  26
ENDBRANCH   3  19
TORSDOF 5
ENDMDL
MODEL 9
REMARK VINA RESULT:    -6.083      3.171      7.096
REMARK INTER + INTRA:         -10.651
REMARK INTER:                  -7.574
REMARK INTRA:                  -3.077
REMARK CONF_INDEPENDENT:        1.492
REMARK UNBOUND:                -3.077
REMARK  5 active torsions:
REMARK  status: ('A' for Active; 'I' for Inactive)
REMARK    1  A    between atoms: C_2  and  C_3 
REMARK       I    between atoms: C_2  and  N_16 
REMARK    2  A    between atoms: C_3  and  S_4 
REMARK    3  A    between atoms: S_4  and  C_5 
REMARK    4  A    between atoms: N_16  and  C_17 
REMARK    5  A    between atoms: C_23  and  N_24 
ROOT
ATOM      1  O   UNL d   1      26.666 -17.875   1.355  0.00  0.00    -0.272 OA
ATOM      2  C   UNL d   1      26.889 -17.332   0.271  0.00  0.00     0.231 C 
ATOM      3  N   UNL d   1      28.080 -16.645   0.133  0.00  0.00    -0.324 N 
ATOM      4  H   UNL d   1      28.745 -16.795   0.887  0.00  0.00     0.169 HD
ENDROOT
BRANCH   2   5
ATOM      5  C   UNL d   1      25.958 -17.470  -0.957  0.00  0.00     0.185 C 
BRANCH   5   6
ATOM      6  S   UNL d   1      24.848 -16.059  -1.147  0.00  0.00    -0.083 SA
BRANCH   6   7
ATOM      7  C   UNL d   1      25.511 -15.074  -2.422  0.00  0.00     0.170 A 
ATOM      8  N   UNL d   1      25.530 -13.795  -2.248  0.00  0.00    -0.224 NA
ATOM      9  C   UNL d   1      25.948 -12.981  -3.311  0.00  0.00     0.075 A 
ATOM     10  C   UNL d   1      25.929 -11.593  -3.145  0.00  0.00     0.032 A 
ATOM     11  C   UNL d   1      26.358 -13.503  -4.538  0.00  0.00     0.061 A 
ATOM     12  C   UNL d   1      26.320 -10.746  -4.186  0.00  0.00     0.002 A 
ATOM     13  C   UNL d   1      26.742 -11.281  -5.404  0.00  0.00     0.001 A 
ATOM     14  C   UNL d   1      26.765 -12.666  -5.584  0.00  0.00     0.019 A 
ATOM     15  C   UNL d   1      26.327 -14.971  -4.685  0.00  0.00     0.260 A 
ATOM     16  O   UNL d   1      26.642 -15.524  -5.728  0.00  0.00    -0.267 OA
ATOM     17  N   UNL d   1      25.906 -15.680  -3.580  0.00  0.00    -0.302 N 
ATOM     18  H   UNL d   1      25.825 -16.673  -3.710  0.00  0.00     0.171 HD
ENDBRANCH   6   7
ENDBRANCH   5   6
ENDBRANCH   2   5
BRANCH   3  19
ATOM     19  C   UNL d   1      28.563 -15.965  -1.002  0.00  0.00     0.063 A 
ATOM     20  C   UNL d   1      28.742 -16.699  -2.186  0.00  0.00     0.032 A 
ATOM     21  C   UNL d   1      29.252 -16.115  -3.331  0.00  0.00     0.004 A 
ATOM     22  C   UNL d   1      29.543 -14.765  -3.315  0.00  0.00     0.026 A 
ATOM     23  C   UNL d   1      29.297 -13.995  -2.165  0.00  0.00     0.062 A 
ATOM     24 CL   UNL d   1      29.779 -12.341  -2.314  0.00  0.00    -0.082 Cl
ATOM     25  C   UNL d   1      28.765 -14.558  -0.973  0.00  0.00     0.079 A 
BRANCH  25  26
ATOM     26  N   UNL d   1      28.432 -13.810   0.153  0.00  0.00    -0.374 N 
ATOM     27  C   UNL d   1      29.014 -14.116   1.473  0.00  0.00     0.149 C 
ATOM     28  C   UNL d   1      27.927 -14.481   2.500  0.00  0.00     0.187 C 
ATOM     29  O   UNL d   1      26.909 -13.470   2.566  0.00  0.00    -0.388 OA
ATOM     30  C   UNL d   1      26.280 -13.325   1.279  0.00  0.00     0.187 C 
ATOM     31  C   UNL d   1      27.293 -12.875   0.206  0.00  0.00     0.149 C 
ENDBRANCH  25  26
ENDBRANCH   3  19
TORSDOF 5
ENDMDL
