MODEL 1
REMARK VINA RESULT:    -8.365      0.000      0.000
REMARK INTER + INTRA:         -11.865
REMARK INTER:                  -9.857
REMARK INTRA:                  -2.008
REMARK CONF_INDEPENDENT:        1.492
REMARK UNBOUND:                -2.008
REMARK  5 active torsions:
REMARK  status: ('A' for Active; 'I' for Inactive)
REMARK    1  A    between atoms: C_5  and  N_6 
REMARK       I    between atoms: N_6  and  C_7 
REMARK    2  A    between atoms: C_7  and  C_9 
REMARK    3  A    between atoms: C_9  and  N_10 
REMARK       I    between atoms: N_10  and  C_11 
REMARK    4  A    between atoms: C_11  and  C_13 
REMARK    5  A    between atoms: C_19  and  N_20 
ROOT
ATOM      1  N   UNL d   1      26.684 -12.937  -1.194  0.00  0.00    -0.347 N 
ATOM      2  C   UNL d   1      27.299 -13.431  -0.070  0.00  0.00     0.268 C 
ATOM      3  O   UNL d   1      27.800 -14.559  -0.080  0.00  0.00    -0.266 OA
ATOM      4  H   UNL d   1      26.421 -11.957  -1.252  0.00  0.00     0.163 HD
ENDROOT
BRANCH   1   5
ATOM      5  C   UNL d   1      26.638 -13.695  -2.463  0.00  0.00     0.226 C 
BRANCH   5   6
ATOM      6  C   UNL d   1      25.523 -14.743  -2.359  0.00  0.00     0.239 C 
ATOM      7  N   UNL d   1      25.445 -15.493  -1.184  0.00  0.00    -0.324 N 
ATOM      8  H   UNL d   1      26.117 -15.333  -0.437  0.00  0.00     0.169 HD
ATOM      9  O   UNL d   1      24.769 -14.859  -3.331  0.00  0.00    -0.271 OA
BRANCH   7  10
ATOM     10  C   UNL d   1      24.458 -16.504  -0.919  0.00  0.00     0.056 A 
ATOM     11  C   UNL d   1      23.100 -16.274  -1.158  0.00  0.00     0.032 A 
ATOM     12  C   UNL d   1      22.118 -17.228  -0.895  0.00  0.00     0.009 A 
ATOM     13  C   UNL d   1      22.459 -18.467  -0.372  0.00  0.00    -0.060 A 
ATOM     14  C   UNL d   1      21.384 -19.459  -0.046  0.00  0.00     0.048 C 
ATOM     15  C   UNL d   1      23.811 -18.743  -0.137  0.00  0.00     0.033 A 
ATOM     16  C   UNL d   1      24.802 -17.771  -0.404  0.00  0.00     0.061 A 
ATOM     17 CL   UNL d   1      26.446 -18.192  -0.060  0.00  0.00    -0.082 Cl
ENDBRANCH   7  10
ENDBRANCH   5   6
ENDBRANCH   1   5
BRANCH   2  18
ATOM     18  C   UNL d   1      27.397 -12.553   1.088  0.00  0.00     0.102 A 
ATOM     19  C   UNL d   1      28.004 -12.868   2.296  0.00  0.00     0.049 A 
ATOM     20  C   UNL d   1      27.888 -11.771   3.186  0.00  0.00    -0.005 A 
ATOM     21  C   UNL d   1      28.352 -11.532   4.497  0.00  0.00     0.014 A 
ATOM     22  C   UNL d   1      27.150 -10.788   2.527  0.00  0.00     0.076 A 
ATOM     23  C   UNL d   1      28.100 -10.303   5.113  0.00  0.00     0.003 A 
ATOM     24  C   UNL d   1      27.359  -9.325   4.453  0.00  0.00     0.038 A 
ATOM     25  C   UNL d   1      26.850  -9.553   3.155  0.00  0.00     0.130 A 
ATOM     26  N   UNL d   1      26.845 -11.296   1.266  0.00  0.00    -0.349 N 
ATOM     27  H   UNL d   1      26.263 -10.809   0.594  0.00  0.00     0.166 HD
BRANCH  25  28
ATOM     28  N   UNL d   1      26.054  -8.495   2.521  0.00  0.00    -0.113 N 
ATOM     29  O   UNL d   1      25.204  -8.850   1.691  0.00  0.00    -0.532 OA
ATOM     30  O   UNL d   1      26.275  -7.319   2.848  0.00  0.00    -0.532 OA
ENDBRANCH  25  28
ENDBRANCH   2  18
TORSDOF 5
ENDMDL
MODEL 2
REMARK VINA RESULT:    -8.131      7.529      9.109
REMARK INTER + INTRA:         -10.975
REMARK INTER:                  -9.623
REMARK INTRA:                  -1.352
REMARK CONF_INDEPENDENT:        1.492
REMARK UNBOUND:                -1.352
REMARK  5 active torsions:
REMARK  status: ('A' for Active; 'I' for Inactive)
REMARK    1  A    between atoms: C_5  and  N_6 
REMARK       I    between atoms: N_6  and  C_7 
REMARK    2  A    between atoms: C_7  and  C_9 
REMARK    3  A    between atoms: C_9  and  N_10 
REMARK       I    between atoms: N_10  and  C_11 
REMARK    4  A    between atoms: C_11  and  C_13 
REMARK    5  A    between atoms: C_19  and  N_20 
ROOT
ATOM      1  N   UNL d   1      31.899 -18.019   1.076  0.00  0.00    -0.347 N 
ATOM      2  C   UNL d   1      32.689 -19.140   1.127  0.00  0.00     0.268 C 
ATOM      3  O   UNL d   1      33.187 -19.599   0.095  0.00  0.00    -0.266 OA
ATOM      4  H   UNL d   1      31.625 -17.538   1.929  0.00  0.00     0.163 HD
ENDROOT
BRANCH   1   5
ATOM      5  C   UNL d   1      31.652 -17.287  -0.186  0.00  0.00     0.226 C 
BRANCH   5   6
ATOM      6  C   UNL d   1      30.189 -17.506  -0.592  0.00  0.00     0.239 C 
ATOM      7  N   UNL d   1      29.201 -16.933   0.210  0.00  0.00    -0.324 N 
ATOM      8  H   UNL d   1      29.465 -16.394   1.031  0.00  0.00     0.169 HD
ATOM      9  O   UNL d   1      29.984 -18.185  -1.603  0.00  0.00    -0.271 OA
BRANCH   7  10
ATOM     10  C   UNL d   1      27.787 -17.032  -0.034  0.00  0.00     0.056 A 
ATOM     11  C   UNL d   1      27.036 -18.099   0.468  0.00  0.00     0.032 A 
ATOM     12  C   UNL d   1      25.668 -18.233   0.235  0.00  0.00     0.009 A 
ATOM     13  C   UNL d   1      24.987 -17.293  -0.526  0.00  0.00    -0.060 A 
ATOM     14  C   UNL d   1      23.528 -17.482  -0.812  0.00  0.00     0.048 C 
ATOM     15  C   UNL d   1      25.701 -16.199  -1.031  0.00  0.00     0.033 A 
ATOM     16  C   UNL d   1      27.087 -16.070  -0.792  0.00  0.00     0.061 A 
ATOM     17 CL   UNL d   1      27.891 -14.698  -1.476  0.00  0.00    -0.082 Cl
ENDBRANCH   7  10
ENDBRANCH   5   6
ENDBRANCH   1   5
BRANCH   2  18
ATOM     18  C   UNL d   1      32.968 -19.711   2.438  0.00  0.00     0.102 A 
ATOM     19  C   UNL d   1      34.228 -19.997   2.947  0.00  0.00     0.049 A 
ATOM     20  C   UNL d   1      34.100 -20.557   4.243  0.00  0.00    -0.005 A 
ATOM     21  C   UNL d   1      35.033 -20.978   5.214  0.00  0.00     0.014 A 
ATOM     22  C   UNL d   1      32.735 -20.663   4.509  0.00  0.00     0.076 A 
ATOM     23  C   UNL d   1      34.587 -21.466   6.445  0.00  0.00     0.003 A 
ATOM     24  C   UNL d   1      33.223 -21.575   6.705  0.00  0.00     0.038 A 
ATOM     25  C   UNL d   1      32.267 -21.196   5.736  0.00  0.00     0.130 A 
ATOM     26  N   UNL d   1      32.071 -20.165   3.390  0.00  0.00    -0.349 N 
ATOM     27  H   UNL d   1      31.062 -20.176   3.288  0.00  0.00     0.166 HD
BRANCH  25  28
ATOM     28  N   UNL d   1      30.844 -21.358   6.058  0.00  0.00    -0.113 N 
ATOM     29  O   UNL d   1      30.039 -21.262   5.119  0.00  0.00    -0.532 OA
ATOM     30  O   UNL d   1      30.531 -21.579   7.237  0.00  0.00    -0.532 OA
ENDBRANCH  25  28
ENDBRANCH   2  18
TORSDOF 5
ENDMDL
MODEL 3
REMARK VINA RESULT:    -7.910      0.998      1.117
REMARK INTER + INTRA:         -11.528
REMARK INTER:                  -9.401
REMARK INTRA:                  -2.127
REMARK CONF_INDEPENDENT:        1.492
REMARK UNBOUND:                -2.127
REMARK  5 active torsions:
REMARK  status: ('A' for Active; 'I' for Inactive)
REMARK    1  A    between atoms: C_5  and  N_6 
REMARK       I    between atoms: N_6  and  C_7 
REMARK    2  A    between atoms: C_7  and  C_9 
REMARK    3  A    between atoms: C_9  and  N_10 
REMARK       I    between atoms: N_10  and  C_11 
REMARK    4  A    between atoms: C_11  and  C_13 
REMARK    5  A    between atoms: C_19  and  N_20 
ROOT
ATOM      1  N   UNL d   1      26.809 -13.464  -0.666  0.00  0.00    -0.347 N 
ATOM      2  C   UNL d   1      27.425 -14.149   0.351  0.00  0.00     0.268 C 
ATOM      3  O   UNL d   1      27.894 -15.273   0.150  0.00  0.00    -0.266 OA
ATOM      4  H   UNL d   1      26.572 -12.481  -0.559  0.00  0.00     0.163 HD
ENDROOT
BRANCH   1   5
ATOM      5  C   UNL d   1      26.725 -14.003  -2.041  0.00  0.00     0.226 C 
BRANCH   5   6
ATOM      6  C   UNL d   1      25.615 -15.062  -2.076  0.00  0.00     0.239 C 
ATOM      7  N   UNL d   1      25.268 -15.679  -0.873  0.00  0.00    -0.324 N 
ATOM      8  H   UNL d   1      25.750 -15.421  -0.016  0.00  0.00     0.169 HD
ATOM      9  O   UNL d   1      25.104 -15.303  -3.176  0.00  0.00    -0.271 OA
BRANCH   7  10
ATOM     10  C   UNL d   1      24.245 -16.680  -0.729  0.00  0.00     0.056 A 
ATOM     11  C   UNL d   1      22.906 -16.396  -1.012  0.00  0.00     0.032 A 
ATOM     12  C   UNL d   1      21.890 -17.339  -0.865  0.00  0.00     0.009 A 
ATOM     13  C   UNL d   1      22.176 -18.621  -0.419  0.00  0.00    -0.060 A 
ATOM     14  C   UNL d   1      21.064 -19.605  -0.217  0.00  0.00     0.048 C 
ATOM     15  C   UNL d   1      23.509 -18.950  -0.144  0.00  0.00     0.033 A 
ATOM     16  C   UNL d   1      24.535 -17.990  -0.293  0.00  0.00     0.061 A 
ATOM     17 CL   UNL d   1      26.149 -18.479   0.093  0.00  0.00    -0.082 Cl
ENDBRANCH   7  10
ENDBRANCH   5   6
ENDBRANCH   1   5
BRANCH   2  18
ATOM     18  C   UNL d   1      27.562 -13.475   1.635  0.00  0.00     0.102 A 
ATOM     19  C   UNL d   1      27.954 -14.069   2.827  0.00  0.00     0.049 A 
ATOM     20  C   UNL d   1      27.956 -13.101   3.862  0.00  0.00    -0.005 A 
ATOM     21  C   UNL d   1      28.307 -13.142   5.228  0.00  0.00     0.014 A 
ATOM     22  C   UNL d   1      27.507 -11.905   3.302  0.00  0.00     0.076 A 
ATOM     23  C   UNL d   1      28.235 -11.981   6.002  0.00  0.00     0.003 A 
ATOM     24  C   UNL d   1      27.782 -10.790   5.442  0.00  0.00     0.038 A 
ATOM     25  C   UNL d   1      27.389 -10.729   4.086  0.00  0.00     0.130 A 
ATOM     26  N   UNL d   1      27.253 -12.164   1.958  0.00  0.00    -0.349 N 
ATOM     27  H   UNL d   1      26.859 -11.480   1.322  0.00  0.00     0.166 HD
BRANCH  25  28
ATOM     28  N   UNL d   1      26.895  -9.451   3.558  0.00  0.00    -0.113 N 
ATOM     29  O   UNL d   1      26.367  -9.471   2.436  0.00  0.00    -0.532 OA
ATOM     30  O   UNL d   1      27.032  -8.436   4.256  0.00  0.00    -0.532 OA
ENDBRANCH  25  28
ENDBRANCH   2  18
TORSDOF 5
ENDMDL
MODEL 4
REMARK VINA RESULT:    -7.537      1.918      2.483
REMARK INTER + INTRA:         -11.118
REMARK INTER:                  -9.028
REMARK INTRA:                  -2.090
REMARK CONF_INDEPENDENT:        1.492
REMARK UNBOUND:                -2.090
REMARK  5 active torsions:
REMARK  status: ('A' for Active; 'I' for Inactive)
REMARK    1  A    between atoms: C_5  and  N_6 
REMARK       I    between atoms: N_6  and  C_7 
REMARK    2  A    between atoms: C_7  and  C_9 
REMARK    3  A    between atoms: C_9  and  N_10 
REMARK       I    between atoms: N_10  and  C_11 
REMARK    4  A    between atoms: C_11  and  C_13 
REMARK    5  A    between atoms: C_19  and  N_20 
ROOT
ATOM      1  N   UNL d   1      28.962 -15.666   0.841  0.00  0.00    -0.347 N 
ATOM      2  C   UNL d   1      28.188 -14.538   0.728  0.00  0.00     0.268 C 
ATOM      3  O   UNL d   1      27.509 -14.348  -0.285  0.00  0.00    -0.266 OA
ATOM      4  H   UNL d   1      29.389 -15.915   1.730  0.00  0.00     0.163 HD
ENDROOT
BRANCH   1   5
ATOM      5  C   UNL d   1      28.981 -16.716  -0.201  0.00  0.00     0.226 C 
BRANCH   5   6
ATOM      6  C   UNL d   1      27.630 -17.441  -0.179  0.00  0.00     0.239 C 
ATOM      7  N   UNL d   1      26.485 -16.689  -0.448  0.00  0.00    -0.324 N 
ATOM      8  H   UNL d   1      26.569 -15.695  -0.648  0.00  0.00     0.169 HD
ATOM      9  O   UNL d   1      27.645 -18.648   0.084  0.00  0.00    -0.271 OA
BRANCH   7  10
ATOM     10  C   UNL d   1      25.146 -17.214  -0.479  0.00  0.00     0.056 A 
ATOM     11  C   UNL d   1      24.797 -18.353   0.252  0.00  0.00     0.032 A 
ATOM     12  C   UNL d   1      23.513 -18.896   0.230  0.00  0.00     0.009 A 
ATOM     13  C   UNL d   1      22.514 -18.315  -0.539  0.00  0.00    -0.060 A 
ATOM     14  C   UNL d   1      21.154 -18.944  -0.592  0.00  0.00     0.048 C 
ATOM     15  C   UNL d   1      22.820 -17.161  -1.270  0.00  0.00     0.033 A 
ATOM     16  C   UNL d   1      24.124 -16.616  -1.245  0.00  0.00     0.061 A 
ATOM     17 CL   UNL d   1      24.417 -15.202  -2.199  0.00  0.00    -0.082 Cl
ENDBRANCH   7  10
ENDBRANCH   5   6
ENDBRANCH   1   5
BRANCH   2  18
ATOM     18  C   UNL d   1      28.147 -13.629   1.866  0.00  0.00     0.102 A 
ATOM     19  C   UNL d   1      28.554 -13.928   3.159  0.00  0.00     0.049 A 
ATOM     20  C   UNL d   1      28.350 -12.801   3.993  0.00  0.00    -0.005 A 
ATOM     21  C   UNL d   1      28.623 -12.538   5.352  0.00  0.00     0.014 A 
ATOM     22  C   UNL d   1      27.758 -11.813   3.206  0.00  0.00     0.076 A 
ATOM     23  C   UNL d   1      28.330 -11.282   5.892  0.00  0.00     0.003 A 
ATOM     24  C   UNL d   1      27.735 -10.300   5.105  0.00  0.00     0.038 A 
ATOM     25  C   UNL d   1      27.417 -10.549   3.751  0.00  0.00     0.130 A 
ATOM     26  N   UNL d   1      27.625 -12.348   1.927  0.00  0.00    -0.349 N 
ATOM     27  H   UNL d   1      27.169 -11.862   1.163  0.00  0.00     0.166 HD
BRANCH  25  28
ATOM     28  N   UNL d   1      26.766  -9.484   2.979  0.00  0.00    -0.113 N 
ATOM     29  O   UNL d   1      26.656  -8.377   3.527  0.00  0.00    -0.532 OA
ATOM     30  O   UNL d   1      26.369  -9.748   1.835  0.00  0.00    -0.532 OA
ENDBRANCH  25  28
ENDBRANCH   2  18
TORSDOF 5
ENDMDL
MODEL 5
REMARK VINA RESULT:    -7.474      3.569      8.411
REMARK INTER + INTRA:         -10.251
REMARK INTER:                  -8.966
REMARK INTRA:                  -1.285
REMARK CONF_INDEPENDENT:        1.492
REMARK UNBOUND:                -1.285
REMARK  5 active torsions:
REMARK  status: ('A' for Active; 'I' for Inactive)
REMARK    1  A    between atoms: C_5  and  N_6 
REMARK       I    between atoms: N_6  and  C_7 
REMARK    2  A    between atoms: C_7  and  C_9 
REMARK    3  A    between atoms: C_9  and  N_10 
REMARK       I    between atoms: N_10  and  C_11 
REMARK    4  A    between atoms: C_11  and  C_13 
REMARK    5  A    between atoms: C_19  and  N_20 
ROOT
ATOM      1  N   UNL d   1      30.013 -15.177   1.450  0.00  0.00    -0.347 N 
ATOM      2  C   UNL d   1      29.015 -14.485   0.810  0.00  0.00     0.268 C 
ATOM      3  O   UNL d   1      29.102 -13.263   0.661  0.00  0.00    -0.266 OA
ATOM      4  H   UNL d   1      30.033 -16.194   1.430  0.00  0.00     0.163 HD
ENDROOT
BRANCH   1   5
ATOM      5  C   UNL d   1      31.243 -14.515   1.937  0.00  0.00     0.226 C 
BRANCH   5   6
ATOM      6  C   UNL d   1      30.929 -13.844   3.280  0.00  0.00     0.239 C 
ATOM      7  N   UNL d   1      29.910 -14.395   4.059  0.00  0.00    -0.324 N 
ATOM      8  H   UNL d   1      29.405 -15.212   3.725  0.00  0.00     0.169 HD
ATOM      9  O   UNL d   1      31.599 -12.850   3.581  0.00  0.00    -0.271 OA
BRANCH   7  10
ATOM     10  C   UNL d   1      29.498 -13.897   5.344  0.00  0.00     0.056 A 
ATOM     11  C   UNL d   1      30.031 -14.414   6.528  0.00  0.00     0.032 A 
ATOM     12  C   UNL d   1      29.639 -13.965   7.788  0.00  0.00     0.009 A 
ATOM     13  C   UNL d   1      28.681 -12.969   7.916  0.00  0.00    -0.060 A 
ATOM     14  C   UNL d   1      28.234 -12.536   9.280  0.00  0.00     0.048 C 
ATOM     15  C   UNL d   1      28.138 -12.411   6.752  0.00  0.00     0.033 A 
ATOM     16  C   UNL d   1      28.538 -12.872   5.478  0.00  0.00     0.061 A 
ATOM     17 CL   UNL d   1      27.795 -12.142   4.096  0.00  0.00    -0.082 Cl
ENDBRANCH   7  10
ENDBRANCH   5   6
ENDBRANCH   1   5
BRANCH   2  18
ATOM     18  C   UNL d   1      27.905 -15.252   0.260  0.00  0.00     0.102 A 
ATOM     19  C   UNL d   1      27.376 -16.416   0.800  0.00  0.00     0.049 A 
ATOM     20  C   UNL d   1      26.319 -16.882  -0.020  0.00  0.00    -0.005 A 
ATOM     21  C   UNL d   1      25.423 -17.968   0.076  0.00  0.00     0.014 A 
ATOM     22  C   UNL d   1      26.235 -16.015  -1.109  0.00  0.00     0.076 A 
ATOM     23  C   UNL d   1      24.439 -18.149  -0.900  0.00  0.00     0.003 A 
ATOM     24  C   UNL d   1      24.361 -17.284  -1.988  0.00  0.00     0.038 A 
ATOM     25  C   UNL d   1      25.269 -16.211  -2.129  0.00  0.00     0.130 A 
ATOM     26  N   UNL d   1      27.222 -15.050  -0.928  0.00  0.00    -0.349 N 
ATOM     27  H   UNL d   1      27.424 -14.323  -1.605  0.00  0.00     0.166 HD
BRANCH  25  28
ATOM     28  N   UNL d   1      25.154 -15.349  -3.311  0.00  0.00    -0.113 N 
ATOM     29  O   UNL d   1      24.313 -14.439  -3.266  0.00  0.00    -0.532 OA
ATOM     30  O   UNL d   1      25.897 -15.576  -4.277  0.00  0.00    -0.532 OA
ENDBRANCH  25  28
ENDBRANCH   2  18
TORSDOF 5
ENDMDL
MODEL 6
REMARK VINA RESULT:    -7.423      3.787      4.668
REMARK INTER + INTRA:         -10.946
REMARK INTER:                  -8.914
REMARK INTRA:                  -2.032
REMARK CONF_INDEPENDENT:        1.492
REMARK UNBOUND:                -2.032
REMARK  5 active torsions:
REMARK  status: ('A' for Active; 'I' for Inactive)
REMARK    1  A    between atoms: C_5  and  N_6 
REMARK       I    between atoms: N_6  and  C_7 
REMARK    2  A    between atoms: C_7  and  C_9 
REMARK    3  A    between atoms: C_9  and  N_10 
REMARK       I    between atoms: N_10  and  C_11 
REMARK    4  A    between atoms: C_11  and  C_13 
REMARK    5  A    between atoms: C_19  and  N_20 
ROOT
ATOM      1  N   UNL d   1      25.824 -11.406  -4.421  0.00  0.00    -0.347 N 
ATOM      2  C   UNL d   1      26.482 -10.877  -3.339  0.00  0.00     0.268 C 
ATOM      3  O   UNL d   1      27.417 -11.492  -2.817  0.00  0.00    -0.266 OA
ATOM      4  H   UNL d   1      25.172 -10.839  -4.958  0.00  0.00     0.163 HD
ENDROOT
BRANCH   1   5
ATOM      5  C   UNL d   1      26.227 -12.688  -5.038  0.00  0.00     0.226 C 
BRANCH   5   6
ATOM      6  C   UNL d   1      25.606 -13.830  -4.223  0.00  0.00     0.239 C 
ATOM      7  N   UNL d   1      26.218 -14.173  -3.017  0.00  0.00    -0.324 N 
ATOM      8  H   UNL d   1      27.047 -13.671  -2.710  0.00  0.00     0.169 HD
ATOM      9  O   UNL d   1      24.604 -14.377  -4.697  0.00  0.00    -0.271 OA
BRANCH   7  10
ATOM     10  C   UNL d   1      25.761 -15.209  -2.129  0.00  0.00     0.056 A 
ATOM     11  C   UNL d   1      24.403 -15.523  -2.020  0.00  0.00     0.032 A 
ATOM     12  C   UNL d   1      23.926 -16.509  -1.156  0.00  0.00     0.009 A 
ATOM     13  C   UNL d   1      24.801 -17.227  -0.354  0.00  0.00    -0.060 A 
ATOM     14  C   UNL d   1      24.265 -18.245   0.607  0.00  0.00     0.048 C 
ATOM     15  C   UNL d   1      26.171 -16.954  -0.449  0.00  0.00     0.033 A 
ATOM     16  C   UNL d   1      26.648 -15.953  -1.325  0.00  0.00     0.061 A 
ATOM     17 CL   UNL d   1      28.355 -15.669  -1.358  0.00  0.00    -0.082 Cl
ENDBRANCH   7  10
ENDBRANCH   5   6
ENDBRANCH   1   5
BRANCH   2  18
ATOM     18  C   UNL d   1      26.085  -9.549  -2.888  0.00  0.00     0.102 A 
ATOM     19  C   UNL d   1      25.900  -8.438  -3.699  0.00  0.00     0.049 A 
ATOM     20  C   UNL d   1      25.532  -7.325  -2.902  0.00  0.00    -0.005 A 
ATOM     21  C   UNL d   1      25.185  -5.991  -3.201  0.00  0.00     0.014 A 
ATOM     22  C   UNL d   1      25.544  -7.753  -1.574  0.00  0.00     0.076 A 
ATOM     23  C   UNL d   1      24.825  -5.116  -2.172  0.00  0.00     0.003 A 
ATOM     24  C   UNL d   1      24.843  -5.545  -0.847  0.00  0.00     0.038 A 
ATOM     25  C   UNL d   1      25.222  -6.865  -0.516  0.00  0.00     0.130 A 
ATOM     26  N   UNL d   1      25.905  -9.098  -1.591  0.00  0.00    -0.349 N 
ATOM     27  H   UNL d   1      26.048  -9.648  -0.752  0.00  0.00     0.166 HD
BRANCH  25  28
ATOM     28  N   UNL d   1      25.247  -7.252   0.900  0.00  0.00    -0.113 N 
ATOM     29  O   UNL d   1      25.359  -8.460   1.152  0.00  0.00    -0.532 OA
ATOM     30  O   UNL d   1      25.155  -6.357   1.753  0.00  0.00    -0.532 OA
ENDBRANCH  25  28
ENDBRANCH   2  18
TORSDOF 5
ENDMDL
MODEL 7
REMARK VINA RESULT:    -7.132      4.235      9.097
REMARK INTER + INTRA:         -10.514
REMARK INTER:                  -8.623
REMARK INTRA:                  -1.890
REMARK CONF_INDEPENDENT:        1.492
REMARK UNBOUND:                -1.890
REMARK  5 active torsions:
REMARK  status: ('A' for Active; 'I' for Inactive)
REMARK    1  A    between atoms: C_5  and  N_6 
REMARK       I    between atoms: N_6  and  C_7 
REMARK    2  A    between atoms: C_7  and  C_9 
REMARK    3  A    between atoms: C_9  and  N_10 
REMARK       I    between atoms: N_10  and  C_11 
REMARK    4  A    between atoms: C_11  and  C_13 
REMARK    5  A    between atoms: C_19  and  N_20 
ROOT
ATOM      1  N   UNL d   1      28.935 -14.814   3.006  0.00  0.00    -0.347 N 
ATOM      2  C   UNL d   1      28.948 -14.543   1.660  0.00  0.00     0.268 C 
ATOM      3  O   UNL d   1      29.837 -13.838   1.175  0.00  0.00    -0.266 OA
ATOM      4  H   UNL d   1      28.313 -15.523   3.386  0.00  0.00     0.163 HD
ENDROOT
BRANCH   1   5
ATOM      5  C   UNL d   1      29.995 -14.328   3.916  0.00  0.00     0.226 C 
BRANCH   5   6
ATOM      6  C   UNL d   1      29.427 -14.293   5.341  0.00  0.00     0.239 C 
ATOM      7  N   UNL d   1      30.221 -13.730   6.342  0.00  0.00    -0.324 N 
ATOM      8  H   UNL d   1      31.141 -13.365   6.112  0.00  0.00     0.169 HD
ATOM      9  O   UNL d   1      28.301 -14.774   5.509  0.00  0.00    -0.271 OA
BRANCH   7  10
ATOM     10  C   UNL d   1      29.837 -13.609   7.723  0.00  0.00     0.056 A 
ATOM     11  C   UNL d   1      30.375 -14.450   8.702  0.00  0.00     0.032 A 
ATOM     12  C   UNL d   1      30.010 -14.369  10.046  0.00  0.00     0.009 A 
ATOM     13  C   UNL d   1      29.076 -13.434  10.468  0.00  0.00    -0.060 A 
ATOM     14  C   UNL d   1      28.657 -13.398  11.907  0.00  0.00     0.048 C 
ATOM     15  C   UNL d   1      28.529 -12.561   9.520  0.00  0.00     0.033 A 
ATOM     16  C   UNL d   1      28.902 -12.649   8.160  0.00  0.00     0.061 A 
ATOM     17 CL   UNL d   1      28.156 -11.544   7.055  0.00  0.00    -0.082 Cl
ENDBRANCH   7  10
ENDBRANCH   5   6
ENDBRANCH   1   5
BRANCH   2  18
ATOM     18  C   UNL d   1      27.926 -15.174   0.834  0.00  0.00     0.102 A 
ATOM     19  C   UNL d   1      27.405 -16.447   1.018  0.00  0.00     0.049 A 
ATOM     20  C   UNL d   1      26.446 -16.718   0.011  0.00  0.00    -0.005 A 
ATOM     21  C   UNL d   1      25.595 -17.812  -0.249  0.00  0.00     0.014 A 
ATOM     22  C   UNL d   1      26.420 -15.609  -0.835  0.00  0.00     0.076 A 
ATOM     23  C   UNL d   1      24.710 -17.767  -1.330  0.00  0.00     0.003 A 
ATOM     24  C   UNL d   1      24.689 -16.661  -2.175  0.00  0.00     0.038 A 
ATOM     25  C   UNL d   1      25.557 -15.567  -1.960  0.00  0.00     0.130 A 
ATOM     26  N   UNL d   1      27.343 -14.698  -0.328  0.00  0.00    -0.349 N 
ATOM     27  H   UNL d   1      27.571 -13.822  -0.784  0.00  0.00     0.166 HD
BRANCH  25  28
ATOM     28  N   UNL d   1      25.509 -14.440  -2.901  0.00  0.00    -0.113 N 
ATOM     29  O   UNL d   1      24.781 -14.568  -3.896  0.00  0.00    -0.532 OA
ATOM     30  O   UNL d   1      26.191 -13.436  -2.648  0.00  0.00    -0.532 OA
ENDBRANCH  25  28
ENDBRANCH   2  18
TORSDOF 5
ENDMDL
MODEL 8
REMARK VINA RESULT:    -6.850      5.454      8.373
REMARK INTER + INTRA:         -10.441
REMARK INTER:                  -8.341
REMARK INTRA:                  -2.100
REMARK CONF_INDEPENDENT:        1.492
REMARK UNBOUND:                -2.100
REMARK  5 active torsions:
REMARK  status: ('A' for Active; 'I' for Inactive)
REMARK    1  A    between atoms: C_5  and  N_6 
REMARK       I    between atoms: N_6  and  C_7 
REMARK    2  A    between atoms: C_7  and  C_9 
REMARK    3  A    between atoms: C_9  and  N_10 
REMARK       I    between atoms: N_10  and  C_11 
REMARK    4  A    between atoms: C_11  and  C_13 
REMARK    5  A    between atoms: C_19  and  N_20 
ROOT
ATOM      1  N   UNL d   1      27.035 -14.158  -4.550  0.00  0.00    -0.347 N 
ATOM      2  C   UNL d   1      25.778 -14.452  -4.082  0.00  0.00     0.268 C 
ATOM      3  O   UNL d   1      24.781 -14.006  -4.656  0.00  0.00    -0.266 OA
ATOM      4  H   UNL d   1      27.849 -14.651  -4.192  0.00  0.00     0.163 HD
ENDROOT
BRANCH   1   5
ATOM      5  C   UNL d   1      27.252 -13.352  -5.771  0.00  0.00     0.226 C 
BRANCH   5   6
ATOM      6  C   UNL d   1      27.116 -11.870  -5.401  0.00  0.00     0.239 C 
ATOM      7  N   UNL d   1      25.828 -11.363  -5.217  0.00  0.00    -0.324 N 
ATOM      8  H   UNL d   1      25.023 -11.974  -5.331  0.00  0.00     0.169 HD
ATOM      9  O   UNL d   1      28.161 -11.219  -5.297  0.00  0.00    -0.271 OA
BRANCH   7  10
ATOM     10  C   UNL d   1      25.525 -10.004  -4.858  0.00  0.00     0.056 A 
ATOM     11  C   UNL d   1      24.870  -9.147  -5.747  0.00  0.00     0.032 A 
ATOM     12  C   UNL d   1      24.577  -7.820  -5.436  0.00  0.00     0.009 A 
ATOM     13  C   UNL d   1      24.938  -7.288  -4.206  0.00  0.00    -0.060 A 
ATOM     14  C   UNL d   1      24.663  -5.844  -3.910  0.00  0.00     0.048 C 
ATOM     15  C   UNL d   1      25.578  -8.120  -3.280  0.00  0.00     0.033 A 
ATOM     16  C   UNL d   1      25.873  -9.464  -3.602  0.00  0.00     0.061 A 
ATOM     17 CL   UNL d   1      26.689 -10.411  -2.405  0.00  0.00    -0.082 Cl
ENDBRANCH   7  10
ENDBRANCH   5   6
ENDBRANCH   1   5
BRANCH   2  18
ATOM     18  C   UNL d   1      25.674 -15.356  -2.944  0.00  0.00     0.102 A 
ATOM     19  C   UNL d   1      26.738 -15.952  -2.281  0.00  0.00     0.049 A 
ATOM     20  C   UNL d   1      26.245 -16.777  -1.239  0.00  0.00    -0.005 A 
ATOM     21  C   UNL d   1      26.869 -17.560  -0.246  0.00  0.00     0.014 A 
ATOM     22  C   UNL d   1      24.853 -16.724  -1.301  0.00  0.00     0.076 A 
ATOM     23  C   UNL d   1      26.092 -18.251   0.689  0.00  0.00     0.003 A 
ATOM     24  C   UNL d   1      24.702 -18.199   0.621  0.00  0.00     0.038 A 
ATOM     25  C   UNL d   1      24.051 -17.452  -0.386  0.00  0.00     0.130 A 
ATOM     26  N   UNL d   1      24.532 -15.874  -2.357  0.00  0.00    -0.349 N 
ATOM     27  H   UNL d   1      23.582 -15.700  -2.665  0.00  0.00     0.166 HD
BRANCH  25  28
ATOM     28  N   UNL d   1      22.584 -17.457  -0.422  0.00  0.00    -0.113 N 
ATOM     29  O   UNL d   1      22.028 -16.456  -0.898  0.00  0.00    -0.532 OA
ATOM     30  O   UNL d   1      21.990 -18.452   0.020  0.00  0.00    -0.532 OA
ENDBRANCH  25  28
ENDBRANCH   2  18
TORSDOF 5
ENDMDL
MODEL 9
REMARK VINA RESULT:    -6.650      2.373      3.103
REMARK INTER + INTRA:         -10.279
REMARK INTER:                  -8.142
REMARK INTRA:                  -2.137
REMARK CONF_INDEPENDENT:        1.492
REMARK UNBOUND:                -2.137
REMARK  5 active torsions:
REMARK  status: ('A' for Active; 'I' for Inactive)
REMARK    1  A    between atoms: C_5  and  N_6 
REMARK       I    between atoms: N_6  and  C_7 
REMARK    2  A    between atoms: C_7  and  C_9 
REMARK    3  A    between atoms: C_9  and  N_10 
REMARK       I    between atoms: N_10  and  C_11 
REMARK    4  A    between atoms: C_11  and  C_13 
REMARK    5  A    between atoms: C_19  and  N_20 
ROOT
ATOM      1  N   UNL d   1      28.345 -13.488  -0.715  0.00  0.00    -0.347 N 
ATOM      2  C   UNL d   1      27.714 -12.792   0.285  0.00  0.00     0.268 C 
ATOM      3  O   UNL d   1      27.510 -13.324   1.380  0.00  0.00    -0.266 OA
ATOM      4  H   UNL d   1      28.668 -13.011  -1.554  0.00  0.00     0.163 HD
ENDROOT
BRANCH   1   5
ATOM      5  C   UNL d   1      28.850 -14.864  -0.520  0.00  0.00     0.226 C 
BRANCH   5   6
ATOM      6  C   UNL d   1      27.705 -15.843  -0.813  0.00  0.00     0.239 C 
ATOM      7  N   UNL d   1      26.498 -15.651  -0.139  0.00  0.00    -0.324 N 
ATOM      8  H   UNL d   1      26.405 -14.884   0.522  0.00  0.00     0.169 HD
ATOM      9  O   UNL d   1      27.933 -16.745  -1.627  0.00  0.00    -0.271 OA
BRANCH   7  10
ATOM     10  C   UNL d   1      25.326 -16.468  -0.305  0.00  0.00     0.056 A 
ATOM     11  C   UNL d   1      24.162 -15.958  -0.887  0.00  0.00     0.032 A 
ATOM     12  C   UNL d   1      23.005 -16.719  -1.046  0.00  0.00     0.009 A 
ATOM     13  C   UNL d   1      22.964 -18.038  -0.618  0.00  0.00    -0.060 A 
ATOM     14  C   UNL d   1      21.694 -18.824  -0.749  0.00  0.00     0.048 C 
ATOM     15  C   UNL d   1      24.116 -18.591  -0.047  0.00  0.00     0.033 A 
ATOM     16  C   UNL d   1      25.286 -17.815   0.112  0.00  0.00     0.061 A 
ATOM     17 CL   UNL d   1      26.654 -18.575   0.850  0.00  0.00    -0.082 Cl
ENDBRANCH   7  10
ENDBRANCH   5   6
ENDBRANCH   1   5
BRANCH   2  18
ATOM     18  C   UNL d   1      27.369 -11.400   0.028  0.00  0.00     0.102 A 
ATOM     19  C   UNL d   1      27.461 -10.754  -1.198  0.00  0.00     0.049 A 
ATOM     20  C   UNL d   1      27.054  -9.404  -1.054  0.00  0.00    -0.005 A 
ATOM     21  C   UNL d   1      26.909  -8.334  -1.961  0.00  0.00     0.014 A 
ATOM     22  C   UNL d   1      26.758  -9.209   0.294  0.00  0.00     0.076 A 
ATOM     23  C   UNL d   1      26.440  -7.096  -1.512  0.00  0.00     0.003 A 
ATOM     24  C   UNL d   1      26.149  -6.903  -0.164  0.00  0.00     0.038 A 
ATOM     25  C   UNL d   1      26.321  -7.947   0.773  0.00  0.00     0.130 A 
ATOM     26  N   UNL d   1      26.979 -10.427   0.932  0.00  0.00    -0.349 N 
ATOM     27  H   UNL d   1      26.896 -10.555   1.935  0.00  0.00     0.166 HD
BRANCH  25  28
ATOM     28  N   UNL d   1      26.024  -7.676   2.185  0.00  0.00    -0.113 N 
ATOM     29  O   UNL d   1      25.530  -6.571   2.454  0.00  0.00    -0.532 OA
ATOM     30  O   UNL d   1      26.280  -8.558   3.018  0.00  0.00    -0.532 OA
ENDBRANCH  25  28
ENDBRANCH   2  18
TORSDOF 5
ENDMDL
