MODEL 1
REMARK VINA RESULT:    -9.257      0.000      0.000
REMARK INTER + INTRA:         -17.019
REMARK INTER:                 -12.836
REMARK INTRA:                  -4.182
REMARK CONF_INDEPENDENT:        3.580
REMARK UNBOUND:                -4.182
REMARK  12 active torsions:
REMARK  status: ('A' for Active; 'I' for Inactive)
REMARK    1  A    between atoms: C_2  and  C_3 
REMARK    2  A    between atoms: C_3  and  C_4 
REMARK    3  A    between atoms: N_17  and  C_3 
REMARK    4  A    between atoms: N_8  and  C_9 
REMARK    5  A    between atoms: C_9  and  C_10 
REMARK    6  A    between atoms: N_17  and  C_22 
REMARK    7  A    between atoms: N_17  and  C_18 
REMARK    8  A    between atoms: C_18  and  C_19 
REMARK    9  A    between atoms: C_19  and  C_20 
REMARK   10  A    between atoms: C_20  and  O_21 
REMARK   11  A    between atoms: C_22  and  C_23 
REMARK   12  A    between atoms: C_32  and  O_33 
ROOT
ATOM      1  N   UNL d   1      27.864 -15.311  -1.181  0.00  0.00    -0.056 N 
ATOM      2  H   UNL d   1      28.622 -14.947  -0.591  0.00  0.00     0.281 HD
ENDROOT
BRANCH   1   3
ATOM      3  C   UNL d   1      26.765 -15.530  -0.139  0.00  0.00     0.278 C 
BRANCH   3   4
ATOM      4  C   UNL d   1      25.706 -16.586  -0.433  0.00  0.00     0.021 C 
ATOM      5  C   UNL d   1      24.399 -16.229  -0.841  0.00  0.00     0.027 C 
ATOM      6  C   UNL d   1      23.287 -17.126  -0.751  0.00  0.00    -0.004 C 
ATOM      7  C   UNL d   1      21.858 -16.828  -0.894  0.00  0.00     0.053 C 
ATOM      8  C   UNL d   1      23.681 -18.419  -0.516  0.00  0.00     0.072 C 
ATOM      9  C   UNL d   1      20.981 -17.911  -1.025  0.00  0.00     0.105 C 
ATOM     10  C   UNL d   1      21.549 -19.064  -1.415  0.00  0.00     0.107 C 
ATOM     11  O   UNL d   1      19.893 -18.317  -0.211  0.00  0.00    -0.323 OA
ATOM     12  C   UNL d   1      22.767 -19.396  -0.859  0.00  0.00     0.072 C 
ATOM     13  O   UNL d   1      20.645 -20.070  -1.601  0.00  0.00    -0.323 OA
ATOM     14  C   UNL d   1      19.949 -19.794  -0.396  0.00  0.00     0.352 C 
ATOM     15  N   UNL d   1      24.918 -18.840  -0.149  0.00  0.00    -0.224 NA
ATOM     16  C   UNL d   1      25.901 -17.923  -0.182  0.00  0.00     0.170 C 
BRANCH  16  17
ATOM     17  O   UNL d   1      27.099 -18.381   0.297  0.00  0.00    -0.344 OA
ATOM     18  H   UNL d   1      27.300 -17.751   1.020  0.00  0.00     0.219 HD
ENDBRANCH  16  17
ENDBRANCH   3   4
ENDBRANCH   1   3
BRANCH   1  19
ATOM     19  C   UNL d   1      28.589 -16.450  -1.828  0.00  0.00     0.238 C 
BRANCH  19  20
ATOM     20  C   UNL d   1      30.046 -16.271  -1.553  0.00  0.00     0.054 C 
BRANCH  20  21
ATOM     21  C   UNL d   1      30.369 -16.719  -0.160  0.00  0.00     0.165 C 
BRANCH  21  22
ATOM     22  O   UNL d   1      29.152 -16.761   0.552  0.00  0.00    -0.401 OA
ATOM     23  H   UNL d   1      29.061 -17.637   0.968  0.00  0.00     0.209 HD
ENDBRANCH  21  22
ENDBRANCH  20  21
ENDBRANCH  19  20
ENDBRANCH   1  19
BRANCH   1  24
ATOM     24  C   UNL d   1      27.574 -14.295  -2.233  0.00  0.00     0.259 C 
BRANCH  24  25
ATOM     25  C   UNL d   1      27.857 -13.078  -1.438  0.00  0.00     0.037 C 
ATOM     26  C   UNL d   1      27.293 -11.750  -1.806  0.00  0.00     0.007 C 
ENDBRANCH  24  25
BRANCH  24  27
ATOM     27  C   UNL d   1      26.309 -14.358  -3.046  0.00  0.00     0.168 A 
ATOM     28  N   UNL d   1      25.134 -14.016  -2.527  0.00  0.00    -0.145 NA
ATOM     29  N   UNL d   1      24.219 -14.072  -3.533  0.00  0.00     0.018 NA
ATOM     30  N   UNL d   1      24.780 -14.510  -4.647  0.00  0.00    -0.003 NA
ATOM     31  N   UNL d   1      26.092 -14.761  -4.369  0.00  0.00    -0.257 N 
BRANCH  31  32
ATOM     32  C   UNL d   1      26.923 -15.198  -5.537  0.00  0.00     0.186 C 
BRANCH  32  33
ATOM     33  C   UNL d   1      28.444 -14.877  -5.610  0.00  0.00    -0.038 C 
ATOM     34  C   UNL d   1      28.884 -13.598  -6.068  0.00  0.00     0.012 C 
ATOM     35  C   UNL d   1      30.098 -13.496  -6.813  0.00  0.00     0.043 C 
ATOM     36  C   UNL d   1      30.941 -14.603  -6.970  0.00  0.00     0.116 C 
ATOM     37  F   UNL d   1      31.863 -14.589  -7.949  0.00  0.00    -0.206 F 
ATOM     38  C   UNL d   1      30.619 -15.816  -6.367  0.00  0.00     0.043 C 
ATOM     39  C   UNL d   1      29.378 -15.961  -5.680  0.00  0.00     0.012 C 
ENDBRANCH  32  33
ENDBRANCH  31  32
ENDBRANCH  24  27
ENDBRANCH   1  24
TORSDOF 12
ENDMDL
MODEL 2
REMARK VINA RESULT:    -9.087      3.985      7.174
REMARK INTER + INTRA:         -17.080
REMARK INTER:                 -12.667
REMARK INTRA:                  -4.413
REMARK CONF_INDEPENDENT:        3.580
REMARK UNBOUND:                -4.413
REMARK  12 active torsions:
REMARK  status: ('A' for Active; 'I' for Inactive)
REMARK    1  A    between atoms: C_2  and  C_3 
REMARK    2  A    between atoms: C_3  and  C_4 
REMARK    3  A    between atoms: N_17  and  C_3 
REMARK    4  A    between atoms: N_8  and  C_9 
REMARK    5  A    between atoms: C_9  and  C_10 
REMARK    6  A    between atoms: N_17  and  C_22 
REMARK    7  A    between atoms: N_17  and  C_18 
REMARK    8  A    between atoms: C_18  and  C_19 
REMARK    9  A    between atoms: C_19  and  C_20 
REMARK   10  A    between atoms: C_20  and  O_21 
REMARK   11  A    between atoms: C_22  and  C_23 
REMARK   12  A    between atoms: C_32  and  O_33 
ROOT
ATOM      1  N   UNL d   1      28.728 -15.504  -1.517  0.00  0.00    -0.056 N 
ATOM      2  H   UNL d   1      29.697 -15.380  -1.197  0.00  0.00     0.281 HD
ENDROOT
BRANCH   1   3
ATOM      3  C   UNL d   1      27.965 -14.724  -0.444  0.00  0.00     0.278 C 
BRANCH   3   4
ATOM      4  C   UNL d   1      28.536 -14.713   0.969  0.00  0.00     0.021 C 
ATOM      5  C   UNL d   1      27.695 -14.728   2.107  0.00  0.00     0.027 C 
ATOM      6  C   UNL d   1      28.144 -14.333   3.407  0.00  0.00    -0.004 C 
ATOM      7  C   UNL d   1      27.344 -14.059   4.606  0.00  0.00     0.053 C 
ATOM      8  C   UNL d   1      29.510 -14.231   3.476  0.00  0.00     0.072 C 
ATOM      9  C   UNL d   1      28.024 -13.944   5.825  0.00  0.00     0.105 C 
ATOM     10  C   UNL d   1      29.251 -14.490   5.850  0.00  0.00     0.107 C 
ATOM     11  O   UNL d   1      28.108 -12.857   6.731  0.00  0.00    -0.323 OA
ATOM     12  C   UNL d   1      30.054 -14.308   4.743  0.00  0.00     0.072 C 
ATOM     13  O   UNL d   1      29.843 -14.420   7.078  0.00  0.00    -0.323 OA
ATOM     14  C   UNL d   1      29.477 -13.063   7.280  0.00  0.00     0.352 C 
ATOM     15  N   UNL d   1      30.381 -14.236   2.435  0.00  0.00    -0.224 NA
ATOM     16  C   UNL d   1      29.875 -14.540   1.227  0.00  0.00     0.170 C 
BRANCH  16  17
ATOM     17  O   UNL d   1      30.779 -14.427   0.205  0.00  0.00    -0.344 OA
ATOM     18  H   UNL d   1      31.459 -15.092   0.441  0.00  0.00     0.219 HD
ENDBRANCH  16  17
ENDBRANCH   3   4
ENDBRANCH   1   3
BRANCH   1  19
ATOM     19  C   UNL d   1      28.691 -16.998  -1.595  0.00  0.00     0.238 C 
BRANCH  19  20
ATOM     20  C   UNL d   1      29.963 -17.448  -2.236  0.00  0.00     0.054 C 
BRANCH  20  21
ATOM     21  C   UNL d   1      31.035 -17.611  -1.202  0.00  0.00     0.165 C 
BRANCH  21  22
ATOM     22  O   UNL d   1      30.564 -17.001  -0.021  0.00  0.00    -0.401 OA
ATOM     23  H   UNL d   1      30.406 -17.692   0.647  0.00  0.00     0.209 HD
ENDBRANCH  21  22
ENDBRANCH  20  21
ENDBRANCH  19  20
ENDBRANCH   1  19
BRANCH   1  24
ATOM     24  C   UNL d   1      28.633 -14.969  -2.906  0.00  0.00     0.259 C 
BRANCH  24  25
ATOM     25  C   UNL d   1      29.065 -13.580  -2.630  0.00  0.00     0.037 C 
ATOM     26  C   UNL d   1      28.191 -12.411  -2.923  0.00  0.00     0.007 C 
ENDBRANCH  24  25
BRANCH  24  27
ATOM     27  C   UNL d   1      27.403 -15.198  -3.743  0.00  0.00     0.168 A 
ATOM     28  N   UNL d   1      27.491 -15.570  -5.016  0.00  0.00    -0.145 NA
ATOM     29  N   UNL d   1      26.223 -15.801  -5.455  0.00  0.00     0.018 NA
ATOM     30  N   UNL d   1      25.345 -15.513  -4.510  0.00  0.00    -0.003 NA
ATOM     31  N   UNL d   1      26.046 -15.070  -3.426  0.00  0.00    -0.257 N 
BRANCH  31  32
ATOM     32  C   UNL d   1      25.222 -14.762  -2.213  0.00  0.00     0.186 C 
BRANCH  32  33
ATOM     33  C   UNL d   1      24.810 -15.881  -1.213  0.00  0.00    -0.038 C 
ATOM     34  C   UNL d   1      25.772 -16.847  -0.786  0.00  0.00     0.012 C 
ATOM     35  C   UNL d   1      25.355 -18.188  -0.524  0.00  0.00     0.043 C 
ATOM     36  C   UNL d   1      23.997 -18.533  -0.530  0.00  0.00     0.116 C 
ATOM     37  F   UNL d   1      23.653 -19.828  -0.642  0.00  0.00    -0.206 F 
ATOM     38  C   UNL d   1      23.031 -17.558  -0.759  0.00  0.00     0.043 C 
ATOM     39  C   UNL d   1      23.426 -16.230  -1.093  0.00  0.00     0.012 C 
ENDBRANCH  32  33
ENDBRANCH  31  32
ENDBRANCH  24  27
ENDBRANCH   1  24
TORSDOF 12
ENDMDL
MODEL 3
REMARK VINA RESULT:    -9.059      4.360      7.700
REMARK INTER + INTRA:         -17.019
REMARK INTER:                 -12.639
REMARK INTRA:                  -4.381
REMARK CONF_INDEPENDENT:        3.580
REMARK UNBOUND:                -4.381
REMARK  12 active torsions:
REMARK  status: ('A' for Active; 'I' for Inactive)
REMARK    1  A    between atoms: C_2  and  C_3 
REMARK    2  A    between atoms: C_3  and  C_4 
REMARK    3  A    between atoms: N_17  and  C_3 
REMARK    4  A    between atoms: N_8  and  C_9 
REMARK    5  A    between atoms: C_9  and  C_10 
REMARK    6  A    between atoms: N_17  and  C_22 
REMARK    7  A    between atoms: N_17  and  C_18 
REMARK    8  A    between atoms: C_18  and  C_19 
REMARK    9  A    between atoms: C_19  and  C_20 
REMARK   10  A    between atoms: C_20  and  O_21 
REMARK   11  A    between atoms: C_22  and  C_23 
REMARK   12  A    between atoms: C_32  and  O_33 
ROOT
ATOM      1  N   UNL d   1      28.339 -15.446  -0.141  0.00  0.00    -0.056 N 
ATOM      2  H   UNL d   1      29.195 -15.208   0.376  0.00  0.00     0.281 HD
ENDROOT
BRANCH   1   3
ATOM      3  C   UNL d   1      27.272 -15.166   0.919  0.00  0.00     0.278 C 
BRANCH   3   4
ATOM      4  C   UNL d   1      27.422 -13.906   1.764  0.00  0.00     0.021 C 
ATOM      5  C   UNL d   1      26.411 -12.916   1.801  0.00  0.00     0.027 C 
ATOM      6  C   UNL d   1      26.655 -11.577   2.246  0.00  0.00    -0.004 C 
ATOM      7  C   UNL d   1      25.793 -10.398   2.108  0.00  0.00     0.053 C 
ATOM      8  C   UNL d   1      27.860 -11.455   2.890  0.00  0.00     0.072 C 
ATOM      9  C   UNL d   1      26.130  -9.260   2.851  0.00  0.00     0.105 C 
ATOM     10  C   UNL d   1      26.938  -9.481   3.902  0.00  0.00     0.107 C 
ATOM     11  O   UNL d   1      26.464  -7.949   2.425  0.00  0.00    -0.323 OA
ATOM     12  C   UNL d   1      27.983 -10.366   3.730  0.00  0.00     0.072 C 
ATOM     13  O   UNL d   1      27.178  -8.356   4.638  0.00  0.00    -0.323 OA
ATOM     14  C   UNL d   1      27.417  -7.547   3.497  0.00  0.00     0.352 C 
ATOM     15  N   UNL d   1      28.863 -12.368   2.921  0.00  0.00    -0.224 NA
ATOM     16  C   UNL d   1      28.589 -13.584   2.415  0.00  0.00     0.170 C 
BRANCH  16  17
ATOM     17  O   UNL d   1      29.668 -14.424   2.381  0.00  0.00    -0.344 OA
ATOM     18  H   UNL d   1      29.255 -15.312   2.393  0.00  0.00     0.219 HD
ENDBRANCH  16  17
ENDBRANCH   3   4
ENDBRANCH   1   3
BRANCH   1  19
ATOM     19  C   UNL d   1      28.695 -16.836  -0.567  0.00  0.00     0.238 C 
BRANCH  19  20
ATOM     20  C   UNL d   1      30.076 -16.794  -1.133  0.00  0.00     0.054 C 
BRANCH  20  21
ATOM     21  C   UNL d   1      31.090 -16.912  -0.035  0.00  0.00     0.165 C 
BRANCH  21  22
ATOM     22  O   UNL d   1      30.790 -15.910   0.911  0.00  0.00    -0.401 OA
ATOM     23  H   UNL d   1      30.478 -16.334   1.730  0.00  0.00     0.209 HD
ENDBRANCH  21  22
ENDBRANCH  20  21
ENDBRANCH  19  20
ENDBRANCH   1  19
BRANCH   1  24
ATOM     24  C   UNL d   1      28.288 -14.591  -1.362  0.00  0.00     0.259 C 
BRANCH  24  25
ATOM     25  C   UNL d   1      28.885 -13.363  -0.787  0.00  0.00     0.037 C 
ATOM     26  C   UNL d   1      28.301 -12.016  -1.031  0.00  0.00     0.007 C 
ENDBRANCH  24  25
BRANCH  24  27
ATOM     27  C   UNL d   1      27.029 -14.477  -2.178  0.00  0.00     0.168 A 
ATOM     28  N   UNL d   1      26.732 -13.365  -2.843  0.00  0.00    -0.145 NA
ATOM     29  N   UNL d   1      25.604 -13.616  -3.563  0.00  0.00     0.018 NA
ATOM     30  N   UNL d   1      25.153 -14.832  -3.307  0.00  0.00    -0.003 NA
ATOM     31  N   UNL d   1      25.992 -15.393  -2.389  0.00  0.00    -0.257 N 
BRANCH  31  32
ATOM     32  C   UNL d   1      25.685 -16.814  -2.024  0.00  0.00     0.186 C 
BRANCH  32  33
ATOM     33  C   UNL d   1      24.580 -17.158  -0.985  0.00  0.00    -0.038 C 
ATOM     34  C   UNL d   1      24.476 -18.485  -0.466  0.00  0.00     0.012 C 
ATOM     35  C   UNL d   1      23.189 -19.019  -0.150  0.00  0.00     0.043 C 
ATOM     36  C   UNL d   1      22.044 -18.213  -0.197  0.00  0.00     0.116 C 
ATOM     37  F   UNL d   1      20.835 -18.798  -0.255  0.00  0.00    -0.206 F 
ATOM     38  C   UNL d   1      22.155 -16.863  -0.520  0.00  0.00     0.043 C 
ATOM     39  C   UNL d   1      23.417 -16.326  -0.907  0.00  0.00     0.012 C 
ENDBRANCH  32  33
ENDBRANCH  31  32
ENDBRANCH  24  27
ENDBRANCH   1  24
TORSDOF 12
ENDMDL
MODEL 4
REMARK VINA RESULT:    -8.526      3.048      4.972
REMARK INTER + INTRA:         -17.067
REMARK INTER:                 -12.106
REMARK INTRA:                  -4.961
REMARK CONF_INDEPENDENT:        3.580
REMARK UNBOUND:                -4.961
REMARK  12 active torsions:
REMARK  status: ('A' for Active; 'I' for Inactive)
REMARK    1  A    between atoms: C_2  and  C_3 
REMARK    2  A    between atoms: C_3  and  C_4 
REMARK    3  A    between atoms: N_17  and  C_3 
REMARK    4  A    between atoms: N_8  and  C_9 
REMARK    5  A    between atoms: C_9  and  C_10 
REMARK    6  A    between atoms: N_17  and  C_22 
REMARK    7  A    between atoms: N_17  and  C_18 
REMARK    8  A    between atoms: C_18  and  C_19 
REMARK    9  A    between atoms: C_19  and  C_20 
REMARK   10  A    between atoms: C_20  and  O_21 
REMARK   11  A    between atoms: C_22  and  C_23 
REMARK   12  A    between atoms: C_32  and  O_33 
ROOT
ATOM      1  N   UNL d   1      27.529 -11.495  -4.148  0.00  0.00    -0.056 N 
ATOM      2  H   UNL d   1      26.516 -11.507  -4.323  0.00  0.00     0.281 HD
ENDROOT
BRANCH   1   3
ATOM      3  C   UNL d   1      27.591 -12.130  -2.757  0.00  0.00     0.278 C 
BRANCH   3   4
ATOM      4  C   UNL d   1      26.515 -13.145  -2.390  0.00  0.00     0.021 C 
ATOM      5  C   UNL d   1      26.689 -14.053  -1.319  0.00  0.00     0.027 C 
ATOM      6  C   UNL d   1      25.912 -15.248  -1.182  0.00  0.00    -0.004 C 
ATOM      7  C   UNL d   1      26.141 -16.389  -0.289  0.00  0.00     0.053 C 
ATOM      8  C   UNL d   1      24.819 -15.254  -2.011  0.00  0.00     0.072 C 
ATOM      9  C   UNL d   1      25.102 -17.318  -0.149  0.00  0.00     0.105 C 
ATOM     10  C   UNL d   1      23.885 -16.875  -0.505  0.00  0.00     0.107 C 
ATOM     11  O   UNL d   1      25.066 -18.706  -0.438  0.00  0.00    -0.323 OA
ATOM     12  C   UNL d   1      23.794 -16.104  -1.645  0.00  0.00     0.072 C 
ATOM     13  O   UNL d   1      22.897 -17.790  -0.280  0.00  0.00    -0.323 OA
ATOM     14  C   UNL d   1      23.639 -18.867  -0.832  0.00  0.00     0.352 C 
ATOM     15  N   UNL d   1      24.571 -14.403  -3.038  0.00  0.00    -0.224 NA
ATOM     16  C   UNL d   1      25.389 -13.342  -3.154  0.00  0.00     0.170 C 
BRANCH  16  17
ATOM     17  O   UNL d   1      25.152 -12.580  -4.266  0.00  0.00    -0.344 OA
ATOM     18  H   UNL d   1      24.600 -11.850  -3.917  0.00  0.00     0.219 HD
ENDBRANCH  16  17
ENDBRANCH   3   4
ENDBRANCH   1   3
BRANCH   1  19
ATOM     19  C   UNL d   1      27.794 -10.039  -4.372  0.00  0.00     0.238 C 
BRANCH  19  20
ATOM     20  C   UNL d   1      26.871  -9.270  -3.485  0.00  0.00     0.054 C 
BRANCH  20  21
ATOM     21  C   UNL d   1      25.584  -8.985  -4.199  0.00  0.00     0.165 C 
BRANCH  21  22
ATOM     22  O   UNL d   1      25.304 -10.107  -5.006  0.00  0.00    -0.401 OA
ATOM     23  H   UNL d   1      24.529 -10.571  -4.642  0.00  0.00     0.209 HD
ENDBRANCH  21  22
ENDBRANCH  20  21
ENDBRANCH  19  20
ENDBRANCH   1  19
BRANCH   1  24
ATOM     24  C   UNL d   1      28.192 -12.257  -5.245  0.00  0.00     0.259 C 
BRANCH  24  25
ATOM     25  C   UNL d   1      27.859 -11.350  -6.367  0.00  0.00     0.037 C 
ATOM     26  C   UNL d   1      28.068 -11.746  -7.787  0.00  0.00     0.007 C 
ENDBRANCH  24  25
BRANCH  24  27
ATOM     27  C   UNL d   1      27.967 -13.736  -5.409  0.00  0.00     0.168 A 
ATOM     28  N   UNL d   1      26.743 -14.242  -5.523  0.00  0.00    -0.145 NA
ATOM     29  N   UNL d   1      26.880 -15.574  -5.769  0.00  0.00     0.018 NA
ATOM     30  N   UNL d   1      28.155 -15.922  -5.739  0.00  0.00    -0.003 NA
ATOM     31  N   UNL d   1      28.876 -14.799  -5.455  0.00  0.00    -0.257 N 
BRANCH  31  32
ATOM     32  C   UNL d   1      30.364 -14.976  -5.452  0.00  0.00     0.186 C 
BRANCH  32  33
ATOM     33  C   UNL d   1      31.013 -16.351  -5.786  0.00  0.00    -0.038 C 
ATOM     34  C   UNL d   1      31.273 -16.707  -7.144  0.00  0.00     0.012 C 
ATOM     35  C   UNL d   1      31.155 -18.072  -7.550  0.00  0.00     0.043 C 
ATOM     36  C   UNL d   1      30.937 -19.086  -6.609  0.00  0.00     0.116 C 
ATOM     37  F   UNL d   1      30.474 -20.278  -7.026  0.00  0.00    -0.206 F 
ATOM     38  C   UNL d   1      30.869 -18.776  -5.253  0.00  0.00     0.043 C 
ATOM     39  C   UNL d   1      30.913 -17.415  -4.832  0.00  0.00     0.012 C 
ENDBRANCH  32  33
ENDBRANCH  31  32
ENDBRANCH  24  27
ENDBRANCH   1  24
TORSDOF 12
ENDMDL
MODEL 5
REMARK VINA RESULT:    -8.519      2.528      3.829
REMARK INTER + INTRA:         -18.225
REMARK INTER:                 -12.099
REMARK INTRA:                  -6.126
REMARK CONF_INDEPENDENT:        3.580
REMARK UNBOUND:                -6.126
REMARK  12 active torsions:
REMARK  status: ('A' for Active; 'I' for Inactive)
REMARK    1  A    between atoms: C_2  and  C_3 
REMARK    2  A    between atoms: C_3  and  C_4 
REMARK    3  A    between atoms: N_17  and  C_3 
REMARK    4  A    between atoms: N_8  and  C_9 
REMARK    5  A    between atoms: C_9  and  C_10 
REMARK    6  A    between atoms: N_17  and  C_22 
REMARK    7  A    between atoms: N_17  and  C_18 
REMARK    8  A    between atoms: C_18  and  C_19 
REMARK    9  A    between atoms: C_19  and  C_20 
REMARK   10  A    between atoms: C_20  and  O_21 
REMARK   11  A    between atoms: C_22  and  C_23 
REMARK   12  A    between atoms: C_32  and  O_33 
ROOT
ATOM      1  N   UNL d   1      29.374 -14.960  -2.129  0.00  0.00    -0.056 N 
ATOM      2  H   UNL d   1      28.807 -14.155  -2.421  0.00  0.00     0.281 HD
ENDROOT
BRANCH   1   3
ATOM      3  C   UNL d   1      28.734 -15.291  -0.779  0.00  0.00     0.278 C 
BRANCH   3   4
ATOM      4  C   UNL d   1      27.241 -15.595  -0.754  0.00  0.00     0.021 C 
ATOM      5  C   UNL d   1      26.731 -16.746  -0.106  0.00  0.00     0.027 C 
ATOM      6  C   UNL d   1      25.429 -17.274  -0.379  0.00  0.00    -0.004 C 
ATOM      7  C   UNL d   1      24.869 -18.572   0.015  0.00  0.00     0.053 C 
ATOM      8  C   UNL d   1      24.650 -16.396  -1.089  0.00  0.00     0.072 C 
ATOM      9  C   UNL d   1      23.490 -18.756  -0.142  0.00  0.00     0.105 C 
ATOM     10  C   UNL d   1      22.769 -17.626  -0.240  0.00  0.00     0.107 C 
ATOM     11  O   UNL d   1      22.770 -19.697  -0.922  0.00  0.00    -0.323 OA
ATOM     12  C   UNL d   1      23.287 -16.603  -1.007  0.00  0.00     0.072 C 
ATOM     13  O   UNL d   1      21.425 -17.855  -0.316  0.00  0.00    -0.323 OA
ATOM     14  C   UNL d   1      21.561 -18.899  -1.267  0.00  0.00     0.352 C 
ATOM     15  N   UNL d   1      25.061 -15.264  -1.713  0.00  0.00    -0.224 NA
ATOM     16  C   UNL d   1      26.323 -14.867  -1.472  0.00  0.00     0.170 C 
BRANCH  16  17
ATOM     17  O   UNL d   1      26.710 -13.780  -2.209  0.00  0.00    -0.344 OA
ATOM     18  H   UNL d   1      26.802 -14.149  -3.112  0.00  0.00     0.219 HD
ENDBRANCH  16  17
ENDBRANCH   3   4
ENDBRANCH   1   3
BRANCH   1  19
ATOM     19  C   UNL d   1      30.735 -14.348  -2.238  0.00  0.00     0.238 C 
BRANCH  19  20
ATOM     20  C   UNL d   1      30.554 -12.904  -2.571  0.00  0.00     0.054 C 
BRANCH  20  21
ATOM     21  C   UNL d   1      29.855 -12.759  -3.889  0.00  0.00     0.165 C 
BRANCH  21  22
ATOM     22  O   UNL d   1      28.470 -12.829  -3.629  0.00  0.00    -0.401 OA
ATOM     23  H   UNL d   1      28.169 -13.745  -3.771  0.00  0.00     0.209 HD
ENDBRANCH  21  22
ENDBRANCH  20  21
ENDBRANCH  19  20
ENDBRANCH   1  19
BRANCH   1  24
ATOM     24  C   UNL d   1      29.256 -16.010  -3.182  0.00  0.00     0.259 C 
BRANCH  24  25
ATOM     25  C   UNL d   1      30.659 -16.484  -3.169  0.00  0.00     0.037 C 
ATOM     26  C   UNL d   1      31.055 -17.749  -2.491  0.00  0.00     0.007 C 
ENDBRANCH  24  25
BRANCH  24  27
ATOM     27  C   UNL d   1      28.597 -15.714  -4.502  0.00  0.00     0.168 A 
ATOM     28  N   UNL d   1      27.285 -15.530  -4.596  0.00  0.00    -0.145 NA
ATOM     29  N   UNL d   1      27.020 -15.174  -5.884  0.00  0.00     0.018 NA
ATOM     30  N   UNL d   1      28.124 -15.202  -6.609  0.00  0.00    -0.003 NA
ATOM     31  N   UNL d   1      29.140 -15.597  -5.788  0.00  0.00    -0.257 N 
BRANCH  31  32
ATOM     32  C   UNL d   1      30.501 -15.617  -6.415  0.00  0.00     0.186 C 
BRANCH  32  33
ATOM     33  C   UNL d   1      31.212 -16.960  -6.753  0.00  0.00    -0.038 C 
ATOM     34  C   UNL d   1      32.081 -17.043  -7.883  0.00  0.00     0.012 C 
ATOM     35  C   UNL d   1      32.152 -18.260  -8.629  0.00  0.00     0.043 C 
ATOM     36  C   UNL d   1      31.501 -19.417  -8.182  0.00  0.00     0.116 C 
ATOM     37  F   UNL d   1      31.277 -20.418  -9.051  0.00  0.00    -0.206 F 
ATOM     38  C   UNL d   1      30.802 -19.402  -6.978  0.00  0.00     0.043 C 
ATOM     39  C   UNL d   1      30.658 -18.183  -6.254  0.00  0.00     0.012 C 
ENDBRANCH  32  33
ENDBRANCH  31  32
ENDBRANCH  24  27
ENDBRANCH   1  24
TORSDOF 12
ENDMDL
MODEL 6
REMARK VINA RESULT:    -8.485      3.833      6.683
REMARK INTER + INTRA:         -17.566
REMARK INTER:                 -12.064
REMARK INTRA:                  -5.502
REMARK CONF_INDEPENDENT:        3.580
REMARK UNBOUND:                -5.502
REMARK  12 active torsions:
REMARK  status: ('A' for Active; 'I' for Inactive)
REMARK    1  A    between atoms: C_2  and  C_3 
REMARK    2  A    between atoms: C_3  and  C_4 
REMARK    3  A    between atoms: N_17  and  C_3 
REMARK    4  A    between atoms: N_8  and  C_9 
REMARK    5  A    between atoms: C_9  and  C_10 
REMARK    6  A    between atoms: N_17  and  C_22 
REMARK    7  A    between atoms: N_17  and  C_18 
REMARK    8  A    between atoms: C_18  and  C_19 
REMARK    9  A    between atoms: C_19  and  C_20 
REMARK   10  A    between atoms: C_20  and  O_21 
REMARK   11  A    between atoms: C_22  and  C_23 
REMARK   12  A    between atoms: C_32  and  O_33 
ROOT
ATOM      1  N   UNL d   1      30.476 -14.661   2.142  0.00  0.00    -0.056 N 
ATOM      2  H   UNL d   1      30.159 -15.605   1.891  0.00  0.00     0.281 HD
ENDROOT
BRANCH   1   3
ATOM      3  C   UNL d   1      31.015 -14.168   0.797  0.00  0.00     0.278 C 
BRANCH   3   4
ATOM      4  C   UNL d   1      30.305 -14.635  -0.468  0.00  0.00     0.021 C 
ATOM      5  C   UNL d   1      29.586 -13.733  -1.288  0.00  0.00     0.027 C 
ATOM      6  C   UNL d   1      28.604 -14.163  -2.237  0.00  0.00    -0.004 C 
ATOM      7  C   UNL d   1      27.619 -13.354  -2.962  0.00  0.00     0.053 C 
ATOM      8  C   UNL d   1      28.657 -15.515  -2.463  0.00  0.00     0.072 C 
ATOM      9  C   UNL d   1      26.943 -13.960  -4.029  0.00  0.00     0.105 C 
ATOM     10  C   UNL d   1      27.538 -15.052  -4.537  0.00  0.00     0.107 C 
ATOM     11  O   UNL d   1      25.558 -14.195  -4.225  0.00  0.00    -0.323 OA
ATOM     12  C   UNL d   1      28.096 -15.948  -3.648  0.00  0.00     0.072 C 
ATOM     13  O   UNL d   1      26.882 -15.563  -5.620  0.00  0.00    -0.323 OA
ATOM     14  C   UNL d   1      25.603 -15.458  -5.013  0.00  0.00     0.352 C 
ATOM     15  N   UNL d   1      29.342 -16.435  -1.738  0.00  0.00    -0.224 NA
ATOM     16  C   UNL d   1      30.191 -15.961  -0.809  0.00  0.00     0.170 C 
BRANCH  16  17
ATOM     17  O   UNL d   1      30.773 -16.936  -0.044  0.00  0.00    -0.344 OA
ATOM     18  H   UNL d   1      30.534 -16.670   0.868  0.00  0.00     0.219 HD
ENDBRANCH  16  17
ENDBRANCH   3   4
ENDBRANCH   1   3
BRANCH   1  19
ATOM     19  C   UNL d   1      31.378 -15.006   3.285  0.00  0.00     0.238 C 
BRANCH  19  20
ATOM     20  C   UNL d   1      32.779 -15.004   2.770  0.00  0.00     0.054 C 
BRANCH  20  21
ATOM     21  C   UNL d   1      33.126 -16.349   2.205  0.00  0.00     0.165 C 
BRANCH  21  22
ATOM     22  O   UNL d   1      31.912 -17.039   2.011  0.00  0.00    -0.401 OA
ATOM     23  H   UNL d   1      32.086 -17.839   1.483  0.00  0.00     0.209 HD
ENDBRANCH  21  22
ENDBRANCH  20  21
ENDBRANCH  19  20
ENDBRANCH   1  19
BRANCH   1  24
ATOM     24  C   UNL d   1      29.306 -13.915   2.690  0.00  0.00     0.259 C 
BRANCH  24  25
ATOM     25  C   UNL d   1      29.301 -14.495   4.052  0.00  0.00     0.037 C 
ATOM     26  C   UNL d   1      28.062 -15.040   4.671  0.00  0.00     0.007 C 
ENDBRANCH  24  25
BRANCH  24  27
ATOM     27  C   UNL d   1      28.011 -13.833   1.927  0.00  0.00     0.168 A 
ATOM     28  N   UNL d   1      27.339 -12.692   1.823  0.00  0.00    -0.145 NA
ATOM     29  N   UNL d   1      26.287 -12.919   0.988  0.00  0.00     0.018 NA
ATOM     30  N   UNL d   1      26.248 -14.190   0.628  0.00  0.00    -0.003 NA
ATOM     31  N   UNL d   1      27.287 -14.820   1.247  0.00  0.00    -0.257 N 
BRANCH  31  32
ATOM     32  C   UNL d   1      27.457 -16.268   0.901  0.00  0.00     0.186 C 
BRANCH  32  33
ATOM     33  C   UNL d   1      26.402 -17.019   0.038  0.00  0.00    -0.038 C 
ATOM     34  C   UNL d   1      25.829 -16.382  -1.105  0.00  0.00     0.012 C 
ATOM     35  C   UNL d   1      24.470 -16.649  -1.453  0.00  0.00     0.043 C 
ATOM     36  C   UNL d   1      23.736 -17.638  -0.784  0.00  0.00     0.116 C 
ATOM     37  F   UNL d   1      22.394 -17.625  -0.867  0.00  0.00    -0.206 F 
ATOM     38  C   UNL d   1      24.342 -18.401   0.210  0.00  0.00     0.043 C 
ATOM     39  C   UNL d   1      25.674 -18.106   0.623  0.00  0.00     0.012 C 
ENDBRANCH  32  33
ENDBRANCH  31  32
ENDBRANCH  24  27
ENDBRANCH   1  24
TORSDOF 12
ENDMDL
MODEL 7
REMARK VINA RESULT:    -8.217      4.460      8.137
REMARK INTER + INTRA:         -17.078
REMARK INTER:                 -11.797
REMARK INTRA:                  -5.281
REMARK CONF_INDEPENDENT:        3.580
REMARK UNBOUND:                -5.281
REMARK  12 active torsions:
REMARK  status: ('A' for Active; 'I' for Inactive)
REMARK    1  A    between atoms: C_2  and  C_3 
REMARK    2  A    between atoms: C_3  and  C_4 
REMARK    3  A    between atoms: N_17  and  C_3 
REMARK    4  A    between atoms: N_8  and  C_9 
REMARK    5  A    between atoms: C_9  and  C_10 
REMARK    6  A    between atoms: N_17  and  C_22 
REMARK    7  A    between atoms: N_17  and  C_18 
REMARK    8  A    between atoms: C_18  and  C_19 
REMARK    9  A    between atoms: C_19  and  C_20 
REMARK   10  A    between atoms: C_20  and  O_21 
REMARK   11  A    between atoms: C_22  and  C_23 
REMARK   12  A    between atoms: C_32  and  O_33 
ROOT
ATOM      1  N   UNL d   1      29.852 -15.430  -4.826  0.00  0.00    -0.056 N 
ATOM      2  H   UNL d   1      29.396 -15.666  -5.716  0.00  0.00     0.281 HD
ENDROOT
BRANCH   1   3
ATOM      3  C   UNL d   1      30.351 -14.014  -5.122  0.00  0.00     0.278 C 
BRANCH   3   4
ATOM      4  C   UNL d   1      29.341 -12.998  -5.641  0.00  0.00     0.021 C 
ATOM      5  C   UNL d   1      29.118 -11.769  -4.975  0.00  0.00     0.027 C 
ATOM      6  C   UNL d   1      27.943 -10.978  -5.183  0.00  0.00    -0.004 C 
ATOM      7  C   UNL d   1      27.460  -9.836  -4.399  0.00  0.00     0.053 C 
ATOM      8  C   UNL d   1      27.232 -11.384  -6.284  0.00  0.00     0.072 C 
ATOM      9  C   UNL d   1      26.431  -9.063  -4.950  0.00  0.00     0.105 C 
ATOM     10  C   UNL d   1      26.273  -9.181  -6.278  0.00  0.00     0.107 C 
ATOM     11  O   UNL d   1      25.125  -8.793  -4.467  0.00  0.00    -0.323 OA
ATOM     12  C   UNL d   1      26.375 -10.444  -6.824  0.00  0.00     0.072 C 
ATOM     13  O   UNL d   1      25.309  -8.354  -6.778  0.00  0.00    -0.323 OA
ATOM     14  C   UNL d   1      24.380  -8.660  -5.750  0.00  0.00     0.352 C 
ATOM     15  N   UNL d   1      27.405 -12.530  -6.988  0.00  0.00    -0.224 NA
ATOM     16  C   UNL d   1      28.490 -13.266  -6.687  0.00  0.00     0.170 C 
BRANCH  16  17
ATOM     17  O   UNL d   1      28.552 -14.458  -7.357  0.00  0.00    -0.344 OA
ATOM     18  H   UNL d   1      29.172 -14.263  -8.091  0.00  0.00     0.219 HD
ENDBRANCH  16  17
ENDBRANCH   3   4
ENDBRANCH   1   3
BRANCH   1  19
ATOM     19  C   UNL d   1      30.782 -16.597  -4.716  0.00  0.00     0.238 C 
BRANCH  19  20
ATOM     20  C   UNL d   1      30.584 -17.448  -5.927  0.00  0.00     0.054 C 
BRANCH  20  21
ATOM     21  C   UNL d   1      31.342 -16.881  -7.089  0.00  0.00     0.165 C 
BRANCH  21  22
ATOM     22  O   UNL d   1      30.672 -15.704  -7.483  0.00  0.00    -0.401 OA
ATOM     23  H   UNL d   1      29.897 -15.949  -8.020  0.00  0.00     0.209 HD
ENDBRANCH  21  22
ENDBRANCH  20  21
ENDBRANCH  19  20
ENDBRANCH   1  19
BRANCH   1  24
ATOM     24  C   UNL d   1      28.833 -15.551  -3.744  0.00  0.00     0.259 C 
BRANCH  24  25
ATOM     25  C   UNL d   1      29.326 -16.804  -3.125  0.00  0.00     0.037 C 
ATOM     26  C   UNL d   1      29.173 -17.075  -1.669  0.00  0.00     0.007 C 
ENDBRANCH  24  25
BRANCH  24  27
ATOM     27  C   UNL d   1      27.364 -15.413  -4.041  0.00  0.00     0.168 A 
ATOM     28  N   UNL d   1      26.889 -15.567  -5.273  0.00  0.00    -0.145 NA
ATOM     29  N   UNL d   1      25.532 -15.494  -5.192  0.00  0.00     0.018 NA
ATOM     30  N   UNL d   1      25.155 -15.227  -3.954  0.00  0.00    -0.003 NA
ATOM     31  N   UNL d   1      26.287 -15.108  -3.201  0.00  0.00    -0.257 N 
BRANCH  31  32
ATOM     32  C   UNL d   1      26.062 -14.877  -1.738  0.00  0.00     0.186 C 
BRANCH  32  33
ATOM     33  C   UNL d   1      25.274 -15.903  -0.872  0.00  0.00    -0.038 C 
ATOM     34  C   UNL d   1      25.976 -16.912  -0.144  0.00  0.00     0.012 C 
ATOM     35  C   UNL d   1      25.382 -18.200   0.024  0.00  0.00     0.043 C 
ATOM     36  C   UNL d   1      24.063 -18.444  -0.380  0.00  0.00     0.116 C 
ATOM     37  F   UNL d   1      23.655 -19.714  -0.549  0.00  0.00    -0.206 F 
ATOM     38  C   UNL d   1      23.299 -17.413  -0.921  0.00  0.00     0.043 C 
ATOM     39  C   UNL d   1      23.892 -16.140  -1.164  0.00  0.00     0.012 C 
ENDBRANCH  32  33
ENDBRANCH  31  32
ENDBRANCH  24  27
ENDBRANCH   1  24
TORSDOF 12
ENDMDL
MODEL 8
REMARK VINA RESULT:    -7.927      5.747      8.135
REMARK INTER + INTRA:         -17.099
REMARK INTER:                 -11.506
REMARK INTRA:                  -5.593
REMARK CONF_INDEPENDENT:        3.580
REMARK UNBOUND:                -5.593
REMARK  12 active torsions:
REMARK  status: ('A' for Active; 'I' for Inactive)
REMARK    1  A    between atoms: C_2  and  C_3 
REMARK    2  A    between atoms: C_3  and  C_4 
REMARK    3  A    between atoms: N_17  and  C_3 
REMARK    4  A    between atoms: N_8  and  C_9 
REMARK    5  A    between atoms: C_9  and  C_10 
REMARK    6  A    between atoms: N_17  and  C_22 
REMARK    7  A    between atoms: N_17  and  C_18 
REMARK    8  A    between atoms: C_18  and  C_19 
REMARK    9  A    between atoms: C_19  and  C_20 
REMARK   10  A    between atoms: C_20  and  O_21 
REMARK   11  A    between atoms: C_22  and  C_23 
REMARK   12  A    between atoms: C_32  and  O_33 
ROOT
ATOM      1  N   UNL d   1      29.173 -13.651   0.841  0.00  0.00    -0.056 N 
ATOM      2  H   UNL d   1      29.280 -14.657   1.019  0.00  0.00     0.281 HD
ENDROOT
BRANCH   1   3
ATOM      3  C   UNL d   1      28.105 -13.662  -0.256  0.00  0.00     0.278 C 
BRANCH   3   4
ATOM      4  C   UNL d   1      27.276 -14.928  -0.429  0.00  0.00     0.021 C 
ATOM      5  C   UNL d   1      25.953 -14.884  -0.930  0.00  0.00     0.027 C 
ATOM      6  C   UNL d   1      25.020 -15.953  -0.748  0.00  0.00    -0.004 C 
ATOM      7  C   UNL d   1      23.571 -15.952  -0.983  0.00  0.00     0.053 C 
ATOM      8  C   UNL d   1      25.627 -17.104  -0.313  0.00  0.00     0.072 C 
ATOM      9  C   UNL d   1      22.915 -17.189  -0.985  0.00  0.00     0.105 C 
ATOM     10  C   UNL d   1      23.707 -18.257  -1.182  0.00  0.00     0.107 C 
ATOM     11  O   UNL d   1      21.872 -17.678  -0.158  0.00  0.00    -0.323 OA
ATOM     12  C   UNL d   1      24.928 -18.274  -0.541  0.00  0.00     0.072 C 
ATOM     13  O   UNL d   1      23.013 -19.431  -1.250  0.00  0.00    -0.323 OA
ATOM     14  C   UNL d   1      22.206 -19.129  -0.123  0.00  0.00     0.352 C 
ATOM     15  N   UNL d   1      26.894 -17.229   0.155  0.00  0.00    -0.224 NA
ATOM     16  C   UNL d   1      27.695 -16.157   0.022  0.00  0.00     0.170 C 
BRANCH  16  17
ATOM     17  O   UNL d   1      28.924 -16.311   0.604  0.00  0.00    -0.344 OA
ATOM     18  H   UNL d   1      28.714 -16.307   1.561  0.00  0.00     0.219 HD
ENDBRANCH  16  17
ENDBRANCH   3   4
ENDBRANCH   1   3
BRANCH   1  19
ATOM     19  C   UNL d   1      30.601 -13.303   0.561  0.00  0.00     0.238 C 
BRANCH  19  20
ATOM     20  C   UNL d   1      31.263 -14.524   0.013  0.00  0.00     0.054 C 
BRANCH  20  21
ATOM     21  C   UNL d   1      31.491 -15.524   1.106  0.00  0.00     0.165 C 
BRANCH  21  22
ATOM     22  O   UNL d   1      30.805 -15.053   2.245  0.00  0.00    -0.401 OA
ATOM     23  H   UNL d   1      29.991 -15.575   2.359  0.00  0.00     0.209 HD
ENDBRANCH  21  22
ENDBRANCH  20  21
ENDBRANCH  19  20
ENDBRANCH   1  19
BRANCH   1  24
ATOM     24  C   UNL d   1      28.784 -12.998   2.124  0.00  0.00     0.259 C 
BRANCH  24  25
ATOM     25  C   UNL d   1      29.959 -12.109   2.276  0.00  0.00     0.037 C 
ATOM     26  C   UNL d   1      30.680 -11.973   3.571  0.00  0.00     0.007 C 
ENDBRANCH  24  25
BRANCH  24  27
ATOM     27  C   UNL d   1      28.329 -13.814   3.304  0.00  0.00     0.168 A 
ATOM     28  N   UNL d   1      28.048 -15.107   3.185  0.00  0.00    -0.145 NA
ATOM     29  N   UNL d   1      27.780 -15.577   4.434  0.00  0.00     0.018 NA
ATOM     30  N   UNL d   1      27.817 -14.594   5.317  0.00  0.00    -0.003 NA
ATOM     31  N   UNL d   1      28.103 -13.447   4.636  0.00  0.00    -0.257 N 
BRANCH  31  32
ATOM     32  C   UNL d   1      28.262 -12.221   5.483  0.00  0.00     0.186 C 
BRANCH  32  33
ATOM     33  C   UNL d   1      28.961 -12.287   6.872  0.00  0.00    -0.038 C 
ATOM     34  C   UNL d   1      29.851 -13.362   7.174  0.00  0.00     0.012 C 
ATOM     35  C   UNL d   1      29.920 -13.866   8.508  0.00  0.00     0.043 C 
ATOM     36  C   UNL d   1      29.243 -13.226   9.555  0.00  0.00     0.116 C 
ATOM     37  F   UNL d   1      29.022 -13.899  10.698  0.00  0.00    -0.206 F 
ATOM     38  C   UNL d   1      28.521 -12.062   9.309  0.00  0.00     0.043 C 
ATOM     39  C   UNL d   1      28.380 -11.581   7.974  0.00  0.00     0.012 C 
ENDBRANCH  32  33
ENDBRANCH  31  32
ENDBRANCH  24  27
ENDBRANCH   1  24
TORSDOF 12
ENDMDL
MODEL 9
REMARK VINA RESULT:    -6.979      2.251      3.605
REMARK INTER + INTRA:         -17.106
REMARK INTER:                 -10.559
REMARK INTRA:                  -6.547
REMARK CONF_INDEPENDENT:        3.580
REMARK UNBOUND:                -6.547
REMARK  12 active torsions:
REMARK  status: ('A' for Active; 'I' for Inactive)
REMARK    1  A    between atoms: C_2  and  C_3 
REMARK    2  A    between atoms: C_3  and  C_4 
REMARK    3  A    between atoms: N_17  and  C_3 
REMARK    4  A    between atoms: N_8  and  C_9 
REMARK    5  A    between atoms: C_9  and  C_10 
REMARK    6  A    between atoms: N_17  and  C_22 
REMARK    7  A    between atoms: N_17  and  C_18 
REMARK    8  A    between atoms: C_18  and  C_19 
REMARK    9  A    between atoms: C_19  and  C_20 
REMARK   10  A    between atoms: C_20  and  O_21 
REMARK   11  A    between atoms: C_22  and  C_23 
REMARK   12  A    between atoms: C_32  and  O_33 
ROOT
ATOM      1  N   UNL d   1      29.335 -14.911  -2.253  0.00  0.00    -0.056 N 
ATOM      2  H   UNL d   1      28.795 -14.095  -2.565  0.00  0.00     0.281 HD
ENDROOT
BRANCH   1   3
ATOM      3  C   UNL d   1      28.675 -15.196  -0.902  0.00  0.00     0.278 C 
BRANCH   3   4
ATOM      4  C   UNL d   1      27.187 -15.524  -0.892  0.00  0.00     0.021 C 
ATOM      5  C   UNL d   1      26.677 -16.624  -0.164  0.00  0.00     0.027 C 
ATOM      6  C   UNL d   1      25.391 -17.197  -0.426  0.00  0.00    -0.004 C 
ATOM      7  C   UNL d   1      24.840 -18.467   0.060  0.00  0.00     0.053 C 
ATOM      8  C   UNL d   1      24.619 -16.395  -1.228  0.00  0.00     0.072 C 
ATOM      9  C   UNL d   1      23.469 -18.687  -0.118  0.00  0.00     0.105 C 
ATOM     10  C   UNL d   1      22.734 -17.583  -0.331  0.00  0.00     0.107 C 
ATOM     11  O   UNL d   1      22.786 -19.702  -0.835  0.00  0.00    -0.323 OA
ATOM     12  C   UNL d   1      23.257 -16.618  -1.166  0.00  0.00     0.072 C 
ATOM     13  O   UNL d   1      21.396 -17.840  -0.423  0.00  0.00    -0.323 OA
ATOM     14  C   UNL d   1      21.575 -18.958  -1.279  0.00  0.00     0.352 C 
ATOM     15  N   UNL d   1      25.030 -15.312  -1.934  0.00  0.00    -0.224 NA
ATOM     16  C   UNL d   1      26.279 -14.874  -1.694  0.00  0.00     0.170 C 
BRANCH  16  17
ATOM     17  O   UNL d   1      26.670 -13.845  -2.508  0.00  0.00    -0.344 OA
ATOM     18  H   UNL d   1      26.879 -14.301  -3.350  0.00  0.00     0.219 HD
ENDBRANCH  16  17
ENDBRANCH   3   4
ENDBRANCH   1   3
BRANCH   1  19
ATOM     19  C   UNL d   1      30.715 -14.342  -2.362  0.00  0.00     0.238 C 
BRANCH  19  20
ATOM     20  C   UNL d   1      30.580 -12.876  -2.614  0.00  0.00     0.054 C 
BRANCH  20  21
ATOM     21  C   UNL d   1      29.847 -12.636  -3.899  0.00  0.00     0.165 C 
BRANCH  21  22
ATOM     22  O   UNL d   1      28.478 -12.848  -3.638  0.00  0.00    -0.401 OA
ATOM     23  H   UNL d   1      28.165 -13.593  -4.183  0.00  0.00     0.209 HD
ENDBRANCH  21  22
ENDBRANCH  20  21
ENDBRANCH  19  20
ENDBRANCH   1  19
BRANCH   1  24
ATOM     24  C   UNL d   1      29.195 -15.976  -3.287  0.00  0.00     0.259 C 
BRANCH  24  25
ATOM     25  C   UNL d   1      30.596 -16.456  -3.292  0.00  0.00     0.037 C 
ATOM     26  C   UNL d   1      30.977 -17.777  -2.721  0.00  0.00     0.007 C 
ENDBRANCH  24  25
BRANCH  24  27
ATOM     27  C   UNL d   1      28.513 -15.699  -4.600  0.00  0.00     0.168 A 
ATOM     28  N   UNL d   1      27.197 -15.531  -4.675  0.00  0.00    -0.145 NA
ATOM     29  N   UNL d   1      26.909 -15.189  -5.961  0.00  0.00     0.018 NA
ATOM     30  N   UNL d   1      28.003 -15.210  -6.703  0.00  0.00    -0.003 NA
ATOM     31  N   UNL d   1      29.035 -15.586  -5.894  0.00  0.00    -0.257 N 
BRANCH  31  32
ATOM     32  C   UNL d   1      30.386 -15.596  -6.541  0.00  0.00     0.186 C 
BRANCH  32  33
ATOM     33  C   UNL d   1      31.071 -14.275  -6.997  0.00  0.00    -0.038 C 
ATOM     34  C   UNL d   1      32.339 -13.903  -6.454  0.00  0.00     0.012 C 
ATOM     35  C   UNL d   1      32.637 -12.522  -6.246  0.00  0.00     0.043 C 
ATOM     36  C   UNL d   1      31.772 -11.521  -6.705  0.00  0.00     0.116 C 
ATOM     37  F   UNL d   1      31.877 -10.281  -6.196  0.00  0.00    -0.206 F 
ATOM     38  C   UNL d   1      30.619 -11.864  -7.407  0.00  0.00     0.043 C 
ATOM     39  C   UNL d   1      30.265 -13.236  -7.564  0.00  0.00     0.012 C 
ENDBRANCH  32  33
ENDBRANCH  31  32
ENDBRANCH  24  27
ENDBRANCH   1  24
TORSDOF 12
ENDMDL
