MODEL 1
REMARK VINA RESULT:   -23.908      0.000      0.000
REMARK INTER + INTRA:         -26.848
REMARK INTER:                 -26.294
REMARK INTRA:                  -0.554
REMARK CONF_INDEPENDENT:        2.386
REMARK UNBOUND:                -0.554
REMARK  8 active torsions:
REMARK  status: ('A' for Active; 'I' for Inactive)
REMARK       I    between atoms: C_2  and  N_3 
REMARK    1  A    between atoms: C_2  and  C_13 
REMARK    2  A    between atoms: N_3  and  N_4 
REMARK    3  A    between atoms: C_5  and  C_6 
REMARK    4  A    between atoms: C_11  and  O_12 
REMARK    5  A    between atoms: C_15  and  C_16 
REMARK    6  A    between atoms: C_19  and  O_20 
REMARK    7  A    between atoms: O_20  and  C_21 
REMARK    8  A    between atoms: C_21  and  C_22 
ROOT
ATOM      1  C   UNL d   1      23.144 -16.891  -1.516  0.00  0.00     0.121 A 
ATOM      2  C   UNL d   1      24.442 -17.183  -1.903  0.00  0.00     0.071 A 
ATOM      3  C   UNL d   1      25.052 -15.962  -2.280  0.00  0.00     0.089 A 
ATOM      4  N   UNL d   1      24.193 -14.946  -2.101  0.00  0.00    -0.174 NA
ATOM      5  N   UNL d   1      23.068 -15.529  -1.627  0.00  0.00    -0.272 N 
ATOM      6  H   UNL d   1      22.307 -14.916  -1.353  0.00  0.00     0.189 HD
ENDROOT
BRANCH   3   7
ATOM      7  C   UNL d   1      26.405 -15.789  -2.814  0.00  0.00    -0.005 A 
ATOM      8  C   UNL d   1      26.599 -15.055  -3.993  0.00  0.00     0.016 A 
ATOM      9  C   UNL d   1      27.880 -14.885  -4.537  0.00  0.00     0.037 A 
ATOM     10  C   UNL d   1      28.988 -15.453  -3.914  0.00  0.00     0.069 A 
ATOM     11  C   UNL d   1      28.800 -16.205  -2.749  0.00  0.00     0.037 A 
ATOM     12  C   UNL d   1      27.519 -16.369  -2.198  0.00  0.00     0.016 A 
BRANCH  10  13
ATOM     13  O   UNL d   1      30.284 -15.346  -4.340  0.00  0.00    -0.347 OA
BRANCH  13  14
ATOM     14  C   UNL d   1      31.167 -16.429  -4.031  0.00  0.00     0.214 C 
BRANCH  14  15
ATOM     15  C   UNL d   1      31.140 -17.395  -5.191  0.00  0.00    -0.034 A 
ATOM     16  C   UNL d   1      30.653 -18.698  -5.004  0.00  0.00     0.011 A 
ATOM     17  C   UNL d   1      30.727 -19.635  -6.035  0.00  0.00     0.024 A 
ATOM     18  C   UNL d   1      31.213 -19.252  -7.282  0.00  0.00     0.034 A 
ATOM     19 CL   UNL d   1      31.226 -20.387  -8.576  0.00  0.00    -0.084 Cl
ATOM     20  C   UNL d   1      31.665 -17.952  -7.495  0.00  0.00     0.024 A 
ATOM     21  C   UNL d   1      31.633 -17.025  -6.450  0.00  0.00     0.011 A 
ENDBRANCH  14  15
ENDBRANCH  13  14
ENDBRANCH  10  13
ENDBRANCH   3   7
BRANCH   1  22
ATOM     22  C   UNL d   1      22.165 -17.811  -0.972  0.00  0.00     0.289 C 
ATOM     23  O   UNL d   1      22.536 -18.737  -0.240  0.00  0.00    -0.264 OA
ATOM     24  N   UNL d   1      20.829 -17.649  -1.357  0.00  0.00    -0.242 N 
ATOM     25  H   UNL d   1      20.547 -16.962  -2.046  0.00  0.00     0.192 HD
BRANCH  24  26
ATOM     26  N   UNL d   1      19.905 -18.575  -0.914  0.00  0.00    -0.183 NA
ATOM     27  C   UNL d   1      20.174 -19.288   0.134  0.00  0.00     0.153 C 
BRANCH  27  28
ATOM     28  C   UNL d   1      19.231 -20.321   0.660  0.00  0.00     0.016 A 
ATOM     29  C   UNL d   1      18.193 -20.775  -0.168  0.00  0.00     0.016 A 
ATOM     30  C   UNL d   1      17.278 -21.729   0.301  0.00  0.00     0.001 A 
ATOM     31  C   UNL d   1      17.383 -22.221   1.602  0.00  0.00     0.003 A 
ATOM     32  C   UNL d   1      18.405 -21.765   2.436  0.00  0.00     0.037 A 
ATOM     33  C   UNL d   1      19.324 -20.819   1.966  0.00  0.00     0.077 A 
BRANCH  33  34
ATOM     34  O   UNL d   1      20.274 -20.329   2.816  0.00  0.00    -0.360 OA
ATOM     35  H   UNL d   1      20.800 -21.056   3.183  0.00  0.00     0.217 HD
ENDBRANCH  33  34
ENDBRANCH  27  28
ENDBRANCH  24  26
ENDBRANCH   1  22
TORSDOF 8
ENDMDL
MODEL 2
REMARK VINA RESULT:   -22.945      1.878      2.333
REMARK INTER + INTRA:         -25.868
REMARK INTER:                 -25.331
REMARK INTRA:                  -0.537
REMARK CONF_INDEPENDENT:        2.386
REMARK UNBOUND:                -0.537
REMARK  8 active torsions:
REMARK  status: ('A' for Active; 'I' for Inactive)
REMARK       I    between atoms: C_2  and  N_3 
REMARK    1  A    between atoms: C_2  and  C_13 
REMARK    2  A    between atoms: N_3  and  N_4 
REMARK    3  A    between atoms: C_5  and  C_6 
REMARK    4  A    between atoms: C_11  and  O_12 
REMARK    5  A    between atoms: C_15  and  C_16 
REMARK    6  A    between atoms: C_19  and  O_20 
REMARK    7  A    between atoms: O_20  and  C_21 
REMARK    8  A    between atoms: C_21  and  C_22 
ROOT
ATOM      1  C   UNL d   1      23.145 -16.897  -1.514  0.00  0.00     0.121 A 
ATOM      2  C   UNL d   1      24.448 -17.183  -1.888  0.00  0.00     0.071 A 
ATOM      3  C   UNL d   1      25.052 -15.959  -2.268  0.00  0.00     0.089 A 
ATOM      4  N   UNL d   1      24.184 -14.948  -2.104  0.00  0.00    -0.174 NA
ATOM      5  N   UNL d   1      23.059 -15.536  -1.636  0.00  0.00    -0.272 N 
ATOM      6  H   UNL d   1      22.291 -14.928  -1.374  0.00  0.00     0.189 HD
ENDROOT
BRANCH   3   7
ATOM      7  C   UNL d   1      26.409 -15.780  -2.792  0.00  0.00    -0.005 A 
ATOM      8  C   UNL d   1      26.595 -15.209  -4.059  0.00  0.00     0.016 A 
ATOM      9  C   UNL d   1      27.880 -15.038  -4.593  0.00  0.00     0.037 A 
ATOM     10  C   UNL d   1      29.000 -15.443  -3.872  0.00  0.00     0.069 A 
ATOM     11  C   UNL d   1      28.821 -16.034  -2.616  0.00  0.00     0.037 A 
ATOM     12  C   UNL d   1      27.535 -16.197  -2.075  0.00  0.00     0.016 A 
BRANCH  10  13
ATOM     13  O   UNL d   1      30.299 -15.318  -4.280  0.00  0.00    -0.347 OA
BRANCH  13  14
ATOM     14  C   UNL d   1      30.772 -16.248  -5.259  0.00  0.00     0.214 C 
BRANCH  14  15
ATOM     15  C   UNL d   1      31.461 -15.463  -6.350  0.00  0.00    -0.034 A 
ATOM     16  C   UNL d   1      32.780 -15.779  -6.712  0.00  0.00     0.011 A 
ATOM     17  C   UNL d   1      33.467 -14.991  -7.635  0.00  0.00     0.024 A 
ATOM     18  C   UNL d   1      32.814 -13.934  -8.262  0.00  0.00     0.034 A 
ATOM     19 CL   UNL d   1      33.637 -13.016  -9.463  0.00  0.00    -0.084 Cl
ATOM     20  C   UNL d   1      31.492 -13.631  -7.943  0.00  0.00     0.024 A 
ATOM     21  C   UNL d   1      30.817 -14.392  -6.984  0.00  0.00     0.011 A 
ENDBRANCH  14  15
ENDBRANCH  13  14
ENDBRANCH  10  13
ENDBRANCH   3   7
BRANCH   1  22
ATOM     22  C   UNL d   1      22.167 -17.820  -0.972  0.00  0.00     0.289 C 
ATOM     23  O   UNL d   1      22.543 -18.759  -0.258  0.00  0.00    -0.264 OA
ATOM     24  N   UNL d   1      20.828 -17.647  -1.339  0.00  0.00    -0.242 N 
ATOM     25  H   UNL d   1      20.541 -16.949  -2.013  0.00  0.00     0.192 HD
BRANCH  24  26
ATOM     26  N   UNL d   1      19.905 -18.575  -0.898  0.00  0.00    -0.183 NA
ATOM     27  C   UNL d   1      20.139 -19.233   0.194  0.00  0.00     0.153 C 
BRANCH  27  28
ATOM     28  C   UNL d   1      19.195 -20.265   0.721  0.00  0.00     0.016 A 
ATOM     29  C   UNL d   1      18.120 -20.674  -0.082  0.00  0.00     0.016 A 
ATOM     30  C   UNL d   1      17.203 -21.625   0.389  0.00  0.00     0.001 A 
ATOM     31  C   UNL d   1      17.345 -22.159   1.670  0.00  0.00     0.003 A 
ATOM     32  C   UNL d   1      18.405 -21.749   2.480  0.00  0.00     0.037 A 
ATOM     33  C   UNL d   1      19.325 -20.805   2.007  0.00  0.00     0.077 A 
BRANCH  33  34
ATOM     34  O   UNL d   1      20.314 -20.360   2.837  0.00  0.00    -0.360 OA
ATOM     35  H   UNL d   1      21.075 -20.959   2.801  0.00  0.00     0.217 HD
ENDBRANCH  33  34
ENDBRANCH  27  28
ENDBRANCH  24  26
ENDBRANCH   1  22
TORSDOF 8
ENDMDL
MODEL 3
REMARK VINA RESULT:   -22.493      2.444      3.221
REMARK INTER + INTRA:         -25.218
REMARK INTER:                 -24.879
REMARK INTRA:                  -0.339
REMARK CONF_INDEPENDENT:        2.386
REMARK UNBOUND:                -0.339
REMARK  8 active torsions:
REMARK  status: ('A' for Active; 'I' for Inactive)
REMARK       I    between atoms: C_2  and  N_3 
REMARK    1  A    between atoms: C_2  and  C_13 
REMARK    2  A    between atoms: N_3  and  N_4 
REMARK    3  A    between atoms: C_5  and  C_6 
REMARK    4  A    between atoms: C_11  and  O_12 
REMARK    5  A    between atoms: C_15  and  C_16 
REMARK    6  A    between atoms: C_19  and  O_20 
REMARK    7  A    between atoms: O_20  and  C_21 
REMARK    8  A    between atoms: C_21  and  C_22 
ROOT
ATOM      1  C   UNL d   1      23.118 -16.828  -1.475  0.00  0.00     0.121 A 
ATOM      2  C   UNL d   1      24.448 -17.074  -1.779  0.00  0.00     0.071 A 
ATOM      3  C   UNL d   1      25.023 -15.839  -2.167  0.00  0.00     0.089 A 
ATOM      4  N   UNL d   1      24.112 -14.858  -2.073  0.00  0.00    -0.174 NA
ATOM      5  N   UNL d   1      22.988 -15.476  -1.641  0.00  0.00    -0.272 N 
ATOM      6  H   UNL d   1      22.187 -14.890  -1.432  0.00  0.00     0.189 HD
ENDROOT
BRANCH   3   7
ATOM      7  C   UNL d   1      26.396 -15.623  -2.633  0.00  0.00    -0.005 A 
ATOM      8  C   UNL d   1      27.473 -16.061  -1.849  0.00  0.00     0.016 A 
ATOM      9  C   UNL d   1      28.797 -15.855  -2.260  0.00  0.00     0.037 A 
ATOM     10  C   UNL d   1      29.067 -15.200  -3.459  0.00  0.00     0.069 A 
ATOM     11  C   UNL d   1      27.998 -14.740  -4.236  0.00  0.00     0.037 A 
ATOM     12  C   UNL d   1      26.670 -14.954  -3.830  0.00  0.00     0.016 A 
BRANCH  10  13
ATOM     13  O   UNL d   1      30.311 -14.953  -3.970  0.00  0.00    -0.347 OA
BRANCH  13  14
ATOM     14  C   UNL d   1      31.227 -16.051  -4.024  0.00  0.00     0.214 C 
BRANCH  14  15
ATOM     15  C   UNL d   1      31.652 -16.371  -2.611  0.00  0.00    -0.034 A 
ATOM     16  C   UNL d   1      31.180 -17.535  -1.986  0.00  0.00     0.011 A 
ATOM     17  C   UNL d   1      31.472 -17.785  -0.645  0.00  0.00     0.024 A 
ATOM     18  C   UNL d   1      32.303 -16.915   0.055  0.00  0.00     0.034 A 
ATOM     19 CL   UNL d   1      32.730 -17.269   1.684  0.00  0.00    -0.084 Cl
ATOM     20  C   UNL d   1      32.811 -15.774  -0.562  0.00  0.00     0.024 A 
ATOM     21  C   UNL d   1      32.483 -15.499  -1.893  0.00  0.00     0.011 A 
ENDBRANCH  14  15
ENDBRANCH  13  14
ENDBRANCH  10  13
ENDBRANCH   3   7
BRANCH   1  22
ATOM     22  C   UNL d   1      22.152 -17.773  -0.952  0.00  0.00     0.289 C 
ATOM     23  O   UNL d   1      22.535 -18.706  -0.234  0.00  0.00    -0.264 OA
ATOM     24  N   UNL d   1      20.816 -17.626  -1.341  0.00  0.00    -0.242 N 
ATOM     25  H   UNL d   1      20.526 -16.933  -2.019  0.00  0.00     0.192 HD
BRANCH  24  26
ATOM     26  N   UNL d   1      19.904 -18.575  -0.918  0.00  0.00    -0.183 NA
ATOM     27  C   UNL d   1      20.148 -19.253   0.159  0.00  0.00     0.153 C 
BRANCH  27  28
ATOM     28  C   UNL d   1      19.217 -20.306   0.666  0.00  0.00     0.016 A 
ATOM     29  C   UNL d   1      18.192 -20.767  -0.174  0.00  0.00     0.016 A 
ATOM     30  C   UNL d   1      17.289 -21.740   0.277  0.00  0.00     0.001 A 
ATOM     31  C   UNL d   1      17.394 -22.246   1.573  0.00  0.00     0.003 A 
ATOM     32  C   UNL d   1      18.404 -21.785   2.419  0.00  0.00     0.037 A 
ATOM     33  C   UNL d   1      19.311 -20.819   1.966  0.00  0.00     0.077 A 
BRANCH  33  34
ATOM     34  O   UNL d   1      20.247 -20.325   2.828  0.00  0.00    -0.360 OA
ATOM     35  H   UNL d   1      21.138 -20.539   2.512  0.00  0.00     0.217 HD
ENDBRANCH  33  34
ENDBRANCH  27  28
ENDBRANCH  24  26
ENDBRANCH   1  22
TORSDOF 8
ENDMDL
MODEL 4
REMARK VINA RESULT:   -22.271      3.245      4.211
REMARK INTER + INTRA:         -25.106
REMARK INTER:                 -24.657
REMARK INTRA:                  -0.449
REMARK CONF_INDEPENDENT:        2.386
REMARK UNBOUND:                -0.449
REMARK  8 active torsions:
REMARK  status: ('A' for Active; 'I' for Inactive)
REMARK       I    between atoms: C_2  and  N_3 
REMARK    1  A    between atoms: C_2  and  C_13 
REMARK    2  A    between atoms: N_3  and  N_4 
REMARK    3  A    between atoms: C_5  and  C_6 
REMARK    4  A    between atoms: C_11  and  O_12 
REMARK    5  A    between atoms: C_15  and  C_16 
REMARK    6  A    between atoms: C_19  and  O_20 
REMARK    7  A    between atoms: O_20  and  C_21 
REMARK    8  A    between atoms: C_21  and  C_22 
ROOT
ATOM      1  C   UNL d   1      23.125 -16.813  -1.364  0.00  0.00     0.121 A 
ATOM      2  C   UNL d   1      24.470 -17.075  -1.570  0.00  0.00     0.071 A 
ATOM      3  C   UNL d   1      25.064 -15.873  -2.025  0.00  0.00     0.089 A 
ATOM      4  N   UNL d   1      24.148 -14.893  -2.064  0.00  0.00    -0.174 NA
ATOM      5  N   UNL d   1      23.002 -15.480  -1.647  0.00  0.00    -0.272 N 
ATOM      6  H   UNL d   1      22.189 -14.884  -1.533  0.00  0.00     0.189 HD
ENDROOT
BRANCH   3   7
ATOM      7  C   UNL d   1      26.461 -15.686  -2.427  0.00  0.00    -0.005 A 
ATOM      8  C   UNL d   1      26.780 -14.747  -3.418  0.00  0.00     0.016 A 
ATOM      9  C   UNL d   1      28.106 -14.557  -3.834  0.00  0.00     0.037 A 
ATOM     10  C   UNL d   1      29.134 -15.309  -3.271  0.00  0.00     0.069 A 
ATOM     11  C   UNL d   1      28.820 -16.263  -2.297  0.00  0.00     0.037 A 
ATOM     12  C   UNL d   1      27.495 -16.448  -1.871  0.00  0.00     0.016 A 
BRANCH  10  13
ATOM     13  O   UNL d   1      30.461 -15.205  -3.584  0.00  0.00    -0.347 OA
BRANCH  13  14
ATOM     14  C   UNL d   1      31.362 -14.886  -2.519  0.00  0.00     0.214 C 
BRANCH  14  15
ATOM     15  C   UNL d   1      30.595 -14.104  -1.480  0.00  0.00    -0.034 A 
ATOM     16  C   UNL d   1      30.326 -14.681  -0.229  0.00  0.00     0.011 A 
ATOM     17  C   UNL d   1      29.522 -14.016   0.696  0.00  0.00     0.024 A 
ATOM     18  C   UNL d   1      29.051 -12.737   0.410  0.00  0.00     0.034 A 
ATOM     19 CL   UNL d   1      28.130 -11.885   1.588  0.00  0.00    -0.084 Cl
ATOM     20  C   UNL d   1      29.341 -12.135  -0.812  0.00  0.00     0.024 A 
ATOM     21  C   UNL d   1      30.109 -12.819  -1.759  0.00  0.00     0.011 A 
ENDBRANCH  14  15
ENDBRANCH  13  14
ENDBRANCH  10  13
ENDBRANCH   3   7
BRANCH   1  22
ATOM     22  C   UNL d   1      22.130 -17.718  -0.821  0.00  0.00     0.289 C 
ATOM     23  O   UNL d   1      22.462 -18.549   0.034  0.00  0.00    -0.264 OA
ATOM     24  N   UNL d   1      20.834 -17.656  -1.344  0.00  0.00    -0.242 N 
ATOM     25  H   UNL d   1      20.596 -17.055  -2.123  0.00  0.00     0.192 HD
BRANCH  24  26
ATOM     26  N   UNL d   1      19.905 -18.575  -0.895  0.00  0.00    -0.183 NA
ATOM     27  C   UNL d   1      20.179 -19.298   0.145  0.00  0.00     0.153 C 
BRANCH  27  28
ATOM     28  C   UNL d   1      19.230 -20.324   0.675  0.00  0.00     0.016 A 
ATOM     29  C   UNL d   1      18.182 -20.767  -0.146  0.00  0.00     0.016 A 
ATOM     30  C   UNL d   1      17.262 -21.714   0.328  0.00  0.00     0.001 A 
ATOM     31  C   UNL d   1      17.372 -22.209   1.627  0.00  0.00     0.003 A 
ATOM     32  C   UNL d   1      18.405 -21.765   2.454  0.00  0.00     0.037 A 
ATOM     33  C   UNL d   1      19.329 -20.826   1.979  0.00  0.00     0.077 A 
BRANCH  33  34
ATOM     34  O   UNL d   1      20.290 -20.347   2.823  0.00  0.00    -0.360 OA
ATOM     35  H   UNL d   1      21.030 -19.982   2.314  0.00  0.00     0.217 HD
ENDBRANCH  33  34
ENDBRANCH  27  28
ENDBRANCH  24  26
ENDBRANCH   1  22
TORSDOF 8
ENDMDL
MODEL 5
REMARK VINA RESULT:   -20.919      5.081      6.406
REMARK INTER + INTRA:         -23.837
REMARK INTER:                 -23.306
REMARK INTRA:                  -0.531
REMARK CONF_INDEPENDENT:        2.386
REMARK UNBOUND:                -0.531
REMARK  8 active torsions:
REMARK  status: ('A' for Active; 'I' for Inactive)
REMARK       I    between atoms: C_2  and  N_3 
REMARK    1  A    between atoms: C_2  and  C_13 
REMARK    2  A    between atoms: N_3  and  N_4 
REMARK    3  A    between atoms: C_5  and  C_6 
REMARK    4  A    between atoms: C_11  and  O_12 
REMARK    5  A    between atoms: C_15  and  C_16 
REMARK    6  A    between atoms: C_19  and  O_20 
REMARK    7  A    between atoms: O_20  and  C_21 
REMARK    8  A    between atoms: C_21  and  C_22 
ROOT
ATOM      1  C   UNL d   1      23.324 -17.355  -1.560  0.00  0.00     0.121 A 
ATOM      2  C   UNL d   1      23.531 -15.989  -1.456  0.00  0.00     0.071 A 
ATOM      3  C   UNL d   1      24.653 -15.675  -2.262  0.00  0.00     0.089 A 
ATOM      4  N   UNL d   1      25.103 -16.781  -2.874  0.00  0.00    -0.174 NA
ATOM      5  N   UNL d   1      24.279 -17.766  -2.449  0.00  0.00    -0.272 N 
ATOM      6  H   UNL d   1      24.405 -18.687  -2.857  0.00  0.00     0.189 HD
ENDROOT
BRANCH   3   7
ATOM      7  C   UNL d   1      25.277 -14.358  -2.416  0.00  0.00    -0.005 A 
ATOM      8  C   UNL d   1      25.103 -13.640  -3.608  0.00  0.00     0.016 A 
ATOM      9  C   UNL d   1      25.699 -12.384  -3.790  0.00  0.00     0.037 A 
ATOM     10  C   UNL d   1      26.487 -11.829  -2.786  0.00  0.00     0.069 A 
ATOM     11  C   UNL d   1      26.684 -12.549  -1.602  0.00  0.00     0.037 A 
ATOM     12  C   UNL d   1      26.079 -13.802  -1.413  0.00  0.00     0.016 A 
BRANCH  10  13
ATOM     13  O   UNL d   1      27.108 -10.612  -2.841  0.00  0.00    -0.347 OA
BRANCH  13  14
ATOM     14  C   UNL d   1      27.457 -10.112  -4.136  0.00  0.00     0.214 C 
BRANCH  14  15
ATOM     15  C   UNL d   1      26.379  -9.146  -4.567  0.00  0.00    -0.034 A 
ATOM     16  C   UNL d   1      25.949  -9.131  -5.903  0.00  0.00     0.011 A 
ATOM     17  C   UNL d   1      25.038  -8.169  -6.339  0.00  0.00     0.024 A 
ATOM     18  C   UNL d   1      24.491  -7.270  -5.428  0.00  0.00     0.034 A 
ATOM     19 CL   UNL d   1      23.304  -6.140  -5.952  0.00  0.00    -0.084 Cl
ATOM     20  C   UNL d   1      24.879  -7.297  -4.090  0.00  0.00     0.024 A 
ATOM     21  C   UNL d   1      25.826  -8.231  -3.660  0.00  0.00     0.011 A 
ENDBRANCH  14  15
ENDBRANCH  13  14
ENDBRANCH  10  13
ENDBRANCH   3   7
BRANCH   1  22
ATOM     22  C   UNL d   1      22.240 -18.122  -0.977  0.00  0.00     0.289 C 
ATOM     23  O   UNL d   1      22.497 -19.047  -0.196  0.00  0.00    -0.264 OA
ATOM     24  N   UNL d   1      20.934 -17.820  -1.379  0.00  0.00    -0.242 N 
ATOM     25  H   UNL d   1      20.737 -17.140  -2.102  0.00  0.00     0.192 HD
BRANCH  24  26
ATOM     26  N   UNL d   1      19.905 -18.605  -0.895  0.00  0.00    -0.183 NA
ATOM     27  C   UNL d   1      20.098 -19.320   0.168  0.00  0.00     0.153 C 
BRANCH  27  28
ATOM     28  C   UNL d   1      19.037 -20.205   0.737  0.00  0.00     0.016 A 
ATOM     29  C   UNL d   1      18.921 -21.519   0.258  0.00  0.00     0.016 A 
ATOM     30  C   UNL d   1      17.924 -22.370   0.756  0.00  0.00     0.001 A 
ATOM     31  C   UNL d   1      17.027 -21.910   1.719  0.00  0.00     0.003 A 
ATOM     32  C   UNL d   1      17.128 -20.601   2.193  0.00  0.00     0.037 A 
ATOM     33  C   UNL d   1      18.128 -19.753   1.702  0.00  0.00     0.077 A 
BRANCH  33  34
ATOM     34  O   UNL d   1      18.169 -18.454   2.121  0.00  0.00    -0.360 OA
ATOM     35  H   UNL d   1      18.850 -17.967   1.634  0.00  0.00     0.217 HD
ENDBRANCH  33  34
ENDBRANCH  27  28
ENDBRANCH  24  26
ENDBRANCH   1  22
TORSDOF 8
ENDMDL
