MODEL 1
REMARK VINA RESULT:    -6.957      0.000      0.000
REMARK INTER + INTRA:         -10.991
REMARK INTER:                  -9.045
REMARK INTRA:                  -1.946
REMARK CONF_INDEPENDENT:        2.088
REMARK UNBOUND:                -1.946
REMARK  7 active torsions:
REMARK  status: ('A' for Active; 'I' for Inactive)
REMARK    1  A    between atoms: C_6  and  C_7 
REMARK    2  A    between atoms: C_12  and  O_13 
REMARK    3  A    between atoms: C_15  and  C_16 
REMARK    4  A    between atoms: N_23  and  C_24 
REMARK    5  A    between atoms: C_24  and  C_25 
REMARK    6  A    between atoms: C_25  and  C_26 
REMARK    7  A    between atoms: C_26  and  O_27 
ROOT
ATOM      1  O   UNL d   1      26.182 -18.832   0.273  0.00  0.00    -0.266 OA
ATOM      2  C   UNL d   1      26.082 -17.658  -0.052  0.00  0.00     0.273 A 
ATOM      3  C   UNL d   1      26.983 -16.601   0.225  0.00  0.00     0.129 A 
ATOM      4  N   UNL d   1      28.153 -16.367   0.844  0.00  0.00    -0.272 N 
ATOM      5  N   UNL d   1      28.541 -15.066   0.722  0.00  0.00    -0.173 NA
ATOM      6  C   UNL d   1      27.529 -14.463   0.053  0.00  0.00     0.101 A 
ATOM      7  C   UNL d   1      26.558 -15.413  -0.287  0.00  0.00     0.034 A 
ATOM      8  C   UNL d   1      25.257 -15.569  -0.955  0.00  0.00     0.162 A 
ATOM      9  N   UNL d   1      25.057 -17.047  -0.800  0.00  0.00    -0.333 N 
ATOM     10  H   UNL d   1      28.749 -17.011   1.355  0.00  0.00     0.189 HD
ENDROOT
BRANCH   6  11
ATOM     11  C   UNL d   1      27.505 -13.035  -0.240  0.00  0.00     0.028 A 
ATOM     12  C   UNL d   1      27.290 -12.583  -1.550  0.00  0.00     0.017 A 
ATOM     13  C   UNL d   1      27.220 -11.213  -1.824  0.00  0.00     0.001 A 
ATOM     14  C   UNL d   1      27.383 -10.285  -0.795  0.00  0.00     0.003 A 
ATOM     15  C   UNL d   1      27.600 -10.722   0.514  0.00  0.00     0.037 A 
ATOM     16  C   UNL d   1      27.647 -12.091   0.788  0.00  0.00     0.078 A 
BRANCH  16  17
ATOM     17  O   UNL d   1      27.828 -12.528   2.075  0.00  0.00    -0.360 OA
ATOM     18  H   UNL d   1      28.346 -13.347   2.070  0.00  0.00     0.217 HD
ENDBRANCH  16  17
ENDBRANCH   6  11
BRANCH   8  19
ATOM     19  C   UNL d   1      25.417 -15.117  -2.379  0.00  0.00     0.008 A 
ATOM     20  C   UNL d   1      24.601 -14.142  -2.980  0.00  0.00     0.012 A 
ATOM     21  C   UNL d   1      24.879 -13.687  -4.270  0.00  0.00     0.001 A 
ATOM     22  C   UNL d   1      25.976 -14.189  -4.971  0.00  0.00     0.003 A 
ATOM     23  C   UNL d   1      26.793 -15.155  -4.389  0.00  0.00     0.043 A 
ATOM     24  C   UNL d   1      26.504 -15.614  -3.110  0.00  0.00     0.125 A 
ATOM     25  F   UNL d   1      27.346 -16.490  -2.540  0.00  0.00    -0.205 F 
ENDBRANCH   8  19
BRANCH   9  26
ATOM     26  C   UNL d   1      23.890 -17.771  -1.309  0.00  0.00     0.129 C 
BRANCH  26  27
ATOM     27  C   UNL d   1      22.593 -17.516  -0.543  0.00  0.00     0.046 C 
BRANCH  27  28
ATOM     28  C   UNL d   1      21.500 -18.528  -0.823  0.00  0.00     0.165 C 
BRANCH  28  29
ATOM     29  O   UNL d   1      20.248 -17.854  -0.912  0.00  0.00    -0.401 OA
ATOM     30  H   UNL d   1      20.279 -17.259  -1.681  0.00  0.00     0.209 HD
ENDBRANCH  28  29
ENDBRANCH  27  28
ENDBRANCH  26  27
ENDBRANCH   9  26
TORSDOF 7
ENDMDL
MODEL 2
REMARK VINA RESULT:    -6.517      2.672      5.452
REMARK INTER + INTRA:         -10.798
REMARK INTER:                  -8.605
REMARK INTRA:                  -2.193
REMARK CONF_INDEPENDENT:        2.088
REMARK UNBOUND:                -2.193
REMARK  7 active torsions:
REMARK  status: ('A' for Active; 'I' for Inactive)
REMARK    1  A    between atoms: C_6  and  C_7 
REMARK    2  A    between atoms: C_12  and  O_13 
REMARK    3  A    between atoms: C_15  and  C_16 
REMARK    4  A    between atoms: N_23  and  C_24 
REMARK    5  A    between atoms: C_24  and  C_25 
REMARK    6  A    between atoms: C_25  and  C_26 
REMARK    7  A    between atoms: C_26  and  O_27 
ROOT
ATOM      1  O   UNL d   1      31.481 -15.215  -1.418  0.00  0.00    -0.266 OA
ATOM      2  C   UNL d   1      30.315 -15.500  -1.647  0.00  0.00     0.273 A 
ATOM      3  C   UNL d   1      29.309 -15.859  -0.715  0.00  0.00     0.129 A 
ATOM      4  N   UNL d   1      29.131 -16.039   0.605  0.00  0.00    -0.272 N 
ATOM      5  N   UNL d   1      27.843 -16.367   0.904  0.00  0.00    -0.173 NA
ATOM      6  C   UNL d   1      27.220 -16.455  -0.297  0.00  0.00     0.101 A 
ATOM      7  C   UNL d   1      28.116 -16.117  -1.318  0.00  0.00     0.034 A 
ATOM      8  C   UNL d   1      28.229 -15.980  -2.778  0.00  0.00     0.162 A 
ATOM      9  N   UNL d   1      29.656 -15.533  -2.891  0.00  0.00    -0.333 N 
ATOM     10  H   UNL d   1      29.804 -15.955   1.361  0.00  0.00     0.189 HD
ENDROOT
BRANCH   6  11
ATOM     11  C   UNL d   1      25.824 -16.850  -0.445  0.00  0.00     0.028 A 
ATOM     12  C   UNL d   1      24.910 -16.001  -1.086  0.00  0.00     0.017 A 
ATOM     13  C   UNL d   1      23.582 -16.400  -1.270  0.00  0.00     0.001 A 
ATOM     14  C   UNL d   1      23.153 -17.641  -0.799  0.00  0.00     0.003 A 
ATOM     15  C   UNL d   1      24.053 -18.495  -0.156  0.00  0.00     0.037 A 
ATOM     16  C   UNL d   1      25.384 -18.104   0.006  0.00  0.00     0.078 A 
BRANCH  16  17
ATOM     17  O   UNL d   1      26.280 -18.950   0.607  0.00  0.00    -0.360 OA
ATOM     18  H   UNL d   1      27.118 -18.485   0.752  0.00  0.00     0.217 HD
ENDBRANCH  16  17
ENDBRANCH   6  11
BRANCH   8  19
ATOM     19  C   UNL d   1      27.227 -14.952  -3.219  0.00  0.00     0.008 A 
ATOM     20  C   UNL d   1      26.103 -15.254  -4.010  0.00  0.00     0.012 A 
ATOM     21  C   UNL d   1      25.151 -14.272  -4.287  0.00  0.00     0.001 A 
ATOM     22  C   UNL d   1      25.301 -12.983  -3.773  0.00  0.00     0.003 A 
ATOM     23  C   UNL d   1      26.408 -12.670  -2.988  0.00  0.00     0.043 A 
ATOM     24  C   UNL d   1      27.359 -13.647  -2.727  0.00  0.00     0.125 A 
ATOM     25  F   UNL d   1      28.380 -13.345  -1.909  0.00  0.00    -0.205 F 
ENDBRANCH   8  19
BRANCH   9  26
ATOM     26  C   UNL d   1      30.319 -15.228  -4.162  0.00  0.00     0.129 C 
BRANCH  26  27
ATOM     27  C   UNL d   1      29.780 -15.998  -5.366  0.00  0.00     0.046 C 
BRANCH  27  28
ATOM     28  C   UNL d   1      29.194 -15.117  -6.451  0.00  0.00     0.165 C 
BRANCH  28  29
ATOM     29  O   UNL d   1      27.773 -15.200  -6.406  0.00  0.00    -0.401 OA
ATOM     30  H   UNL d   1      27.425 -14.315  -6.197  0.00  0.00     0.209 HD
ENDBRANCH  28  29
ENDBRANCH  27  28
ENDBRANCH  26  27
ENDBRANCH   9  26
TORSDOF 7
ENDMDL
MODEL 3
REMARK VINA RESULT:    -6.434      2.903      4.771
REMARK INTER + INTRA:         -11.142
REMARK INTER:                  -8.522
REMARK INTRA:                  -2.619
REMARK CONF_INDEPENDENT:        2.088
REMARK UNBOUND:                -2.619
REMARK  7 active torsions:
REMARK  status: ('A' for Active; 'I' for Inactive)
REMARK    1  A    between atoms: C_6  and  C_7 
REMARK    2  A    between atoms: C_12  and  O_13 
REMARK    3  A    between atoms: C_15  and  C_16 
REMARK    4  A    between atoms: N_23  and  C_24 
REMARK    5  A    between atoms: C_24  and  C_25 
REMARK    6  A    between atoms: C_25  and  C_26 
REMARK    7  A    between atoms: C_26  and  O_27 
ROOT
ATOM      1  O   UNL d   1      22.499 -16.174  -0.931  0.00  0.00    -0.266 OA
ATOM      2  C   UNL d   1      23.666 -16.229  -1.288  0.00  0.00     0.273 A 
ATOM      3  C   UNL d   1      24.310 -15.442  -2.276  0.00  0.00     0.129 A 
ATOM      4  N   UNL d   1      24.053 -14.450  -3.145  0.00  0.00    -0.272 N 
ATOM      5  N   UNL d   1      25.168 -14.079  -3.836  0.00  0.00    -0.173 NA
ATOM      6  C   UNL d   1      26.135 -14.929  -3.416  0.00  0.00     0.101 A 
ATOM      7  C   UNL d   1      25.622 -15.772  -2.423  0.00  0.00     0.034 A 
ATOM      8  C   UNL d   1      25.984 -16.884  -1.530  0.00  0.00     0.162 A 
ATOM      9  N   UNL d   1      24.684 -17.074  -0.807  0.00  0.00    -0.333 N 
ATOM     10  H   UNL d   1      23.178 -13.968  -3.329  0.00  0.00     0.189 HD
ENDROOT
BRANCH   6  11
ATOM     11  C   UNL d   1      27.491 -14.926  -3.954  0.00  0.00     0.028 A 
ATOM     12  C   UNL d   1      28.588 -14.699  -3.112  0.00  0.00     0.017 A 
ATOM     13  C   UNL d   1      29.891 -14.742  -3.619  0.00  0.00     0.001 A 
ATOM     14  C   UNL d   1      30.107 -14.991  -4.974  0.00  0.00     0.003 A 
ATOM     15  C   UNL d   1      29.021 -15.215  -5.825  0.00  0.00     0.037 A 
ATOM     16  C   UNL d   1      27.722 -15.195  -5.312  0.00  0.00     0.078 A 
BRANCH  16  17
ATOM     17  O   UNL d   1      26.655 -15.446  -6.134  0.00  0.00    -0.360 OA
ATOM     18  H   UNL d   1      25.861 -15.017  -5.777  0.00  0.00     0.217 HD
ENDBRANCH  16  17
ENDBRANCH   6  11
BRANCH   8  19
ATOM     19  C   UNL d   1      27.112 -16.418  -0.654  0.00  0.00     0.008 A 
ATOM     20  C   UNL d   1      28.418 -16.933  -0.731  0.00  0.00     0.012 A 
ATOM     21  C   UNL d   1      29.444 -16.374   0.033  0.00  0.00     0.001 A 
ATOM     22  C   UNL d   1      29.183 -15.291   0.874  0.00  0.00     0.003 A 
ATOM     23  C   UNL d   1      27.894 -14.771   0.961  0.00  0.00     0.043 A 
ATOM     24  C   UNL d   1      26.875 -15.339   0.208  0.00  0.00     0.125 A 
ATOM     25  F   UNL d   1      25.657 -14.776   0.251  0.00  0.00    -0.205 F 
ENDBRANCH   8  19
BRANCH   9  26
ATOM     26  C   UNL d   1      24.471 -18.076   0.241  0.00  0.00     0.129 C 
BRANCH  26  27
ATOM     27  C   UNL d   1      23.645 -19.287  -0.189  0.00  0.00     0.046 C 
BRANCH  27  28
ATOM     28  C   UNL d   1      22.148 -19.049  -0.180  0.00  0.00     0.165 C 
BRANCH  28  29
ATOM     29  O   UNL d   1      21.681 -18.950  -1.522  0.00  0.00    -0.401 OA
ATOM     30  H   UNL d   1      21.832 -18.039  -1.828  0.00  0.00     0.209 HD
ENDBRANCH  28  29
ENDBRANCH  27  28
ENDBRANCH  26  27
ENDBRANCH   9  26
TORSDOF 7
ENDMDL
MODEL 4
REMARK VINA RESULT:    -6.121      2.766      4.647
REMARK INTER + INTRA:         -10.770
REMARK INTER:                  -8.209
REMARK INTRA:                  -2.561
REMARK CONF_INDEPENDENT:        2.088
REMARK UNBOUND:                -2.561
REMARK  7 active torsions:
REMARK  status: ('A' for Active; 'I' for Inactive)
REMARK    1  A    between atoms: C_6  and  C_7 
REMARK    2  A    between atoms: C_12  and  O_13 
REMARK    3  A    between atoms: C_15  and  C_16 
REMARK    4  A    between atoms: N_23  and  C_24 
REMARK    5  A    between atoms: C_24  and  C_25 
REMARK    6  A    between atoms: C_25  and  C_26 
REMARK    7  A    between atoms: C_26  and  O_27 
ROOT
ATOM      1  O   UNL d   1      22.557 -16.099  -1.027  0.00  0.00    -0.266 OA
ATOM      2  C   UNL d   1      23.729 -16.091  -1.373  0.00  0.00     0.273 A 
ATOM      3  C   UNL d   1      24.328 -15.305  -2.389  0.00  0.00     0.129 A 
ATOM      4  N   UNL d   1      24.014 -14.370  -3.302  0.00  0.00    -0.272 N 
ATOM      5  N   UNL d   1      25.108 -13.954  -4.001  0.00  0.00    -0.173 NA
ATOM      6  C   UNL d   1      26.127 -14.719  -3.537  0.00  0.00     0.101 A 
ATOM      7  C   UNL d   1      25.661 -15.551  -2.512  0.00  0.00     0.034 A 
ATOM      8  C   UNL d   1      26.088 -16.597  -1.570  0.00  0.00     0.162 A 
ATOM      9  N   UNL d   1      24.796 -16.844  -0.849  0.00  0.00    -0.333 N 
ATOM     10  H   UNL d   1      23.111 -13.956  -3.512  0.00  0.00     0.189 HD
ENDROOT
BRANCH   6  11
ATOM     11  C   UNL d   1      27.484 -14.646  -4.065  0.00  0.00     0.028 A 
ATOM     12  C   UNL d   1      28.534 -14.178  -3.263  0.00  0.00     0.017 A 
ATOM     13  C   UNL d   1      29.843 -14.152  -3.754  0.00  0.00     0.001 A 
ATOM     14  C   UNL d   1      30.111 -14.576  -5.055  0.00  0.00     0.003 A 
ATOM     15  C   UNL d   1      29.073 -15.042  -5.866  0.00  0.00     0.037 A 
ATOM     16  C   UNL d   1      27.770 -15.088  -5.366  0.00  0.00     0.078 A 
BRANCH  16  17
ATOM     17  O   UNL d   1      26.752 -15.574  -6.145  0.00  0.00    -0.360 OA
ATOM     18  H   UNL d   1      25.902 -15.258  -5.803  0.00  0.00     0.217 HD
ENDBRANCH  16  17
ENDBRANCH   6  11
BRANCH   8  19
ATOM     19  C   UNL d   1      27.173 -16.019  -0.706  0.00  0.00     0.008 A 
ATOM     20  C   UNL d   1      26.933 -15.095   0.327  0.00  0.00     0.012 A 
ATOM     21  C   UNL d   1      27.972 -14.688   1.165  0.00  0.00     0.001 A 
ATOM     22  C   UNL d   1      29.258 -15.202   0.991  0.00  0.00     0.003 A 
ATOM     23  C   UNL d   1      29.510 -16.118  -0.028  0.00  0.00     0.043 A 
ATOM     24  C   UNL d   1      28.475 -16.510  -0.867  0.00  0.00     0.125 A 
ATOM     25  F   UNL d   1      28.723 -17.448  -1.795  0.00  0.00    -0.205 F 
ENDBRANCH   8  19
BRANCH   9  26
ATOM     26  C   UNL d   1      24.640 -17.813   0.239  0.00  0.00     0.129 C 
BRANCH  26  27
ATOM     27  C   UNL d   1      23.898 -19.091  -0.142  0.00  0.00     0.046 C 
BRANCH  27  28
ATOM     28  C   UNL d   1      22.389 -18.950  -0.156  0.00  0.00     0.165 C 
BRANCH  28  29
ATOM     29  O   UNL d   1      21.930 -18.942  -1.505  0.00  0.00    -0.401 OA
ATOM     30  H   UNL d   1      21.863 -18.016  -1.796  0.00  0.00     0.209 HD
ENDBRANCH  28  29
ENDBRANCH  27  28
ENDBRANCH  26  27
ENDBRANCH   9  26
TORSDOF 7
ENDMDL
MODEL 5
REMARK VINA RESULT:    -6.030      2.110      2.314
REMARK INTER + INTRA:         -10.641
REMARK INTER:                  -8.119
REMARK INTRA:                  -2.522
REMARK CONF_INDEPENDENT:        2.088
REMARK UNBOUND:                -2.522
REMARK  7 active torsions:
REMARK  status: ('A' for Active; 'I' for Inactive)
REMARK    1  A    between atoms: C_6  and  C_7 
REMARK    2  A    between atoms: C_12  and  O_13 
REMARK    3  A    between atoms: C_15  and  C_16 
REMARK    4  A    between atoms: N_23  and  C_24 
REMARK    5  A    between atoms: C_24  and  C_25 
REMARK    6  A    between atoms: C_25  and  C_26 
REMARK    7  A    between atoms: C_26  and  O_27 
ROOT
ATOM      1  O   UNL d   1      24.863 -18.836  -0.138  0.00  0.00    -0.266 OA
ATOM      2  C   UNL d   1      25.427 -17.773  -0.351  0.00  0.00     0.273 A 
ATOM      3  C   UNL d   1      26.817 -17.501  -0.296  0.00  0.00     0.129 A 
ATOM      4  N   UNL d   1      27.987 -18.112  -0.042  0.00  0.00    -0.272 N 
ATOM      5  N   UNL d   1      29.045 -17.269  -0.201  0.00  0.00    -0.173 NA
ATOM      6  C   UNL d   1      28.491 -16.069  -0.502  0.00  0.00     0.101 A 
ATOM      7  C   UNL d   1      27.100 -16.202  -0.589  0.00  0.00     0.034 A 
ATOM      8  C   UNL d   1      25.866 -15.445  -0.846  0.00  0.00     0.162 A 
ATOM      9  N   UNL d   1      24.852 -16.543  -0.722  0.00  0.00    -0.333 N 
ATOM     10  H   UNL d   1      28.162 -19.075   0.229  0.00  0.00     0.189 HD
ENDROOT
BRANCH   6  11
ATOM     11  C   UNL d   1      29.273 -14.853  -0.692  0.00  0.00     0.028 A 
ATOM     12  C   UNL d   1      29.160 -14.115  -1.879  0.00  0.00     0.017 A 
ATOM     13  C   UNL d   1      29.874 -12.924  -2.043  0.00  0.00     0.001 A 
ATOM     14  C   UNL d   1      30.722 -12.471  -1.032  0.00  0.00     0.003 A 
ATOM     15  C   UNL d   1      30.846 -13.199   0.154  0.00  0.00     0.037 A 
ATOM     16  C   UNL d   1      30.114 -14.377   0.325  0.00  0.00     0.078 A 
BRANCH  16  17
ATOM     17  O   UNL d   1      30.207 -15.079   1.499  0.00  0.00    -0.360 OA
ATOM     18  H   UNL d   1      29.838 -15.967   1.376  0.00  0.00     0.217 HD
ENDBRANCH  16  17
ENDBRANCH   6  11
BRANCH   8  19
ATOM     19  C   UNL d   1      25.969 -14.856  -2.224  0.00  0.00     0.008 A 
ATOM     20  C   UNL d   1      25.776 -15.601  -3.402  0.00  0.00     0.012 A 
ATOM     21  C   UNL d   1      25.772 -14.966  -4.645  0.00  0.00     0.001 A 
ATOM     22  C   UNL d   1      25.949 -13.585  -4.730  0.00  0.00     0.003 A 
ATOM     23  C   UNL d   1      26.141 -12.835  -3.572  0.00  0.00     0.043 A 
ATOM     24  C   UNL d   1      26.157 -13.473  -2.338  0.00  0.00     0.125 A 
ATOM     25  F   UNL d   1      26.269 -12.722  -1.231  0.00  0.00    -0.205 F 
ENDBRANCH   8  19
BRANCH   9  26
ATOM     26  C   UNL d   1      23.411 -16.348  -0.899  0.00  0.00     0.129 C 
BRANCH  26  27
ATOM     27  C   UNL d   1      22.532 -17.343  -0.144  0.00  0.00     0.046 C 
BRANCH  27  28
ATOM     28  C   UNL d   1      22.095 -18.535  -0.972  0.00  0.00     0.165 C 
BRANCH  28  29
ATOM     29  O   UNL d   1      22.072 -19.696  -0.147  0.00  0.00    -0.401 OA
ATOM     30  H   UNL d   1      22.960 -19.817   0.231  0.00  0.00     0.209 HD
ENDBRANCH  28  29
ENDBRANCH  27  28
ENDBRANCH  26  27
ENDBRANCH   9  26
TORSDOF 7
ENDMDL
MODEL 6
REMARK VINA RESULT:    -5.675      3.749      6.565
REMARK INTER + INTRA:         -10.038
REMARK INTER:                  -7.763
REMARK INTRA:                  -2.275
REMARK CONF_INDEPENDENT:        2.088
REMARK UNBOUND:                -2.275
REMARK  7 active torsions:
REMARK  status: ('A' for Active; 'I' for Inactive)
REMARK    1  A    between atoms: C_6  and  C_7 
REMARK    2  A    between atoms: C_12  and  O_13 
REMARK    3  A    between atoms: C_15  and  C_16 
REMARK    4  A    between atoms: N_23  and  C_24 
REMARK    5  A    between atoms: C_24  and  C_25 
REMARK    6  A    between atoms: C_25  and  C_26 
REMARK    7  A    between atoms: C_26  and  O_27 
ROOT
ATOM      1  O   UNL d   1      26.102 -11.767  -5.977  0.00  0.00    -0.266 OA
ATOM      2  C   UNL d   1      26.502 -12.501  -5.087  0.00  0.00     0.273 A 
ATOM      3  C   UNL d   1      25.747 -13.411  -4.306  0.00  0.00     0.129 A 
ATOM      4  N   UNL d   1      24.487 -13.855  -4.154  0.00  0.00    -0.272 N 
ATOM      5  N   UNL d   1      24.402 -14.824  -3.200  0.00  0.00    -0.173 NA
ATOM      6  C   UNL d   1      25.656 -14.930  -2.699  0.00  0.00     0.101 A 
ATOM      7  C   UNL d   1      26.515 -14.071  -3.396  0.00  0.00     0.034 A 
ATOM      8  C   UNL d   1      27.912 -13.617  -3.466  0.00  0.00     0.162 A 
ATOM      9  N   UNL d   1      27.818 -12.651  -4.610  0.00  0.00    -0.333 N 
ATOM     10  H   UNL d   1      23.644 -13.574  -4.646  0.00  0.00     0.189 HD
ENDROOT
BRANCH   6  11
ATOM     11  C   UNL d   1      26.004 -15.819  -1.597  0.00  0.00     0.028 A 
ATOM     12  C   UNL d   1      26.958 -15.430  -0.645  0.00  0.00     0.017 A 
ATOM     13  C   UNL d   1      27.257 -16.263   0.438  0.00  0.00     0.001 A 
ATOM     14  C   UNL d   1      26.623 -17.498   0.568  0.00  0.00     0.003 A 
ATOM     15  C   UNL d   1      25.673 -17.899  -0.376  0.00  0.00     0.037 A 
ATOM     16  C   UNL d   1      25.359 -17.055  -1.444  0.00  0.00     0.078 A 
BRANCH  16  17
ATOM     17  O   UNL d   1      24.405 -17.428  -2.356  0.00  0.00    -0.360 OA
ATOM     18  H   UNL d   1      24.535 -16.936  -3.181  0.00  0.00     0.217 HD
ENDBRANCH  16  17
ENDBRANCH   6  11
BRANCH   8  19
ATOM     19  C   UNL d   1      28.770 -14.819  -3.746  0.00  0.00     0.008 A 
ATOM     20  C   UNL d   1      28.751 -15.518  -4.966  0.00  0.00     0.012 A 
ATOM     21  C   UNL d   1      29.657 -16.554  -5.200  0.00  0.00     0.001 A 
ATOM     22  C   UNL d   1      30.596 -16.899  -4.227  0.00  0.00     0.003 A 
ATOM     23  C   UNL d   1      30.627 -16.215  -3.014  0.00  0.00     0.043 A 
ATOM     24  C   UNL d   1      29.714 -15.194  -2.781  0.00  0.00     0.125 A 
ATOM     25  F   UNL d   1      29.808 -14.500  -1.636  0.00  0.00    -0.205 F 
ENDBRANCH   8  19
BRANCH   9  26
ATOM     26  C   UNL d   1      28.957 -11.893  -5.134  0.00  0.00     0.129 C 
BRANCH  26  27
ATOM     27  C   UNL d   1      29.707 -12.570  -6.279  0.00  0.00     0.046 C 
BRANCH  27  28
ATOM     28  C   UNL d   1      28.874 -12.773  -7.529  0.00  0.00     0.165 C 
BRANCH  28  29
ATOM     29  O   UNL d   1      28.530 -14.151  -7.645  0.00  0.00    -0.401 OA
ATOM     30  H   UNL d   1      28.782 -14.451  -8.536  0.00  0.00     0.209 HD
ENDBRANCH  28  29
ENDBRANCH  27  28
ENDBRANCH  26  27
ENDBRANCH   9  26
TORSDOF 7
ENDMDL
MODEL 7
REMARK VINA RESULT:    -5.587      3.158      6.403
REMARK INTER + INTRA:         -10.014
REMARK INTER:                  -7.675
REMARK INTRA:                  -2.339
REMARK CONF_INDEPENDENT:        2.088
REMARK UNBOUND:                -2.339
REMARK  7 active torsions:
REMARK  status: ('A' for Active; 'I' for Inactive)
REMARK    1  A    between atoms: C_6  and  C_7 
REMARK    2  A    between atoms: C_12  and  O_13 
REMARK    3  A    between atoms: C_15  and  C_16 
REMARK    4  A    between atoms: N_23  and  C_24 
REMARK    5  A    between atoms: C_24  and  C_25 
REMARK    6  A    between atoms: C_25  and  C_26 
REMARK    7  A    between atoms: C_26  and  O_27 
ROOT
ATOM      1  O   UNL d   1      26.490 -11.724  -5.362  0.00  0.00    -0.266 OA
ATOM      2  C   UNL d   1      26.272 -12.369  -4.348  0.00  0.00     0.273 A 
ATOM      3  C   UNL d   1      25.964 -13.749  -4.247  0.00  0.00     0.129 A 
ATOM      4  N   UNL d   1      25.788 -14.835  -5.019  0.00  0.00    -0.272 N 
ATOM      5  N   UNL d   1      25.532 -15.949  -4.278  0.00  0.00    -0.173 NA
ATOM      6  C   UNL d   1      25.484 -15.510  -2.997  0.00  0.00     0.101 A 
ATOM      7  C   UNL d   1      25.776 -14.142  -2.957  0.00  0.00     0.034 A 
ATOM      8  C   UNL d   1      25.914 -13.001  -2.039  0.00  0.00     0.162 A 
ATOM      9  N   UNL d   1      26.282 -11.922  -3.014  0.00  0.00    -0.333 N 
ATOM     10  H   UNL d   1      25.830 -14.917  -6.031  0.00  0.00     0.189 HD
ENDROOT
BRANCH   6  11
ATOM     11  C   UNL d   1      25.168 -16.376  -1.867  0.00  0.00     0.028 A 
ATOM     12  C   UNL d   1      23.833 -16.628  -1.518  0.00  0.00     0.017 A 
ATOM     13  C   UNL d   1      23.529 -17.496  -0.464  0.00  0.00     0.001 A 
ATOM     14  C   UNL d   1      24.555 -18.102   0.262  0.00  0.00     0.003 A 
ATOM     15  C   UNL d   1      25.888 -17.857  -0.074  0.00  0.00     0.037 A 
ATOM     16  C   UNL d   1      26.189 -17.008  -1.142  0.00  0.00     0.078 A 
BRANCH  16  17
ATOM     17  O   UNL d   1      27.495 -16.788  -1.497  0.00  0.00    -0.360 OA
ATOM     18  H   UNL d   1      27.618 -17.005  -2.435  0.00  0.00     0.217 HD
ENDBRANCH  16  17
ENDBRANCH   6  11
BRANCH   8  19
ATOM     19  C   UNL d   1      26.998 -13.334  -1.054  0.00  0.00     0.008 A 
ATOM     20  C   UNL d   1      26.765 -13.536   0.318  0.00  0.00     0.012 A 
ATOM     21  C   UNL d   1      27.800 -13.957   1.156  0.00  0.00     0.001 A 
ATOM     22  C   UNL d   1      29.073 -14.191   0.636  0.00  0.00     0.003 A 
ATOM     23  C   UNL d   1      29.319 -13.995  -0.721  0.00  0.00     0.043 A 
ATOM     24  C   UNL d   1      28.289 -13.564  -1.548  0.00  0.00     0.125 A 
ATOM     25  F   UNL d   1      28.529 -13.453  -2.864  0.00  0.00    -0.205 F 
ENDBRANCH   8  19
BRANCH   9  26
ATOM     26  C   UNL d   1      26.556 -10.534  -2.631  0.00  0.00     0.129 C 
BRANCH  26  27
ATOM     27  C   UNL d   1      25.525  -9.519  -3.120  0.00  0.00     0.046 C 
BRANCH  27  28
ATOM     28  C   UNL d   1      25.804  -8.972  -4.506  0.00  0.00     0.165 C 
BRANCH  28  29
ATOM     29  O   UNL d   1      24.886  -9.547  -5.431  0.00  0.00    -0.401 OA
ATOM     30  H   UNL d   1      24.779 -10.488  -5.206  0.00  0.00     0.209 HD
ENDBRANCH  28  29
ENDBRANCH  27  28
ENDBRANCH  26  27
ENDBRANCH   9  26
TORSDOF 7
ENDMDL
MODEL 8
REMARK VINA RESULT:    -4.937      3.593      6.549
REMARK INTER + INTRA:          -9.659
REMARK INTER:                  -7.025
REMARK INTRA:                  -2.634
REMARK CONF_INDEPENDENT:        2.088
REMARK UNBOUND:                -2.634
REMARK  7 active torsions:
REMARK  status: ('A' for Active; 'I' for Inactive)
REMARK    1  A    between atoms: C_6  and  C_7 
REMARK    2  A    between atoms: C_12  and  O_13 
REMARK    3  A    between atoms: C_15  and  C_16 
REMARK    4  A    between atoms: N_23  and  C_24 
REMARK    5  A    between atoms: C_24  and  C_25 
REMARK    6  A    between atoms: C_25  and  C_26 
REMARK    7  A    between atoms: C_26  and  O_27 
ROOT
ATOM      1  O   UNL d   1      25.440 -11.503  -6.163  0.00  0.00    -0.266 OA
ATOM      2  C   UNL d   1      25.970 -12.159  -5.280  0.00  0.00     0.273 A 
ATOM      3  C   UNL d   1      25.368 -13.122  -4.432  0.00  0.00     0.129 A 
ATOM      4  N   UNL d   1      24.178 -13.699  -4.195  0.00  0.00    -0.272 N 
ATOM      5  N   UNL d   1      24.257 -14.640  -3.212  0.00  0.00    -0.173 NA
ATOM      6  C   UNL d   1      25.541 -14.589  -2.784  0.00  0.00     0.101 A 
ATOM      7  C   UNL d   1      26.256 -13.662  -3.552  0.00  0.00     0.034 A 
ATOM      8  C   UNL d   1      27.586 -13.056  -3.716  0.00  0.00     0.162 A 
ATOM      9  N   UNL d   1      27.319 -12.145  -4.877  0.00  0.00    -0.333 N 
ATOM     10  H   UNL d   1      23.282 -13.531  -4.643  0.00  0.00     0.189 HD
ENDROOT
BRANCH   6  11
ATOM     11  C   UNL d   1      26.049 -15.397  -1.682  0.00  0.00     0.028 A 
ATOM     12  C   UNL d   1      26.939 -14.846  -0.749  0.00  0.00     0.017 A 
ATOM     13  C   UNL d   1      27.390 -15.606   0.335  0.00  0.00     0.001 A 
ATOM     14  C   UNL d   1      26.971 -16.929   0.484  0.00  0.00     0.003 A 
ATOM     15  C   UNL d   1      26.087 -17.490  -0.440  0.00  0.00     0.037 A 
ATOM     16  C   UNL d   1      25.620 -16.721  -1.509  0.00  0.00     0.078 A 
BRANCH  16  17
ATOM     17  O   UNL d   1      24.727 -17.256  -2.401  0.00  0.00    -0.360 OA
ATOM     18  H   UNL d   1      24.752 -16.750  -3.228  0.00  0.00     0.217 HD
ENDBRANCH  16  17
ENDBRANCH   6  11
BRANCH   8  19
ATOM     19  C   UNL d   1      28.558 -14.162  -4.015  0.00  0.00     0.008 A 
ATOM     20  C   UNL d   1      29.443 -14.696  -3.061  0.00  0.00     0.012 A 
ATOM     21  C   UNL d   1      30.238 -15.800  -3.375  0.00  0.00     0.001 A 
ATOM     22  C   UNL d   1      30.154 -16.390  -4.637  0.00  0.00     0.003 A 
ATOM     23  C   UNL d   1      29.282 -15.872  -5.592  0.00  0.00     0.043 A 
ATOM     24  C   UNL d   1      28.504 -14.765  -5.278  0.00  0.00     0.125 A 
ATOM     25  F   UNL d   1      27.618 -14.327  -6.187  0.00  0.00    -0.205 F 
ENDBRANCH   8  19
BRANCH   9  26
ATOM     26  C   UNL d   1      28.333 -11.280  -5.487  0.00  0.00     0.129 C 
BRANCH  26  27
ATOM     27  C   UNL d   1      28.330  -9.837  -4.986  0.00  0.00     0.046 C 
BRANCH  27  28
ATOM     28  C   UNL d   1      27.058  -9.076  -5.303  0.00  0.00     0.165 C 
BRANCH  28  29
ATOM     29  O   UNL d   1      26.066  -9.394  -4.331  0.00  0.00    -0.401 OA
ATOM     30  H   UNL d   1      25.336  -9.851  -4.783  0.00  0.00     0.209 HD
ENDBRANCH  28  29
ENDBRANCH  27  28
ENDBRANCH  26  27
ENDBRANCH   9  26
TORSDOF 7
ENDMDL
MODEL 9
REMARK VINA RESULT:    -4.787      2.821      6.478
REMARK INTER + INTRA:          -9.616
REMARK INTER:                  -6.875
REMARK INTRA:                  -2.741
REMARK CONF_INDEPENDENT:        2.088
REMARK UNBOUND:                -2.741
REMARK  7 active torsions:
REMARK  status: ('A' for Active; 'I' for Inactive)
REMARK    1  A    between atoms: C_6  and  C_7 
REMARK    2  A    between atoms: C_12  and  O_13 
REMARK    3  A    between atoms: C_15  and  C_16 
REMARK    4  A    between atoms: N_23  and  C_24 
REMARK    5  A    between atoms: C_24  and  C_25 
REMARK    6  A    between atoms: C_25  and  C_26 
REMARK    7  A    between atoms: C_26  and  O_27 
ROOT
ATOM      1  O   UNL d   1      27.092 -11.188  -4.276  0.00  0.00    -0.266 OA
ATOM      2  C   UNL d   1      26.921 -12.130  -3.517  0.00  0.00     0.273 A 
ATOM      3  C   UNL d   1      25.849 -13.057  -3.511  0.00  0.00     0.129 A 
ATOM      4  N   UNL d   1      24.713 -13.337  -4.174  0.00  0.00    -0.272 N 
ATOM      5  N   UNL d   1      24.100 -14.450  -3.682  0.00  0.00    -0.173 NA
ATOM      6  C   UNL d   1      24.861 -14.829  -2.627  0.00  0.00     0.101 A 
ATOM      7  C   UNL d   1      25.972 -13.983  -2.521  0.00  0.00     0.034 A 
ATOM      8  C   UNL d   1      27.176 -13.728  -1.716  0.00  0.00     0.162 A 
ATOM      9  N   UNL d   1      27.746 -12.556  -2.459  0.00  0.00    -0.333 N 
ATOM     10  H   UNL d   1      24.290 -12.850  -4.958  0.00  0.00     0.189 HD
ENDROOT
BRANCH   6  11
ATOM     11  C   UNL d   1      24.526 -15.954  -1.763  0.00  0.00     0.028 A 
ATOM     12  C   UNL d   1      25.514 -16.872  -1.378  0.00  0.00     0.017 A 
ATOM     13  C   UNL d   1      25.203 -17.925  -0.511  0.00  0.00     0.001 A 
ATOM     14  C   UNL d   1      23.900 -18.081  -0.039  0.00  0.00     0.003 A 
ATOM     15  C   UNL d   1      22.906 -17.175  -0.418  0.00  0.00     0.037 A 
ATOM     16  C   UNL d   1      23.224 -16.111  -1.264  0.00  0.00     0.078 A 
BRANCH  16  17
ATOM     17  O   UNL d   1      22.261 -15.200  -1.614  0.00  0.00    -0.360 OA
ATOM     18  H   UNL d   1      22.540 -14.723  -2.411  0.00  0.00     0.217 HD
ENDBRANCH  16  17
ENDBRANCH   6  11
BRANCH   8  19
ATOM     19  C   UNL d   1      28.031 -14.962  -1.768  0.00  0.00     0.008 A 
ATOM     20  C   UNL d   1      28.549 -15.497  -2.961  0.00  0.00     0.012 A 
ATOM     21  C   UNL d   1      29.430 -16.579  -2.925  0.00  0.00     0.001 A 
ATOM     22  C   UNL d   1      29.813 -17.133  -1.703  0.00  0.00     0.003 A 
ATOM     23  C   UNL d   1      29.308 -16.613  -0.513  0.00  0.00     0.043 A 
ATOM     24  C   UNL d   1      28.421 -15.545  -0.556  0.00  0.00     0.125 A 
ATOM     25  F   UNL d   1      28.004 -15.013   0.604  0.00  0.00    -0.205 F 
ENDBRANCH   8  19
BRANCH   9  26
ATOM     26  C   UNL d   1      28.992 -11.880  -2.086  0.00  0.00     0.129 C 
BRANCH  26  27
ATOM     27  C   UNL d   1      28.873 -10.926  -0.899  0.00  0.00     0.046 C 
BRANCH  27  28
ATOM     28  C   UNL d   1      27.582 -10.133  -0.870  0.00  0.00     0.165 C 
BRANCH  28  29
ATOM     29  O   UNL d   1      27.516  -9.301  -2.024  0.00  0.00    -0.401 OA
ATOM     30  H   UNL d   1      26.962  -9.747  -2.687  0.00  0.00     0.209 HD
ENDBRANCH  28  29
ENDBRANCH  27  28
ENDBRANCH  26  27
ENDBRANCH   9  26
TORSDOF 7
ENDMDL
