MODEL 1
REMARK VINA RESULT:    -8.263      0.000      0.000
REMARK INTER + INTRA:         -12.160
REMARK INTER:                 -10.947
REMARK INTRA:                  -1.213
REMARK CONF_INDEPENDENT:        2.685
REMARK UNBOUND:                -1.213
REMARK  9 active torsions:
REMARK  status: ('A' for Active; 'I' for Inactive)
REMARK    1  A    between atoms: O_2  and  C_3 
REMARK    2  A    between atoms: C_7  and  C_8 
REMARK    3  A    between atoms: N_9  and  N_10 
REMARK       I    between atoms: N_10  and  C_11 
REMARK    4  A    between atoms: C_11  and  C_13 
REMARK    5  A    between atoms: C_15  and  C_16 
REMARK    6  A    between atoms: C_19  and  O_20 
REMARK    7  A    between atoms: O_20  and  C_21 
REMARK    8  A    between atoms: C_21  and  C_22 
REMARK    9  A    between atoms: C_33  and  O_34 
ROOT
ATOM      1  C   UNL d   1      28.910 -14.822   1.546  0.00  0.00     0.121 A 
ATOM      2  C   UNL d   1      27.749 -15.565   1.623  0.00  0.00     0.071 A 
ATOM      3  C   UNL d   1      27.408 -15.919   0.287  0.00  0.00     0.089 A 
ATOM      4  N   UNL d   1      28.318 -15.441  -0.572  0.00  0.00    -0.174 NA
ATOM      5  N   UNL d   1      29.168 -14.732   0.201  0.00  0.00    -0.272 N 
ATOM      6  H   UNL d   1      29.926 -14.228  -0.253  0.00  0.00     0.189 HD
ENDROOT
BRANCH   1   7
ATOM      7  C   UNL d   1      29.697 -14.155   2.558  0.00  0.00     0.289 C 
ATOM      8  N   UNL d   1      29.330 -14.405   3.884  0.00  0.00    -0.242 N 
ATOM      9  H   UNL d   1      28.611 -15.087   4.100  0.00  0.00     0.192 HD
ATOM     10  O   UNL d   1      30.652 -13.434   2.250  0.00  0.00    -0.264 OA
BRANCH   8  11
ATOM     11  N   UNL d   1      30.024 -13.798   4.899  0.00  0.00    -0.183 NA
ATOM     12  C   UNL d   1      29.552 -13.824   6.110  0.00  0.00     0.153 C 
BRANCH  12  13
ATOM     13  C   UNL d   1      30.293 -13.144   7.220  0.00  0.00     0.019 A 
ATOM     14  C   UNL d   1      31.070 -12.009   6.943  0.00  0.00     0.016 A 
ATOM     15  C   UNL d   1      31.766 -11.364   7.972  0.00  0.00     0.004 A 
ATOM     16  C   UNL d   1      31.698 -11.854   9.277  0.00  0.00     0.040 A 
ATOM     17  C   UNL d   1      30.938 -12.993   9.573  0.00  0.00     0.102 A 
ATOM     18  C   UNL d   1      30.228 -13.632   8.540  0.00  0.00     0.110 A 
BRANCH  17  19
ATOM     19  O   UNL d   1      30.993 -13.352  10.898  0.00  0.00    -0.353 OA
ATOM     20  C   UNL d   1      30.304 -12.513  11.819  0.00  0.00     0.210 C 
ENDBRANCH  17  19
BRANCH  18  21
ATOM     21  O   UNL d   1      29.466 -14.735   8.830  0.00  0.00    -0.357 OA
ATOM     22  H   UNL d   1      30.032 -15.538   8.861  0.00  0.00     0.217 HD
ENDBRANCH  18  21
ENDBRANCH  12  13
ENDBRANCH   8  11
ENDBRANCH   1   7
BRANCH   3  23
ATOM     23  C   UNL d   1      26.247 -16.699  -0.139  0.00  0.00    -0.005 A 
ATOM     24  C   UNL d   1      25.487 -16.286  -1.240  0.00  0.00     0.016 A 
ATOM     25  C   UNL d   1      24.337 -16.989  -1.623  0.00  0.00     0.037 A 
ATOM     26  C   UNL d   1      23.929 -18.114  -0.907  0.00  0.00     0.069 A 
ATOM     27  C   UNL d   1      24.683 -18.527   0.196  0.00  0.00     0.037 A 
ATOM     28  C   UNL d   1      25.840 -17.831   0.574  0.00  0.00     0.016 A 
BRANCH  26  29
ATOM     29  O   UNL d   1      22.829 -18.876  -1.185  0.00  0.00    -0.347 OA
BRANCH  29  30
ATOM     30  C   UNL d   1      21.573 -18.196  -1.268  0.00  0.00     0.214 C 
BRANCH  30  31
ATOM     31  C   UNL d   1      20.551 -19.035  -0.546  0.00  0.00    -0.034 A 
ATOM     32  C   UNL d   1      20.854 -19.609   0.695  0.00  0.00     0.010 A 
ATOM     33  C   UNL d   1      19.960 -20.494   1.298  0.00  0.00     0.007 A 
ATOM     34  C   UNL d   1      18.715 -20.751   0.714  0.00  0.00    -0.062 A 
ATOM     35  C   UNL d   1      17.700 -21.595   1.423  0.00  0.00     0.048 C 
ATOM     36  C   UNL d   1      18.405 -20.168  -0.520  0.00  0.00     0.007 A 
ATOM     37  C   UNL d   1      19.319 -19.322  -1.148  0.00  0.00     0.010 A 
ENDBRANCH  30  31
ENDBRANCH  29  30
ENDBRANCH  26  29
ENDBRANCH   3  23
TORSDOF 9
ENDMDL
MODEL 2
REMARK VINA RESULT:    -8.165      1.347      2.133
REMARK INTER + INTRA:         -12.660
REMARK INTER:                 -10.849
REMARK INTRA:                  -1.811
REMARK CONF_INDEPENDENT:        2.685
REMARK UNBOUND:                -1.811
REMARK  9 active torsions:
REMARK  status: ('A' for Active; 'I' for Inactive)
REMARK    1  A    between atoms: O_2  and  C_3 
REMARK    2  A    between atoms: C_7  and  C_8 
REMARK    3  A    between atoms: N_9  and  N_10 
REMARK       I    between atoms: N_10  and  C_11 
REMARK    4  A    between atoms: C_11  and  C_13 
REMARK    5  A    between atoms: C_15  and  C_16 
REMARK    6  A    between atoms: C_19  and  O_20 
REMARK    7  A    between atoms: O_20  and  C_21 
REMARK    8  A    between atoms: C_21  and  C_22 
REMARK    9  A    between atoms: C_33  and  O_34 
ROOT
ATOM      1  C   UNL d   1      28.986 -14.683   1.503  0.00  0.00     0.121 A 
ATOM      2  C   UNL d   1      27.783 -15.354   1.604  0.00  0.00     0.071 A 
ATOM      3  C   UNL d   1      27.452 -15.787   0.289  0.00  0.00     0.089 A 
ATOM      4  N   UNL d   1      28.405 -15.424  -0.579  0.00  0.00    -0.174 NA
ATOM      5  N   UNL d   1      29.277 -14.706   0.162  0.00  0.00    -0.272 N 
ATOM      6  H   UNL d   1      30.071 -14.279  -0.308  0.00  0.00     0.189 HD
ENDROOT
BRANCH   1   7
ATOM      7  C   UNL d   1      29.786 -13.987   2.484  0.00  0.00     0.289 C 
ATOM      8  N   UNL d   1      29.676 -14.443   3.801  0.00  0.00    -0.242 N 
ATOM      9  H   UNL d   1      29.132 -15.272   4.015  0.00  0.00     0.192 HD
ATOM     10  O   UNL d   1      30.539 -13.064   2.152  0.00  0.00    -0.264 OA
BRANCH   8  11
ATOM     11  N   UNL d   1      30.398 -13.823   4.789  0.00  0.00    -0.183 NA
ATOM     12  C   UNL d   1      29.874 -13.661   5.967  0.00  0.00     0.153 C 
BRANCH  12  13
ATOM     13  C   UNL d   1      30.648 -12.965   7.045  0.00  0.00     0.019 A 
ATOM     14  C   UNL d   1      30.330 -13.204   8.391  0.00  0.00     0.016 A 
ATOM     15  C   UNL d   1      31.046 -12.562   9.407  0.00  0.00     0.004 A 
ATOM     16  C   UNL d   1      32.072 -11.672   9.085  0.00  0.00     0.040 A 
ATOM     17  C   UNL d   1      32.396 -11.410   7.748  0.00  0.00     0.102 A 
ATOM     18  C   UNL d   1      31.685 -12.067   6.728  0.00  0.00     0.110 A 
BRANCH  17  19
ATOM     19  O   UNL d   1      33.415 -10.500   7.606  0.00  0.00    -0.353 OA
ATOM     20  C   UNL d   1      33.264  -9.255   8.280  0.00  0.00     0.210 C 
ENDBRANCH  17  19
BRANCH  18  21
ATOM     21  O   UNL d   1      32.014 -11.829   5.418  0.00  0.00    -0.357 OA
ATOM     22  H   UNL d   1      31.878 -12.641   4.882  0.00  0.00     0.217 HD
ENDBRANCH  18  21
ENDBRANCH  12  13
ENDBRANCH   8  11
ENDBRANCH   1   7
BRANCH   3  23
ATOM     23  C   UNL d   1      26.259 -16.533  -0.109  0.00  0.00    -0.005 A 
ATOM     24  C   UNL d   1      26.109 -17.874   0.265  0.00  0.00     0.016 A 
ATOM     25  C   UNL d   1      25.001 -18.619  -0.161  0.00  0.00     0.037 A 
ATOM     26  C   UNL d   1      24.028 -18.032  -0.969  0.00  0.00     0.069 A 
ATOM     27  C   UNL d   1      24.176 -16.694  -1.348  0.00  0.00     0.037 A 
ATOM     28  C   UNL d   1      25.279 -15.945  -0.914  0.00  0.00     0.016 A 
BRANCH  26  29
ATOM     29  O   UNL d   1      22.909 -18.657  -1.444  0.00  0.00    -0.347 OA
BRANCH  29  30
ATOM     30  C   UNL d   1      21.659 -17.990  -1.246  0.00  0.00     0.214 C 
BRANCH  30  31
ATOM     31  C   UNL d   1      20.722 -18.964  -0.580  0.00  0.00    -0.034 A 
ATOM     32  C   UNL d   1      19.518 -19.324  -1.197  0.00  0.00     0.010 A 
ATOM     33  C   UNL d   1      18.591 -20.118  -0.522  0.00  0.00     0.007 A 
ATOM     34  C   UNL d   1      18.889 -20.635   0.743  0.00  0.00    -0.062 A 
ATOM     35  C   UNL d   1      17.954 -21.594   1.415  0.00  0.00     0.048 C 
ATOM     36  C   UNL d   1      20.098 -20.287   1.357  0.00  0.00     0.007 A 
ATOM     37  C   UNL d   1      21.004 -19.453   0.702  0.00  0.00     0.010 A 
ENDBRANCH  30  31
ENDBRANCH  29  30
ENDBRANCH  26  29
ENDBRANCH   3  23
TORSDOF 9
ENDMDL
MODEL 3
REMARK VINA RESULT:    -7.919      6.520     11.937
REMARK INTER + INTRA:         -12.302
REMARK INTER:                 -10.604
REMARK INTRA:                  -1.698
REMARK CONF_INDEPENDENT:        2.685
REMARK UNBOUND:                -1.698
REMARK  9 active torsions:
REMARK  status: ('A' for Active; 'I' for Inactive)
REMARK    1  A    between atoms: O_2  and  C_3 
REMARK    2  A    between atoms: C_7  and  C_8 
REMARK    3  A    between atoms: N_9  and  N_10 
REMARK       I    between atoms: N_10  and  C_11 
REMARK    4  A    between atoms: C_11  and  C_13 
REMARK    5  A    between atoms: C_15  and  C_16 
REMARK    6  A    between atoms: C_19  and  O_20 
REMARK    7  A    between atoms: O_20  and  C_21 
REMARK    8  A    between atoms: C_21  and  C_22 
REMARK    9  A    between atoms: C_33  and  O_34 
ROOT
ATOM      1  C   UNL d   1      27.094 -17.304  -0.896  0.00  0.00     0.121 A 
ATOM      2  C   UNL d   1      27.137 -16.529  -2.038  0.00  0.00     0.071 A 
ATOM      3  C   UNL d   1      28.511 -16.263  -2.294  0.00  0.00     0.089 A 
ATOM      4  N   UNL d   1      29.283 -16.857  -1.374  0.00  0.00    -0.174 NA
ATOM      5  N   UNL d   1      28.408 -17.416  -0.512  0.00  0.00    -0.272 N 
ATOM      6  H   UNL d   1      28.775 -17.887   0.312  0.00  0.00     0.189 HD
ENDROOT
BRANCH   1   7
ATOM      7  C   UNL d   1      25.989 -17.836  -0.133  0.00  0.00     0.289 C 
ATOM      8  N   UNL d   1      24.768 -17.932  -0.807  0.00  0.00    -0.242 N 
ATOM      9  H   UNL d   1      24.709 -17.722  -1.797  0.00  0.00     0.192 HD
ATOM     10  O   UNL d   1      26.142 -18.206   1.037  0.00  0.00    -0.264 OA
BRANCH   8  11
ATOM     11  N   UNL d   1      23.671 -18.419  -0.143  0.00  0.00    -0.183 NA
ATOM     12  C   UNL d   1      22.537 -18.532  -0.767  0.00  0.00     0.153 C 
BRANCH  12  13
ATOM     13  C   UNL d   1      21.328 -19.041  -0.043  0.00  0.00     0.019 A 
ATOM     14  C   UNL d   1      21.267 -18.950   1.356  0.00  0.00     0.016 A 
ATOM     15  C   UNL d   1      20.142 -19.421   2.043  0.00  0.00     0.004 A 
ATOM     16  C   UNL d   1      19.081 -19.993   1.340  0.00  0.00     0.040 A 
ATOM     17  C   UNL d   1      19.127 -20.104  -0.055  0.00  0.00     0.102 A 
ATOM     18  C   UNL d   1      20.252 -19.617  -0.746  0.00  0.00     0.110 A 
BRANCH  17  19
ATOM     19  O   UNL d   1      18.012 -20.704  -0.588  0.00  0.00    -0.353 OA
ATOM     20  C   UNL d   1      17.280 -21.575   0.268  0.00  0.00     0.210 C 
ENDBRANCH  17  19
BRANCH  18  21
ATOM     21  O   UNL d   1      20.290 -19.706  -2.114  0.00  0.00    -0.357 OA
ATOM     22  H   UNL d   1      19.399 -19.530  -2.489  0.00  0.00     0.217 HD
ENDBRANCH  18  21
ENDBRANCH  12  13
ENDBRANCH   8  11
ENDBRANCH   1   7
BRANCH   3  23
ATOM     23  C   UNL d   1      29.056 -15.470  -3.395  0.00  0.00    -0.005 A 
ATOM     24  C   UNL d   1      28.487 -15.553  -4.671  0.00  0.00     0.016 A 
ATOM     25  C   UNL d   1      29.037 -14.845  -5.749  0.00  0.00     0.037 A 
ATOM     26  C   UNL d   1      30.165 -14.047  -5.565  0.00  0.00     0.069 A 
ATOM     27  C   UNL d   1      30.738 -13.965  -4.292  0.00  0.00     0.037 A 
ATOM     28  C   UNL d   1      30.184 -14.663  -3.210  0.00  0.00     0.016 A 
BRANCH  26  29
ATOM     29  O   UNL d   1      30.787 -13.315  -6.538  0.00  0.00    -0.347 OA
BRANCH  29  30
ATOM     30  C   UNL d   1      32.059 -13.786  -6.991  0.00  0.00     0.214 C 
BRANCH  30  31
ATOM     31  C   UNL d   1      32.062 -15.287  -6.865  0.00  0.00    -0.034 A 
ATOM     32  C   UNL d   1      31.199 -16.065  -7.647  0.00  0.00     0.010 A 
ATOM     33  C   UNL d   1      31.105 -17.440  -7.434  0.00  0.00     0.007 A 
ATOM     34  C   UNL d   1      31.933 -18.071  -6.500  0.00  0.00    -0.062 A 
ATOM     35  C   UNL d   1      31.929 -19.563  -6.363  0.00  0.00     0.048 C 
ATOM     36  C   UNL d   1      32.805 -17.297  -5.727  0.00  0.00     0.007 A 
ATOM     37  C   UNL d   1      32.864 -15.914  -5.904  0.00  0.00     0.010 A 
ENDBRANCH  30  31
ENDBRANCH  29  30
ENDBRANCH  26  29
ENDBRANCH   3  23
TORSDOF 9
ENDMDL
MODEL 4
REMARK VINA RESULT:    -7.916      7.305     11.837
REMARK INTER + INTRA:         -12.413
REMARK INTER:                 -10.601
REMARK INTRA:                  -1.812
REMARK CONF_INDEPENDENT:        2.685
REMARK UNBOUND:                -1.812
REMARK  9 active torsions:
REMARK  status: ('A' for Active; 'I' for Inactive)
REMARK    1  A    between atoms: O_2  and  C_3 
REMARK    2  A    between atoms: C_7  and  C_8 
REMARK    3  A    between atoms: N_9  and  N_10 
REMARK       I    between atoms: N_10  and  C_11 
REMARK    4  A    between atoms: C_11  and  C_13 
REMARK    5  A    between atoms: C_15  and  C_16 
REMARK    6  A    between atoms: C_19  and  O_20 
REMARK    7  A    between atoms: O_20  and  C_21 
REMARK    8  A    between atoms: C_21  and  C_22 
REMARK    9  A    between atoms: C_33  and  O_34 
ROOT
ATOM      1  C   UNL d   1      25.054 -16.841  -1.553  0.00  0.00     0.121 A 
ATOM      2  C   UNL d   1      24.889 -15.763  -2.400  0.00  0.00     0.071 A 
ATOM      3  C   UNL d   1      26.191 -15.390  -2.837  0.00  0.00     0.089 A 
ATOM      4  N   UNL d   1      27.114 -16.204  -2.308  0.00  0.00    -0.174 NA
ATOM      5  N   UNL d   1      26.414 -17.019  -1.491  0.00  0.00    -0.272 N 
ATOM      6  H   UNL d   1      26.926 -17.700  -0.935  0.00  0.00     0.189 HD
ENDROOT
BRANCH   1   7
ATOM      7  C   UNL d   1      24.110 -17.609  -0.775  0.00  0.00     0.289 C 
ATOM      8  N   UNL d   1      23.106 -18.260  -1.497  0.00  0.00    -0.242 N 
ATOM      9  H   UNL d   1      23.114 -18.254  -2.512  0.00  0.00     0.192 HD
ATOM     10  O   UNL d   1      24.220 -17.697   0.453  0.00  0.00    -0.264 OA
BRANCH   8  11
ATOM     11  N   UNL d   1      22.167 -19.000  -0.825  0.00  0.00    -0.183 NA
ATOM     12  C   UNL d   1      20.914 -18.659  -0.882  0.00  0.00     0.153 C 
BRANCH  12  13
ATOM     13  C   UNL d   1      19.885 -19.448  -0.132  0.00  0.00     0.019 A 
ATOM     14  C   UNL d   1      18.849 -20.083  -0.836  0.00  0.00     0.016 A 
ATOM     15  C   UNL d   1      17.882 -20.824  -0.147  0.00  0.00     0.004 A 
ATOM     16  C   UNL d   1      17.938 -20.926   1.244  0.00  0.00     0.040 A 
ATOM     17  C   UNL d   1      18.957 -20.291   1.965  0.00  0.00     0.102 A 
ATOM     18  C   UNL d   1      19.936 -19.558   1.270  0.00  0.00     0.110 A 
BRANCH  17  19
ATOM     19  O   UNL d   1      18.856 -20.477   3.323  0.00  0.00    -0.353 OA
ATOM     20  C   UNL d   1      20.051 -20.825   4.015  0.00  0.00     0.210 C 
ENDBRANCH  17  19
BRANCH  18  21
ATOM     21  O   UNL d   1      20.946 -18.952   1.973  0.00  0.00    -0.357 OA
ATOM     22  H   UNL d   1      21.776 -18.960   1.446  0.00  0.00     0.217 HD
ENDBRANCH  18  21
ENDBRANCH  12  13
ENDBRANCH   8  11
ENDBRANCH   1   7
BRANCH   3  23
ATOM     23  C   UNL d   1      26.526 -14.291  -3.741  0.00  0.00    -0.005 A 
ATOM     24  C   UNL d   1      25.558 -13.337  -4.079  0.00  0.00     0.016 A 
ATOM     25  C   UNL d   1      25.847 -12.313  -4.992  0.00  0.00     0.037 A 
ATOM     26  C   UNL d   1      27.108 -12.232  -5.581  0.00  0.00     0.069 A 
ATOM     27  C   UNL d   1      28.076 -13.185  -5.250  0.00  0.00     0.037 A 
ATOM     28  C   UNL d   1      27.792 -14.204  -4.329  0.00  0.00     0.016 A 
BRANCH  26  29
ATOM     29  O   UNL d   1      27.503 -11.282  -6.482  0.00  0.00    -0.347 OA
BRANCH  29  30
ATOM     30  C   UNL d   1      27.815  -9.986  -5.964  0.00  0.00     0.214 C 
BRANCH  30  31
ATOM     31  C   UNL d   1      26.517  -9.243  -5.778  0.00  0.00    -0.034 A 
ATOM     32  C   UNL d   1      25.905  -8.605  -6.862  0.00  0.00     0.010 A 
ATOM     33  C   UNL d   1      24.779  -7.806  -6.665  0.00  0.00     0.007 A 
ATOM     34  C   UNL d   1      24.197  -7.703  -5.396  0.00  0.00    -0.062 A 
ATOM     35  C   UNL d   1      22.913  -6.954  -5.205  0.00  0.00     0.048 C 
ATOM     36  C   UNL d   1      24.801  -8.350  -4.313  0.00  0.00     0.007 A 
ATOM     37  C   UNL d   1      25.956  -9.109  -4.502  0.00  0.00     0.010 A 
ENDBRANCH  30  31
ENDBRANCH  29  30
ENDBRANCH  26  29
ENDBRANCH   3  23
TORSDOF 9
ENDMDL
MODEL 5
REMARK VINA RESULT:    -7.798      7.335     12.563
REMARK INTER + INTRA:         -11.906
REMARK INTER:                 -10.483
REMARK INTRA:                  -1.424
REMARK CONF_INDEPENDENT:        2.685
REMARK UNBOUND:                -1.424
REMARK  9 active torsions:
REMARK  status: ('A' for Active; 'I' for Inactive)
REMARK    1  A    between atoms: O_2  and  C_3 
REMARK    2  A    between atoms: C_7  and  C_8 
REMARK    3  A    between atoms: N_9  and  N_10 
REMARK       I    between atoms: N_10  and  C_11 
REMARK    4  A    between atoms: C_11  and  C_13 
REMARK    5  A    between atoms: C_15  and  C_16 
REMARK    6  A    between atoms: C_19  and  O_20 
REMARK    7  A    between atoms: O_20  and  C_21 
REMARK    8  A    between atoms: C_21  and  C_22 
REMARK    9  A    between atoms: C_33  and  O_34 
ROOT
ATOM      1  C   UNL d   1      25.938 -16.250  -2.070  0.00  0.00     0.121 A 
ATOM      2  C   UNL d   1      26.094 -15.525  -3.235  0.00  0.00     0.071 A 
ATOM      3  C   UNL d   1      27.493 -15.331  -3.406  0.00  0.00     0.089 A 
ATOM      4  N   UNL d   1      28.173 -15.920  -2.413  0.00  0.00    -0.174 NA
ATOM      5  N   UNL d   1      27.216 -16.404  -1.592  0.00  0.00    -0.272 N 
ATOM      6  H   UNL d   1      27.504 -16.856  -0.729  0.00  0.00     0.189 HD
ENDROOT
BRANCH   1   7
ATOM      7  C   UNL d   1      24.760 -16.702  -1.366  0.00  0.00     0.289 C 
ATOM      8  N   UNL d   1      24.773 -18.033  -0.939  0.00  0.00    -0.242 N 
ATOM      9  H   UNL d   1      25.607 -18.600  -1.048  0.00  0.00     0.192 HD
ATOM     10  O   UNL d   1      23.820 -15.932  -1.139  0.00  0.00    -0.264 OA
BRANCH   8  11
ATOM     11  N   UNL d   1      23.685 -18.535  -0.273  0.00  0.00    -0.183 NA
ATOM     12  C   UNL d   1      22.514 -18.507  -0.836  0.00  0.00     0.153 C 
BRANCH  12  13
ATOM     13  C   UNL d   1      21.316 -19.033  -0.106  0.00  0.00     0.019 A 
ATOM     14  C   UNL d   1      21.264 -18.948   1.294  0.00  0.00     0.016 A 
ATOM     15  C   UNL d   1      20.149 -19.435   1.987  0.00  0.00     0.004 A 
ATOM     16  C   UNL d   1      19.090 -20.016   1.289  0.00  0.00     0.040 A 
ATOM     17  C   UNL d   1      19.128 -20.122  -0.108  0.00  0.00     0.102 A 
ATOM     18  C   UNL d   1      20.243 -19.619  -0.804  0.00  0.00     0.110 A 
BRANCH  17  19
ATOM     19  O   UNL d   1      18.017 -20.733  -0.635  0.00  0.00    -0.353 OA
ATOM     20  C   UNL d   1      17.277 -21.584   0.234  0.00  0.00     0.210 C 
ENDBRANCH  17  19
BRANCH  18  21
ATOM     21  O   UNL d   1      20.273 -19.702  -2.173  0.00  0.00    -0.357 OA
ATOM     22  H   UNL d   1      19.373 -19.557  -2.540  0.00  0.00     0.217 HD
ENDBRANCH  18  21
ENDBRANCH  12  13
ENDBRANCH   8  11
ENDBRANCH   1   7
BRANCH   3  23
ATOM     23  C   UNL d   1      28.147 -14.608  -4.495  0.00  0.00    -0.005 A 
ATOM     24  C   UNL d   1      28.622 -15.302  -5.615  0.00  0.00     0.016 A 
ATOM     25  C   UNL d   1      29.306 -14.630  -6.639  0.00  0.00     0.037 A 
ATOM     26  C   UNL d   1      29.525 -13.256  -6.554  0.00  0.00     0.069 A 
ATOM     27  C   UNL d   1      29.056 -12.561  -5.435  0.00  0.00     0.037 A 
ATOM     28  C   UNL d   1      28.363 -13.229  -4.415  0.00  0.00     0.016 A 
BRANCH  26  29
ATOM     29  O   UNL d   1      30.177 -12.498  -7.486  0.00  0.00    -0.347 OA
BRANCH  29  30
ATOM     30  C   UNL d   1      29.726 -12.604  -8.839  0.00  0.00     0.214 C 
BRANCH  30  31
ATOM     31  C   UNL d   1      28.849 -11.412  -9.123  0.00  0.00    -0.034 A 
ATOM     32  C   UNL d   1      27.487 -11.441  -8.799  0.00  0.00     0.010 A 
ATOM     33  C   UNL d   1      26.650 -10.394  -9.184  0.00  0.00     0.007 A 
ATOM     34  C   UNL d   1      27.174  -9.265  -9.821  0.00  0.00    -0.062 A 
ATOM     35  C   UNL d   1      26.302  -8.082 -10.116  0.00  0.00     0.048 C 
ATOM     36  C   UNL d   1      28.537  -9.228 -10.135  0.00  0.00     0.007 A 
ATOM     37  C   UNL d   1      29.366 -10.297  -9.794  0.00  0.00     0.010 A 
ENDBRANCH  30  31
ENDBRANCH  29  30
ENDBRANCH  26  29
ENDBRANCH   3  23
TORSDOF 9
ENDMDL
MODEL 6
REMARK VINA RESULT:    -7.754      6.524     11.531
REMARK INTER + INTRA:         -12.144
REMARK INTER:                 -10.438
REMARK INTRA:                  -1.706
REMARK CONF_INDEPENDENT:        2.685
REMARK UNBOUND:                -1.706
REMARK  9 active torsions:
REMARK  status: ('A' for Active; 'I' for Inactive)
REMARK    1  A    between atoms: O_2  and  C_3 
REMARK    2  A    between atoms: C_7  and  C_8 
REMARK    3  A    between atoms: N_9  and  N_10 
REMARK       I    between atoms: N_10  and  C_11 
REMARK    4  A    between atoms: C_11  and  C_13 
REMARK    5  A    between atoms: C_15  and  C_16 
REMARK    6  A    between atoms: C_19  and  O_20 
REMARK    7  A    between atoms: O_20  and  C_21 
REMARK    8  A    between atoms: C_21  and  C_22 
REMARK    9  A    between atoms: C_33  and  O_34 
ROOT
ATOM      1  C   UNL d   1      27.077 -17.317  -0.913  0.00  0.00     0.121 A 
ATOM      2  C   UNL d   1      27.118 -16.600  -2.092  0.00  0.00     0.071 A 
ATOM      3  C   UNL d   1      28.489 -16.305  -2.336  0.00  0.00     0.089 A 
ATOM      4  N   UNL d   1      29.260 -16.827  -1.374  0.00  0.00    -0.174 NA
ATOM      5  N   UNL d   1      28.385 -17.368  -0.500  0.00  0.00    -0.272 N 
ATOM      6  H   UNL d   1      28.751 -17.785   0.353  0.00  0.00     0.189 HD
ENDROOT
BRANCH   1   7
ATOM      7  C   UNL d   1      25.974 -17.844  -0.144  0.00  0.00     0.289 C 
ATOM      8  N   UNL d   1      24.781 -18.053  -0.843  0.00  0.00    -0.242 N 
ATOM      9  H   UNL d   1      24.745 -17.921  -1.849  0.00  0.00     0.192 HD
ATOM     10  O   UNL d   1      26.106 -18.117   1.055  0.00  0.00    -0.264 OA
BRANCH   8  11
ATOM     11  N   UNL d   1      23.687 -18.542  -0.177  0.00  0.00    -0.183 NA
ATOM     12  C   UNL d   1      22.522 -18.526  -0.751  0.00  0.00     0.153 C 
BRANCH  12  13
ATOM     13  C   UNL d   1      21.317 -19.038  -0.021  0.00  0.00     0.019 A 
ATOM     14  C   UNL d   1      21.265 -18.950   1.379  0.00  0.00     0.016 A 
ATOM     15  C   UNL d   1      20.145 -19.423   2.072  0.00  0.00     0.004 A 
ATOM     16  C   UNL d   1      19.080 -19.994   1.375  0.00  0.00     0.040 A 
ATOM     17  C   UNL d   1      19.117 -20.101  -0.022  0.00  0.00     0.102 A 
ATOM     18  C   UNL d   1      20.238 -19.613  -0.718  0.00  0.00     0.110 A 
BRANCH  17  19
ATOM     19  O   UNL d   1      17.999 -20.701  -0.549  0.00  0.00    -0.353 OA
ATOM     20  C   UNL d   1      17.280 -21.584   0.305  0.00  0.00     0.210 C 
ENDBRANCH  17  19
BRANCH  18  21
ATOM     21  O   UNL d   1      20.268 -19.698  -2.087  0.00  0.00    -0.357 OA
ATOM     22  H   UNL d   1      19.368 -19.553  -2.454  0.00  0.00     0.217 HD
ENDBRANCH  18  21
ENDBRANCH  12  13
ENDBRANCH   8  11
ENDBRANCH   1   7
BRANCH   3  23
ATOM     23  C   UNL d   1      29.031 -15.551  -3.466  0.00  0.00    -0.005 A 
ATOM     24  C   UNL d   1      28.492 -15.718  -4.748  0.00  0.00     0.016 A 
ATOM     25  C   UNL d   1      29.041 -15.049  -5.850  0.00  0.00     0.037 A 
ATOM     26  C   UNL d   1      30.138 -14.205  -5.685  0.00  0.00     0.069 A 
ATOM     27  C   UNL d   1      30.682 -14.038  -4.408  0.00  0.00     0.037 A 
ATOM     28  C   UNL d   1      30.128 -14.699  -3.302  0.00  0.00     0.016 A 
BRANCH  26  29
ATOM     29  O   UNL d   1      30.756 -13.504  -6.683  0.00  0.00    -0.347 OA
BRANCH  29  30
ATOM     30  C   UNL d   1      29.961 -12.552  -7.396  0.00  0.00     0.214 C 
BRANCH  30  31
ATOM     31  C   UNL d   1      28.943 -11.996  -6.435  0.00  0.00    -0.034 A 
ATOM     32  C   UNL d   1      29.349 -11.210  -5.349  0.00  0.00     0.010 A 
ATOM     33  C   UNL d   1      28.423 -10.810  -4.385  0.00  0.00     0.007 A 
ATOM     34  C   UNL d   1      27.066 -11.113  -4.537  0.00  0.00    -0.062 A 
ATOM     35  C   UNL d   1      26.052 -10.572  -3.576  0.00  0.00     0.048 C 
ATOM     36  C   UNL d   1      26.657 -11.887  -5.629  0.00  0.00     0.007 A 
ATOM     37  C   UNL d   1      27.590 -12.330  -6.566  0.00  0.00     0.010 A 
ENDBRANCH  30  31
ENDBRANCH  29  30
ENDBRANCH  26  29
ENDBRANCH   3  23
TORSDOF 9
ENDMDL
MODEL 7
REMARK VINA RESULT:    -7.671      6.808     11.753
REMARK INTER + INTRA:         -12.286
REMARK INTER:                 -10.356
REMARK INTRA:                  -1.930
REMARK CONF_INDEPENDENT:        2.685
REMARK UNBOUND:                -1.930
REMARK  9 active torsions:
REMARK  status: ('A' for Active; 'I' for Inactive)
REMARK    1  A    between atoms: O_2  and  C_3 
REMARK    2  A    between atoms: C_7  and  C_8 
REMARK    3  A    between atoms: N_9  and  N_10 
REMARK       I    between atoms: N_10  and  C_11 
REMARK    4  A    between atoms: C_11  and  C_13 
REMARK    5  A    between atoms: C_15  and  C_16 
REMARK    6  A    between atoms: C_19  and  O_20 
REMARK    7  A    between atoms: O_20  and  C_21 
REMARK    8  A    between atoms: C_21  and  C_22 
REMARK    9  A    between atoms: C_33  and  O_34 
ROOT
ATOM      1  C   UNL d   1      25.461 -16.869  -0.843  0.00  0.00     0.121 A 
ATOM      2  C   UNL d   1      25.346 -16.051  -1.950  0.00  0.00     0.071 A 
ATOM      3  C   UNL d   1      26.622 -15.452  -2.143  0.00  0.00     0.089 A 
ATOM      4  N   UNL d   1      27.490 -15.888  -1.220  0.00  0.00    -0.174 NA
ATOM      5  N   UNL d   1      26.752 -16.682  -0.415  0.00  0.00    -0.272 N 
ATOM      6  H   UNL d   1      27.200 -17.091   0.402  0.00  0.00     0.189 HD
ENDROOT
BRANCH   1   7
ATOM      7  C   UNL d   1      24.497 -17.688  -0.146  0.00  0.00     0.289 C 
ATOM      8  N   UNL d   1      23.276 -17.888  -0.797  0.00  0.00    -0.242 N 
ATOM      9  H   UNL d   1      23.133 -17.545  -1.741  0.00  0.00     0.192 HD
ATOM     10  O   UNL d   1      24.767 -18.197   0.948  0.00  0.00    -0.264 OA
BRANCH   8  11
ATOM     11  N   UNL d   1      22.307 -18.645  -0.190  0.00  0.00    -0.183 NA
ATOM     12  C   UNL d   1      21.090 -18.622  -0.644  0.00  0.00     0.153 C 
BRANCH  12  13
ATOM     13  C   UNL d   1      20.021 -19.429   0.026  0.00  0.00     0.019 A 
ATOM     14  C   UNL d   1      19.045 -20.071  -0.752  0.00  0.00     0.016 A 
ATOM     15  C   UNL d   1      18.042 -20.829  -0.138  0.00  0.00     0.004 A 
ATOM     16  C   UNL d   1      18.002 -20.941   1.253  0.00  0.00     0.040 A 
ATOM     17  C   UNL d   1      18.959 -20.297   2.048  0.00  0.00     0.102 A 
ATOM     18  C   UNL d   1      19.975 -19.547   1.429  0.00  0.00     0.110 A 
BRANCH  17  19
ATOM     19  O   UNL d   1      18.766 -20.495   3.394  0.00  0.00    -0.353 OA
ATOM     20  C   UNL d   1      19.914 -20.829   4.167  0.00  0.00     0.210 C 
ENDBRANCH  17  19
BRANCH  18  21
ATOM     21  O   UNL d   1      20.925 -18.934   2.204  0.00  0.00    -0.357 OA
ATOM     22  H   UNL d   1      21.822 -19.114   1.845  0.00  0.00     0.217 HD
ENDBRANCH  18  21
ENDBRANCH  12  13
ENDBRANCH   8  11
ENDBRANCH   1   7
BRANCH   3  23
ATOM     23  C   UNL d   1      26.989 -14.497  -3.188  0.00  0.00    -0.005 A 
ATOM     24  C   UNL d   1      26.050 -14.115  -4.154  0.00  0.00     0.016 A 
ATOM     25  C   UNL d   1      26.405 -13.249  -5.197  0.00  0.00     0.037 A 
ATOM     26  C   UNL d   1      27.705 -12.756  -5.289  0.00  0.00     0.069 A 
ATOM     27  C   UNL d   1      28.647 -13.138  -4.329  0.00  0.00     0.037 A 
ATOM     28  C   UNL d   1      28.291 -13.996  -3.279  0.00  0.00     0.016 A 
BRANCH  26  29
ATOM     29  O   UNL d   1      28.165 -11.909  -6.259  0.00  0.00    -0.347 OA
BRANCH  29  30
ATOM     30  C   UNL d   1      28.401 -12.471  -7.553  0.00  0.00     0.214 C 
BRANCH  30  31
ATOM     31  C   UNL d   1      29.482 -13.511  -7.410  0.00  0.00    -0.034 A 
ATOM     32  C   UNL d   1      30.792 -13.232  -7.817  0.00  0.00     0.010 A 
ATOM     33  C   UNL d   1      31.760 -14.236  -7.811  0.00  0.00     0.007 A 
ATOM     34  C   UNL d   1      31.457 -15.509  -7.315  0.00  0.00    -0.062 A 
ATOM     35  C   UNL d   1      32.527 -16.550  -7.183  0.00  0.00     0.048 C 
ATOM     36  C   UNL d   1      30.151 -15.786  -6.895  0.00  0.00     0.007 A 
ATOM     37  C   UNL d   1      29.170 -14.795  -6.948  0.00  0.00     0.010 A 
ENDBRANCH  30  31
ENDBRANCH  29  30
ENDBRANCH  26  29
ENDBRANCH   3  23
TORSDOF 9
ENDMDL
MODEL 8
REMARK VINA RESULT:    -7.480      8.859     12.598
REMARK INTER + INTRA:         -12.195
REMARK INTER:                 -10.165
REMARK INTRA:                  -2.031
REMARK CONF_INDEPENDENT:        2.685
REMARK UNBOUND:                -2.031
REMARK  9 active torsions:
REMARK  status: ('A' for Active; 'I' for Inactive)
REMARK    1  A    between atoms: O_2  and  C_3 
REMARK    2  A    between atoms: C_7  and  C_8 
REMARK    3  A    between atoms: N_9  and  N_10 
REMARK       I    between atoms: N_10  and  C_11 
REMARK    4  A    between atoms: C_11  and  C_13 
REMARK    5  A    between atoms: C_15  and  C_16 
REMARK    6  A    between atoms: C_19  and  O_20 
REMARK    7  A    between atoms: O_20  and  C_21 
REMARK    8  A    between atoms: C_21  and  C_22 
REMARK    9  A    between atoms: C_33  and  O_34 
ROOT
ATOM      1  C   UNL d   1      26.288 -12.279  -5.388  0.00  0.00     0.121 A 
ATOM      2  C   UNL d   1      25.530 -11.125  -5.400  0.00  0.00     0.071 A 
ATOM      3  C   UNL d   1      26.176 -10.228  -6.295  0.00  0.00     0.089 A 
ATOM      4  N   UNL d   1      27.265 -10.799  -6.828  0.00  0.00    -0.174 NA
ATOM      5  N   UNL d   1      27.346 -12.000  -6.217  0.00  0.00    -0.272 N 
ATOM      6  H   UNL d   1      28.140 -12.598  -6.432  0.00  0.00     0.189 HD
ENDROOT
BRANCH   1   7
ATOM      7  C   UNL d   1      26.159 -13.509  -4.641  0.00  0.00     0.289 C 
ATOM      8  N   UNL d   1      24.970 -13.669  -3.922  0.00  0.00    -0.242 N 
ATOM      9  H   UNL d   1      24.220 -12.991  -4.010  0.00  0.00     0.192 HD
ATOM     10  O   UNL d   1      27.047 -14.369  -4.672  0.00  0.00    -0.264 OA
BRANCH   8  11
ATOM     11  N   UNL d   1      24.782 -14.807  -3.180  0.00  0.00    -0.183 NA
ATOM     12  C   UNL d   1      25.447 -14.975  -2.076  0.00  0.00     0.153 C 
BRANCH  12  13
ATOM     13  C   UNL d   1      25.264 -16.226  -1.271  0.00  0.00     0.019 A 
ATOM     14  C   UNL d   1      26.387 -16.970  -0.882  0.00  0.00     0.016 A 
ATOM     15  C   UNL d   1      26.230 -18.139  -0.128  0.00  0.00     0.004 A 
ATOM     16  C   UNL d   1      24.953 -18.575   0.229  0.00  0.00     0.040 A 
ATOM     17  C   UNL d   1      23.818 -17.852  -0.160  0.00  0.00     0.102 A 
ATOM     18  C   UNL d   1      23.979 -16.670  -0.906  0.00  0.00     0.110 A 
BRANCH  17  19
ATOM     19  O   UNL d   1      22.642 -18.426   0.258  0.00  0.00    -0.353 OA
ATOM     20  C   UNL d   1      21.733 -18.842  -0.756  0.00  0.00     0.210 C 
ENDBRANCH  17  19
BRANCH  18  21
ATOM     21  O   UNL d   1      22.870 -15.950  -1.270  0.00  0.00    -0.357 OA
ATOM     22  H   UNL d   1      23.135 -15.170  -1.807  0.00  0.00     0.217 HD
ENDBRANCH  18  21
ENDBRANCH  12  13
ENDBRANCH   8  11
ENDBRANCH   1   7
BRANCH   3  23
ATOM     23  C   UNL d   1      25.750  -8.869  -6.629  0.00  0.00    -0.005 A 
ATOM     24  C   UNL d   1      24.763  -8.234  -5.865  0.00  0.00     0.016 A 
ATOM     25  C   UNL d   1      24.301  -6.956  -6.210  0.00  0.00     0.037 A 
ATOM     26  C   UNL d   1      24.817  -6.298  -7.325  0.00  0.00     0.069 A 
ATOM     27  C   UNL d   1      25.800  -6.932  -8.093  0.00  0.00     0.037 A 
ATOM     28  C   UNL d   1      26.271  -8.205  -7.744  0.00  0.00     0.016 A 
BRANCH  26  29
ATOM     29  O   UNL d   1      24.444  -5.056  -7.757  0.00  0.00    -0.347 OA
BRANCH  29  30
ATOM     30  C   UNL d   1      23.673  -4.992  -8.960  0.00  0.00     0.214 C 
BRANCH  30  31
ATOM     31  C   UNL d   1      22.287  -5.489  -8.641  0.00  0.00    -0.034 A 
ATOM     32  C   UNL d   1      21.728  -5.268  -7.377  0.00  0.00     0.010 A 
ATOM     33  C   UNL d   1      20.504  -5.844  -7.038  0.00  0.00     0.007 A 
ATOM     34  C   UNL d   1      19.779  -6.575  -7.985  0.00  0.00    -0.062 A 
ATOM     35  C   UNL d   1      18.405  -7.082  -7.667  0.00  0.00     0.048 C 
ATOM     36  C   UNL d   1      20.330  -6.786  -9.254  0.00  0.00     0.007 A 
ATOM     37  C   UNL d   1      21.578  -6.252  -9.576  0.00  0.00     0.010 A 
ENDBRANCH  30  31
ENDBRANCH  29  30
ENDBRANCH  26  29
ENDBRANCH   3  23
TORSDOF 9
ENDMDL
MODEL 9
REMARK VINA RESULT:    -7.205      4.876     12.582
REMARK INTER + INTRA:         -11.902
REMARK INTER:                  -9.889
REMARK INTRA:                  -2.013
REMARK CONF_INDEPENDENT:        2.685
REMARK UNBOUND:                -2.013
REMARK  9 active torsions:
REMARK  status: ('A' for Active; 'I' for Inactive)
REMARK    1  A    between atoms: O_2  and  C_3 
REMARK    2  A    between atoms: C_7  and  C_8 
REMARK    3  A    between atoms: N_9  and  N_10 
REMARK       I    between atoms: N_10  and  C_11 
REMARK    4  A    between atoms: C_11  and  C_13 
REMARK    5  A    between atoms: C_15  and  C_16 
REMARK    6  A    between atoms: C_19  and  O_20 
REMARK    7  A    between atoms: O_20  and  C_21 
REMARK    8  A    between atoms: C_21  and  C_22 
REMARK    9  A    between atoms: C_33  and  O_34 
ROOT
ATOM      1  C   UNL d   1      28.484 -13.822   3.754  0.00  0.00     0.121 A 
ATOM      2  C   UNL d   1      28.142 -13.158   4.916  0.00  0.00     0.071 A 
ATOM      3  C   UNL d   1      28.856 -13.794   5.969  0.00  0.00     0.089 A 
ATOM      4  N   UNL d   1      29.617 -14.786   5.488  0.00  0.00    -0.174 NA
ATOM      5  N   UNL d   1      29.324 -14.825   4.171  0.00  0.00    -0.272 N 
ATOM      6  H   UNL d   1      29.755 -15.549   3.601  0.00  0.00     0.189 HD
ENDROOT
BRANCH   1   7
ATOM      7  C   UNL d   1      28.045 -13.662   2.388  0.00  0.00     0.289 C 
ATOM      8  N   UNL d   1      28.373 -14.701   1.512  0.00  0.00    -0.242 N 
ATOM      9  H   UNL d   1      28.813 -15.547   1.858  0.00  0.00     0.192 HD
ATOM     10  O   UNL d   1      27.392 -12.671   2.040  0.00  0.00    -0.264 OA
BRANCH   8  11
ATOM     11  N   UNL d   1      27.999 -14.613   0.195  0.00  0.00    -0.183 NA
ATOM     12  C   UNL d   1      28.422 -15.499  -0.656  0.00  0.00     0.153 C 
BRANCH  12  13
ATOM     13  C   UNL d   1      28.036 -15.398  -2.101  0.00  0.00     0.019 A 
ATOM     14  C   UNL d   1      29.021 -15.527  -3.092  0.00  0.00     0.016 A 
ATOM     15  C   UNL d   1      28.673 -15.437  -4.445  0.00  0.00     0.004 A 
ATOM     16  C   UNL d   1      27.346 -15.207  -4.812  0.00  0.00     0.040 A 
ATOM     17  C   UNL d   1      26.350 -15.063  -3.837  0.00  0.00     0.102 A 
ATOM     18  C   UNL d   1      26.700 -15.168  -2.479  0.00  0.00     0.110 A 
BRANCH  17  19
ATOM     19  O   UNL d   1      25.105 -14.825  -4.367  0.00  0.00    -0.353 OA
ATOM     20  C   UNL d   1      24.405 -13.686  -3.877  0.00  0.00     0.210 C 
ENDBRANCH  17  19
BRANCH  18  21
ATOM     21  O   UNL d   1      25.723 -15.049  -1.523  0.00  0.00    -0.357 OA
ATOM     22  H   UNL d   1      26.123 -14.801  -0.660  0.00  0.00     0.217 HD
ENDBRANCH  18  21
ENDBRANCH  12  13
ENDBRANCH   8  11
ENDBRANCH   1   7
BRANCH   3  23
ATOM     23  C   UNL d   1      28.809 -13.448   7.389  0.00  0.00    -0.005 A 
ATOM     24  C   UNL d   1      28.905 -14.450   8.362  0.00  0.00     0.016 A 
ATOM     25  C   UNL d   1      28.800 -14.140   9.725  0.00  0.00     0.037 A 
ATOM     26  C   UNL d   1      28.595 -12.822  10.132  0.00  0.00     0.069 A 
ATOM     27  C   UNL d   1      28.495 -11.819   9.163  0.00  0.00     0.037 A 
ATOM     28  C   UNL d   1      28.610 -12.126   7.800  0.00  0.00     0.016 A 
BRANCH  26  29
ATOM     29  O   UNL d   1      28.477 -12.402  11.428  0.00  0.00    -0.347 OA
BRANCH  29  30
ATOM     30  C   UNL d   1      29.664 -11.922  12.066  0.00  0.00     0.214 C 
BRANCH  30  31
ATOM     31  C   UNL d   1      30.792 -12.845  11.684  0.00  0.00    -0.034 A 
ATOM     32  C   UNL d   1      31.749 -12.442  10.746  0.00  0.00     0.010 A 
ATOM     33  C   UNL d   1      32.713 -13.343  10.292  0.00  0.00     0.007 A 
ATOM     34  C   UNL d   1      32.788 -14.631  10.833  0.00  0.00    -0.062 A 
ATOM     35  C   UNL d   1      33.902 -15.556  10.446  0.00  0.00     0.048 C 
ATOM     36  C   UNL d   1      31.840 -15.032  11.781  0.00  0.00     0.007 A 
ATOM     37  C   UNL d   1      30.846 -14.146  12.198  0.00  0.00     0.010 A 
ENDBRANCH  30  31
ENDBRANCH  29  30
ENDBRANCH  26  29
ENDBRANCH   3  23
TORSDOF 9
ENDMDL
