MODEL 1
REMARK VINA RESULT:   -10.344      0.000      0.000
REMARK INTER + INTRA:         -13.869
REMARK INTER:                 -12.730
REMARK INTRA:                  -1.139
REMARK CONF_INDEPENDENT:        2.386
REMARK UNBOUND:                -1.139
REMARK  8 active torsions:
REMARK  status: ('A' for Active; 'I' for Inactive)
REMARK    1  A    between atoms: C_2  and  C_3 
REMARK       I    between atoms: C_3  and  N_5 
REMARK    2  A    between atoms: N_5  and  C_6 
REMARK    3  A    between atoms: C_9  and  N_10 
REMARK    4  A    between atoms: N_10  and  C_11 
REMARK    5  A    between atoms: C_11  and  C_12 
REMARK       I    between atoms: C_12  and  N_14 
REMARK    6  A    between atoms: N_14  and  C_15 
REMARK    7  A    between atoms: C_18  and  N_19 
REMARK       I    between atoms: N_19  and  C_20 
REMARK    8  A    between atoms: C_20  and  C_22 
ROOT
ATOM      1  C   UNL d   1      26.188 -14.870  -4.182  0.00  0.00     0.239 C 
ATOM      2  O   UNL d   1      25.085 -14.792  -4.728  0.00  0.00    -0.271 OA
ATOM      3  N   UNL d   1      26.394 -15.370  -2.891  0.00  0.00    -0.326 N 
ATOM      4  H   UNL d   1      27.290 -15.252  -2.437  0.00  0.00     0.169 HD
ENDROOT
BRANCH   3   5
ATOM      5  C   UNL d   1      25.343 -15.946  -2.131  0.00  0.00     0.034 A 
ATOM      6  C   UNL d   1      24.079 -15.355  -2.022  0.00  0.00     0.032 A 
ATOM      7  C   UNL d   1      23.065 -15.961  -1.232  0.00  0.00     0.032 A 
ATOM      8  C   UNL d   1      23.304 -17.171  -0.562  0.00  0.00     0.035 A 
ATOM      9  C   UNL d   1      24.589 -17.704  -0.650  0.00  0.00     0.032 A 
ATOM     10  C   UNL d   1      25.583 -17.114  -1.424  0.00  0.00     0.032 A 
BRANCH   8  11
ATOM     11  N   UNL d   1      22.268 -17.844   0.151  0.00  0.00    -0.323 N 
ATOM     12  C   UNL d   1      21.423 -18.802  -0.402  0.00  0.00     0.256 C 
ATOM     13  O   UNL d   1      21.461 -19.245  -1.558  0.00  0.00    -0.267 OA
ATOM     14  H   UNL d   1      22.126 -17.583   1.119  0.00  0.00     0.169 HD
BRANCH  12  15
ATOM     15  C   UNL d   1      20.344 -19.376   0.427  0.00  0.00     0.032 A 
ATOM     16  C   UNL d   1      20.532 -19.407   1.820  0.00  0.00     0.017 A 
ATOM     17  C   UNL d   1      19.671 -20.139   2.633  0.00  0.00     0.002 A 
ATOM     18  C   UNL d   1      18.585 -20.802   2.065  0.00  0.00     0.007 A 
ATOM     19  C   UNL d   1      18.389 -20.781   0.677  0.00  0.00    -0.061 A 
ATOM     20  C   UNL d   1      17.280 -21.575   0.056  0.00  0.00     0.048 C 
ATOM     21  C   UNL d   1      19.276 -20.068  -0.146  0.00  0.00     0.023 A 
ENDBRANCH  12  15
ENDBRANCH   8  11
ENDBRANCH   3   5
BRANCH   1  22
ATOM     22  C   UNL d   1      27.445 -14.364  -4.915  0.00  0.00     0.223 C 
BRANCH  22  23
ATOM     23  N   UNL d   1      27.921 -13.108  -4.306  0.00  0.00    -0.381 N 
ATOM     24  H   UNL d   1      28.612 -13.243  -3.565  0.00  0.00     0.160 HD
BRANCH  23  25
ATOM     25  C   UNL d   1      27.169 -11.944  -4.291  0.00  0.00     0.028 A 
ATOM     26  C   UNL d   1      26.656 -11.396  -5.480  0.00  0.00     0.031 A 
ATOM     27  C   UNL d   1      25.870 -10.220  -5.480  0.00  0.00     0.032 A 
ATOM     28  C   UNL d   1      25.551  -9.595  -4.275  0.00  0.00     0.034 A 
ATOM     29  C   UNL d   1      26.015 -10.165  -3.090  0.00  0.00     0.032 A 
ATOM     30  C   UNL d   1      26.795 -11.323  -3.102  0.00  0.00     0.031 A 
BRANCH  28  31
ATOM     31  N   UNL d   1      24.736  -8.436  -4.235  0.00  0.00    -0.327 N 
ATOM     32  C   UNL d   1      24.209  -7.874  -5.391  0.00  0.00     0.221 C 
ATOM     33  O   UNL d   1      24.336  -8.366  -6.512  0.00  0.00    -0.273 OA
ATOM     34  H   UNL d   1      24.416  -8.113  -3.330  0.00  0.00     0.169 HD
BRANCH  32  35
ATOM     35  C   UNL d   1      23.406  -6.596  -5.194  0.00  0.00     0.098 C 
ATOM     36  C   UNL d   1      22.153  -6.636  -6.069  0.00  0.00     0.014 C 
ENDBRANCH  32  35
ENDBRANCH  28  31
ENDBRANCH  23  25
ENDBRANCH  22  23
ENDBRANCH   1  22
TORSDOF 8
ENDMDL
MODEL 2
REMARK VINA RESULT:   -10.295      3.507      5.863
REMARK INTER + INTRA:         -13.686
REMARK INTER:                 -12.681
REMARK INTRA:                  -1.005
REMARK CONF_INDEPENDENT:        2.386
REMARK UNBOUND:                -1.005
REMARK  8 active torsions:
REMARK  status: ('A' for Active; 'I' for Inactive)
REMARK    1  A    between atoms: C_2  and  C_3 
REMARK       I    between atoms: C_3  and  N_5 
REMARK    2  A    between atoms: N_5  and  C_6 
REMARK    3  A    between atoms: C_9  and  N_10 
REMARK    4  A    between atoms: N_10  and  C_11 
REMARK    5  A    between atoms: C_11  and  C_12 
REMARK       I    between atoms: C_12  and  N_14 
REMARK    6  A    between atoms: N_14  and  C_15 
REMARK    7  A    between atoms: C_18  and  N_19 
REMARK       I    between atoms: N_19  and  C_20 
REMARK    8  A    between atoms: C_20  and  C_22 
ROOT
ATOM      1  C   UNL d   1      26.233 -14.597  -3.230  0.00  0.00     0.239 C 
ATOM      2  O   UNL d   1      25.169 -14.602  -3.855  0.00  0.00    -0.271 OA
ATOM      3  N   UNL d   1      26.462 -15.335  -2.062  0.00  0.00    -0.326 N 
ATOM      4  H   UNL d   1      27.287 -15.159  -1.504  0.00  0.00     0.169 HD
ENDROOT
BRANCH   3   5
ATOM      5  C   UNL d   1      25.509 -16.255  -1.554  0.00  0.00     0.034 A 
ATOM      6  C   UNL d   1      25.872 -17.486  -0.995  0.00  0.00     0.032 A 
ATOM      7  C   UNL d   1      24.878 -18.382  -0.517  0.00  0.00     0.032 A 
ATOM      8  C   UNL d   1      23.518 -18.043  -0.578  0.00  0.00     0.035 A 
ATOM      9  C   UNL d   1      23.189 -16.835  -1.187  0.00  0.00     0.032 A 
ATOM     10  C   UNL d   1      24.160 -15.954  -1.654  0.00  0.00     0.032 A 
BRANCH   8  11
ATOM     11  N   UNL d   1      22.516 -18.886  -0.011  0.00  0.00    -0.323 N 
ATOM     12  C   UNL d   1      21.175 -18.878  -0.382  0.00  0.00     0.256 C 
ATOM     13  O   UNL d   1      20.656 -18.188  -1.270  0.00  0.00    -0.267 OA
ATOM     14  H   UNL d   1      22.803 -19.514   0.731  0.00  0.00     0.169 HD
BRANCH  12  15
ATOM     15  C   UNL d   1      20.224 -19.755   0.331  0.00  0.00     0.032 A 
ATOM     16  C   UNL d   1      19.076 -20.179  -0.361  0.00  0.00     0.017 A 
ATOM     17  C   UNL d   1      18.034 -20.806   0.317  0.00  0.00     0.002 A 
ATOM     18  C   UNL d   1      18.155 -21.061   1.681  0.00  0.00     0.007 A 
ATOM     19  C   UNL d   1      19.294 -20.640   2.382  0.00  0.00    -0.061 A 
ATOM     20  C   UNL d   1      19.381 -20.825   3.867  0.00  0.00     0.048 C 
ATOM     21  C   UNL d   1      20.331 -19.980   1.704  0.00  0.00     0.023 A 
ENDBRANCH  12  15
ENDBRANCH   8  11
ENDBRANCH   3   5
BRANCH   1  22
ATOM     22  C   UNL d   1      27.400 -13.712  -3.706  0.00  0.00     0.223 C 
BRANCH  22  23
ATOM     23  N   UNL d   1      27.789 -12.765  -2.643  0.00  0.00    -0.381 N 
ATOM     24  H   UNL d   1      28.276 -11.935  -2.987  0.00  0.00     0.160 HD
BRANCH  23  25
ATOM     25  C   UNL d   1      28.006 -13.152  -1.330  0.00  0.00     0.028 A 
ATOM     26  C   UNL d   1      27.115 -12.785  -0.308  0.00  0.00     0.031 A 
ATOM     27  C   UNL d   1      27.312 -13.187   1.033  0.00  0.00     0.032 A 
ATOM     28  C   UNL d   1      28.392 -14.006   1.364  0.00  0.00     0.034 A 
ATOM     29  C   UNL d   1      29.250 -14.413   0.343  0.00  0.00     0.032 A 
ATOM     30  C   UNL d   1      29.049 -14.005  -0.977  0.00  0.00     0.031 A 
BRANCH  28  31
ATOM     31  N   UNL d   1      28.600 -14.458   2.691  0.00  0.00    -0.327 N 
ATOM     32  C   UNL d   1      27.786 -14.047   3.739  0.00  0.00     0.221 C 
ATOM     33  O   UNL d   1      26.792 -13.334   3.595  0.00  0.00    -0.273 OA
ATOM     34  H   UNL d   1      29.261 -15.211   2.836  0.00  0.00     0.169 HD
BRANCH  32  35
ATOM     35  C   UNL d   1      28.172 -14.567   5.115  0.00  0.00     0.098 C 
ATOM     36  C   UNL d   1      29.637 -15.005   5.106  0.00  0.00     0.014 C 
ENDBRANCH  32  35
ENDBRANCH  28  31
ENDBRANCH  23  25
ENDBRANCH  22  23
ENDBRANCH   1  22
TORSDOF 8
ENDMDL
MODEL 3
REMARK VINA RESULT:   -10.248      3.483      6.660
REMARK INTER + INTRA:         -13.892
REMARK INTER:                 -12.634
REMARK INTRA:                  -1.257
REMARK CONF_INDEPENDENT:        2.386
REMARK UNBOUND:                -1.257
REMARK  8 active torsions:
REMARK  status: ('A' for Active; 'I' for Inactive)
REMARK    1  A    between atoms: C_2  and  C_3 
REMARK       I    between atoms: C_3  and  N_5 
REMARK    2  A    between atoms: N_5  and  C_6 
REMARK    3  A    between atoms: C_9  and  N_10 
REMARK    4  A    between atoms: N_10  and  C_11 
REMARK    5  A    between atoms: C_11  and  C_12 
REMARK       I    between atoms: C_12  and  N_14 
REMARK    6  A    between atoms: N_14  and  C_15 
REMARK    7  A    between atoms: C_18  and  N_19 
REMARK       I    between atoms: N_19  and  C_20 
REMARK    8  A    between atoms: C_20  and  C_22 
ROOT
ATOM      1  C   UNL d   1      26.255 -14.668  -3.677  0.00  0.00     0.239 C 
ATOM      2  O   UNL d   1      25.250 -14.820  -4.377  0.00  0.00    -0.271 OA
ATOM      3  N   UNL d   1      26.385 -15.153  -2.370  0.00  0.00    -0.326 N 
ATOM      4  H   UNL d   1      27.158 -14.852  -1.791  0.00  0.00     0.169 HD
ENDROOT
BRANCH   3   5
ATOM      5  C   UNL d   1      25.396 -15.974  -1.771  0.00  0.00     0.034 A 
ATOM      6  C   UNL d   1      24.042 -15.619  -1.732  0.00  0.00     0.032 A 
ATOM      7  C   UNL d   1      23.092 -16.468  -1.102  0.00  0.00     0.032 A 
ATOM      8  C   UNL d   1      23.488 -17.685  -0.525  0.00  0.00     0.035 A 
ATOM      9  C   UNL d   1      24.849 -17.981  -0.535  0.00  0.00     0.032 A 
ATOM     10  C   UNL d   1      25.781 -17.154  -1.153  0.00  0.00     0.032 A 
BRANCH   8  11
ATOM     11  N   UNL d   1      22.533 -18.594   0.020  0.00  0.00    -0.323 N 
ATOM     12  C   UNL d   1      21.201 -18.672  -0.376  0.00  0.00     0.256 C 
ATOM     13  O   UNL d   1      20.654 -18.013  -1.270  0.00  0.00    -0.267 OA
ATOM     14  H   UNL d   1      22.848 -19.206   0.764  0.00  0.00     0.169 HD
BRANCH  12  15
ATOM     15  C   UNL d   1      20.298 -19.613   0.316  0.00  0.00     0.032 A 
ATOM     16  C   UNL d   1      19.166 -20.069  -0.382  0.00  0.00     0.017 A 
ATOM     17  C   UNL d   1      18.159 -20.764   0.283  0.00  0.00     0.002 A 
ATOM     18  C   UNL d   1      18.301 -21.053   1.638  0.00  0.00     0.007 A 
ATOM     19  C   UNL d   1      19.424 -20.601   2.345  0.00  0.00    -0.061 A 
ATOM     20  C   UNL d   1      19.530 -20.825   3.823  0.00  0.00     0.048 C 
ATOM     21  C   UNL d   1      20.424 -19.873   1.681  0.00  0.00     0.023 A 
ENDBRANCH  12  15
ENDBRANCH   8  11
ENDBRANCH   3   5
BRANCH   1  22
ATOM     22  C   UNL d   1      27.455 -13.869  -4.220  0.00  0.00     0.223 C 
BRANCH  22  23
ATOM     23  N   UNL d   1      28.719 -14.551  -3.881  0.00  0.00    -0.381 N 
ATOM     24  H   UNL d   1      29.315 -14.024  -3.240  0.00  0.00     0.160 HD
BRANCH  23  25
ATOM     25  C   UNL d   1      29.320 -15.482  -4.714  0.00  0.00     0.028 A 
ATOM     26  C   UNL d   1      29.661 -15.158  -6.038  0.00  0.00     0.031 A 
ATOM     27  C   UNL d   1      30.292 -16.091  -6.895  0.00  0.00     0.032 A 
ATOM     28  C   UNL d   1      30.628 -17.358  -6.419  0.00  0.00     0.034 A 
ATOM     29  C   UNL d   1      30.336 -17.665  -5.091  0.00  0.00     0.032 A 
ATOM     30  C   UNL d   1      29.708 -16.738  -4.255  0.00  0.00     0.031 A 
BRANCH  28  31
ATOM     31  N   UNL d   1      31.292 -18.305  -7.238  0.00  0.00    -0.327 N 
ATOM     32  C   UNL d   1      30.899 -19.637  -7.282  0.00  0.00     0.221 C 
ATOM     33  O   UNL d   1      29.916 -20.081  -6.688  0.00  0.00    -0.273 OA
ATOM     34  H   UNL d   1      31.965 -17.959  -7.911  0.00  0.00     0.169 HD
BRANCH  32  35
ATOM     35  C   UNL d   1      31.748 -20.544  -8.159  0.00  0.00     0.098 C 
ATOM     36  C   UNL d   1      31.984 -19.876  -9.514  0.00  0.00     0.014 C 
ENDBRANCH  32  35
ENDBRANCH  28  31
ENDBRANCH  23  25
ENDBRANCH  22  23
ENDBRANCH   1  22
TORSDOF 8
ENDMDL
MODEL 4
REMARK VINA RESULT:   -10.122      7.788     10.801
REMARK INTER + INTRA:         -13.737
REMARK INTER:                 -12.509
REMARK INTRA:                  -1.228
REMARK CONF_INDEPENDENT:        2.386
REMARK UNBOUND:                -1.228
REMARK  8 active torsions:
REMARK  status: ('A' for Active; 'I' for Inactive)
REMARK    1  A    between atoms: C_2  and  C_3 
REMARK       I    between atoms: C_3  and  N_5 
REMARK    2  A    between atoms: N_5  and  C_6 
REMARK    3  A    between atoms: C_9  and  N_10 
REMARK    4  A    between atoms: N_10  and  C_11 
REMARK    5  A    between atoms: C_11  and  C_12 
REMARK       I    between atoms: C_12  and  N_14 
REMARK    6  A    between atoms: N_14  and  C_15 
REMARK    7  A    between atoms: C_18  and  N_19 
REMARK       I    between atoms: N_19  and  C_20 
REMARK    8  A    between atoms: C_20  and  C_22 
ROOT
ATOM      1  C   UNL d   1      27.417 -14.210   0.481  0.00  0.00     0.239 C 
ATOM      2  O   UNL d   1      26.282 -14.120   0.957  0.00  0.00    -0.271 OA
ATOM      3  N   UNL d   1      28.591 -14.219   1.242  0.00  0.00    -0.326 N 
ATOM      4  H   UNL d   1      29.491 -14.123   0.790  0.00  0.00     0.169 HD
ENDROOT
BRANCH   3   5
ATOM      5  C   UNL d   1      28.569 -14.240   2.660  0.00  0.00     0.034 A 
ATOM      6  C   UNL d   1      27.391 -14.069   3.399  0.00  0.00     0.032 A 
ATOM      7  C   UNL d   1      27.424 -14.079   4.820  0.00  0.00     0.032 A 
ATOM      8  C   UNL d   1      28.631 -14.277   5.509  0.00  0.00     0.035 A 
ATOM      9  C   UNL d   1      29.789 -14.391   4.744  0.00  0.00     0.032 A 
ATOM     10  C   UNL d   1      29.761 -14.385   3.353  0.00  0.00     0.032 A 
BRANCH   8  11
ATOM     11  N   UNL d   1      28.665 -14.391   6.931  0.00  0.00    -0.323 N 
ATOM     12  C   UNL d   1      28.531 -13.322   7.811  0.00  0.00     0.256 C 
ATOM     13  O   UNL d   1      28.323 -12.138   7.514  0.00  0.00    -0.267 OA
ATOM     14  H   UNL d   1      28.823 -15.313   7.319  0.00  0.00     0.169 HD
BRANCH  12  15
ATOM     15  C   UNL d   1      28.651 -13.565   9.263  0.00  0.00     0.032 A 
ATOM     16  C   UNL d   1      28.166 -12.576  10.137  0.00  0.00     0.017 A 
ATOM     17  C   UNL d   1      28.456 -12.632  11.498  0.00  0.00     0.002 A 
ATOM     18  C   UNL d   1      29.189 -13.703  12.002  0.00  0.00     0.007 A 
ATOM     19  C   UNL d   1      29.682 -14.693  11.140  0.00  0.00    -0.061 A 
ATOM     20  C   UNL d   1      30.554 -15.792  11.667  0.00  0.00     0.048 C 
ATOM     21  C   UNL d   1      29.415 -14.620   9.763  0.00  0.00     0.023 A 
ENDBRANCH  12  15
ENDBRANCH   8  11
ENDBRANCH   3   5
BRANCH   1  22
ATOM     22  C   UNL d   1      27.605 -14.284  -1.047  0.00  0.00     0.223 C 
BRANCH  22  23
ATOM     23  N   UNL d   1      27.289 -15.640  -1.535  0.00  0.00    -0.381 N 
ATOM     24  H   UNL d   1      27.645 -15.835  -2.473  0.00  0.00     0.160 HD
BRANCH  23  25
ATOM     25  C   UNL d   1      26.198 -16.368  -1.087  0.00  0.00     0.028 A 
ATOM     26  C   UNL d   1      26.360 -17.453  -0.208  0.00  0.00     0.031 A 
ATOM     27  C   UNL d   1      25.256 -18.194   0.273  0.00  0.00     0.032 A 
ATOM     28  C   UNL d   1      23.959 -17.829  -0.091  0.00  0.00     0.034 A 
ATOM     29  C   UNL d   1      23.793 -16.723  -0.922  0.00  0.00     0.032 A 
ATOM     30  C   UNL d   1      24.891 -16.001  -1.396  0.00  0.00     0.031 A 
BRANCH  28  31
ATOM     31  N   UNL d   1      22.828 -18.526   0.401  0.00  0.00    -0.327 N 
ATOM     32  C   UNL d   1      21.844 -19.014  -0.450  0.00  0.00     0.221 C 
ATOM     33  O   UNL d   1      21.907 -18.951  -1.678  0.00  0.00    -0.273 OA
ATOM     34  H   UNL d   1      22.828 -18.800   1.376  0.00  0.00     0.169 HD
BRANCH  32  35
ATOM     35  C   UNL d   1      20.660 -19.685   0.231  0.00  0.00     0.098 C 
ATOM     36  C   UNL d   1      19.375 -19.351  -0.527  0.00  0.00     0.014 C 
ENDBRANCH  32  35
ENDBRANCH  28  31
ENDBRANCH  23  25
ENDBRANCH  22  23
ENDBRANCH   1  22
TORSDOF 8
ENDMDL
MODEL 5
REMARK VINA RESULT:    -9.990      7.335     11.064
REMARK INTER + INTRA:         -13.574
REMARK INTER:                 -12.376
REMARK INTRA:                  -1.198
REMARK CONF_INDEPENDENT:        2.386
REMARK UNBOUND:                -1.198
REMARK  8 active torsions:
REMARK  status: ('A' for Active; 'I' for Inactive)
REMARK    1  A    between atoms: C_2  and  C_3 
REMARK       I    between atoms: C_3  and  N_5 
REMARK    2  A    between atoms: N_5  and  C_6 
REMARK    3  A    between atoms: C_9  and  N_10 
REMARK    4  A    between atoms: N_10  and  C_11 
REMARK    5  A    between atoms: C_11  and  C_12 
REMARK       I    between atoms: C_12  and  N_14 
REMARK    6  A    between atoms: N_14  and  C_15 
REMARK    7  A    between atoms: C_18  and  N_19 
REMARK       I    between atoms: N_19  and  C_20 
REMARK    8  A    between atoms: C_20  and  C_22 
ROOT
ATOM      1  C   UNL d   1      27.200 -16.094  -0.005  0.00  0.00     0.239 C 
ATOM      2  O   UNL d   1      26.759 -16.882   0.837  0.00  0.00    -0.271 OA
ATOM      3  N   UNL d   1      27.947 -14.951   0.302  0.00  0.00    -0.326 N 
ATOM      4  H   UNL d   1      28.133 -14.259  -0.411  0.00  0.00     0.169 HD
ENDROOT
BRANCH   3   5
ATOM      5  C   UNL d   1      28.365 -14.658   1.626  0.00  0.00     0.034 A 
ATOM      6  C   UNL d   1      27.462 -14.374   2.657  0.00  0.00     0.032 A 
ATOM      7  C   UNL d   1      27.932 -14.067   3.963  0.00  0.00     0.032 A 
ATOM      8  C   UNL d   1      29.306 -14.063   4.248  0.00  0.00     0.035 A 
ATOM      9  C   UNL d   1      30.177 -14.298   3.188  0.00  0.00     0.032 A 
ATOM     10  C   UNL d   1      29.721 -14.601   1.909  0.00  0.00     0.032 A 
BRANCH   8  11
ATOM     11  N   UNL d   1      29.789 -13.858   5.576  0.00  0.00    -0.323 N 
ATOM     12  C   UNL d   1      29.000 -13.451   6.648  0.00  0.00     0.256 C 
ATOM     13  O   UNL d   1      27.779 -13.249   6.635  0.00  0.00    -0.267 OA
ATOM     14  H   UNL d   1      30.779 -13.996   5.735  0.00  0.00     0.169 HD
BRANCH  12  15
ATOM     15  C   UNL d   1      29.637 -13.210   7.959  0.00  0.00     0.032 A 
ATOM     16  C   UNL d   1      30.998 -13.533   8.098  0.00  0.00     0.017 A 
ATOM     17  C   UNL d   1      31.595 -13.553   9.356  0.00  0.00     0.002 A 
ATOM     18  C   UNL d   1      30.848 -13.199  10.477  0.00  0.00     0.007 A 
ATOM     19  C   UNL d   1      29.489 -12.878  10.352  0.00  0.00    -0.061 A 
ATOM     20  C   UNL d   1      28.662 -12.594  11.569  0.00  0.00     0.048 C 
ATOM     21  C   UNL d   1      28.880 -12.889   9.086  0.00  0.00     0.023 A 
ENDBRANCH  12  15
ENDBRANCH   8  11
ENDBRANCH   3   5
BRANCH   1  22
ATOM     22  C   UNL d   1      26.904 -16.323  -1.499  0.00  0.00     0.223 C 
BRANCH  22  23
ATOM     23  N   UNL d   1      25.481 -16.058  -1.785  0.00  0.00    -0.381 N 
ATOM     24  H   UNL d   1      25.278 -15.080  -2.003  0.00  0.00     0.160 HD
BRANCH  23  25
ATOM     25  C   UNL d   1      24.453 -16.842  -1.286  0.00  0.00     0.028 A 
ATOM     26  C   UNL d   1      24.679 -18.173  -0.895  0.00  0.00     0.031 A 
ATOM     27  C   UNL d   1      23.645 -18.980  -0.366  0.00  0.00     0.032 A 
ATOM     28  C   UNL d   1      22.369 -18.447  -0.181  0.00  0.00     0.034 A 
ATOM     29  C   UNL d   1      22.155 -17.112  -0.521  0.00  0.00     0.032 A 
ATOM     30  C   UNL d   1      23.182 -16.325  -1.048  0.00  0.00     0.031 A 
BRANCH  28  31
ATOM     31  N   UNL d   1      21.319 -19.215   0.379  0.00  0.00    -0.327 N 
ATOM     32  C   UNL d   1      20.310 -19.757  -0.407  0.00  0.00     0.221 C 
ATOM     33  O   UNL d   1      20.284 -19.682  -1.636  0.00  0.00    -0.273 OA
ATOM     34  H   UNL d   1      21.402 -19.494   1.349  0.00  0.00     0.169 HD
BRANCH  32  35
ATOM     35  C   UNL d   1      19.219 -20.504   0.345  0.00  0.00     0.098 C 
ATOM     36  C   UNL d   1      19.252 -20.110   1.823  0.00  0.00     0.014 C 
ENDBRANCH  32  35
ENDBRANCH  28  31
ENDBRANCH  23  25
ENDBRANCH  22  23
ENDBRANCH   1  22
TORSDOF 8
ENDMDL
MODEL 6
REMARK VINA RESULT:    -9.902      7.792     11.110
REMARK INTER + INTRA:         -13.448
REMARK INTER:                 -12.288
REMARK INTRA:                  -1.160
REMARK CONF_INDEPENDENT:        2.386
REMARK UNBOUND:                -1.160
REMARK  8 active torsions:
REMARK  status: ('A' for Active; 'I' for Inactive)
REMARK    1  A    between atoms: C_2  and  C_3 
REMARK       I    between atoms: C_3  and  N_5 
REMARK    2  A    between atoms: N_5  and  C_6 
REMARK    3  A    between atoms: C_9  and  N_10 
REMARK    4  A    between atoms: N_10  and  C_11 
REMARK    5  A    between atoms: C_11  and  C_12 
REMARK       I    between atoms: C_12  and  N_14 
REMARK    6  A    between atoms: N_14  and  C_15 
REMARK    7  A    between atoms: C_18  and  N_19 
REMARK       I    between atoms: N_19  and  C_20 
REMARK    8  A    between atoms: C_20  and  C_22 
ROOT
ATOM      1  C   UNL d   1      27.207 -15.076   0.594  0.00  0.00     0.239 C 
ATOM      2  O   UNL d   1      27.030 -16.202   1.069  0.00  0.00    -0.271 OA
ATOM      3  N   UNL d   1      27.583 -13.956   1.344  0.00  0.00    -0.326 N 
ATOM      4  H   UNL d   1      27.546 -13.033   0.932  0.00  0.00     0.169 HD
ENDROOT
BRANCH   3   5
ATOM      5  C   UNL d   1      27.910 -14.048   2.722  0.00  0.00     0.034 A 
ATOM      6  C   UNL d   1      27.012 -13.691   3.736  0.00  0.00     0.032 A 
ATOM      7  C   UNL d   1      27.395 -13.783   5.102  0.00  0.00     0.032 A 
ATOM      8  C   UNL d   1      28.669 -14.250   5.460  0.00  0.00     0.035 A 
ATOM      9  C   UNL d   1      29.553 -14.546   4.426  0.00  0.00     0.032 A 
ATOM     10  C   UNL d   1      29.181 -14.460   3.088  0.00  0.00     0.032 A 
BRANCH   8  11
ATOM     11  N   UNL d   1      29.031 -14.444   6.827  0.00  0.00    -0.323 N 
ATOM     12  C   UNL d   1      29.976 -13.683   7.508  0.00  0.00     0.256 C 
ATOM     13  O   UNL d   1      30.606 -12.713   7.066  0.00  0.00    -0.267 OA
ATOM     14  H   UNL d   1      28.584 -15.207   7.322  0.00  0.00     0.169 HD
BRANCH  12  15
ATOM     15  C   UNL d   1      30.309 -14.030   8.905  0.00  0.00     0.032 A 
ATOM     16  C   UNL d   1      31.603 -14.511   9.171  0.00  0.00     0.017 A 
ATOM     17  C   UNL d   1      31.908 -15.072  10.409  0.00  0.00     0.002 A 
ATOM     18  C   UNL d   1      30.936 -15.109  11.406  0.00  0.00     0.007 A 
ATOM     19  C   UNL d   1      29.641 -14.636  11.151  0.00  0.00    -0.061 A 
ATOM     20  C   UNL d   1      28.568 -14.766  12.189  0.00  0.00     0.048 C 
ATOM     21  C   UNL d   1      29.326 -14.098   9.892  0.00  0.00     0.023 A 
ENDBRANCH  12  15
ENDBRANCH   8  11
ENDBRANCH   3   5
BRANCH   1  22
ATOM     22  C   UNL d   1      26.976 -14.832  -0.909  0.00  0.00     0.223 C 
BRANCH  22  23
ATOM     23  N   UNL d   1      26.455 -16.055  -1.552  0.00  0.00    -0.381 N 
ATOM     24  H   UNL d   1      26.690 -16.133  -2.543  0.00  0.00     0.160 HD
BRANCH  23  25
ATOM     25  C   UNL d   1      25.338 -16.732  -1.090  0.00  0.00     0.028 A 
ATOM     26  C   UNL d   1      24.045 -16.215  -1.282  0.00  0.00     0.031 A 
ATOM     27  C   UNL d   1      22.893 -16.902  -0.834  0.00  0.00     0.032 A 
ATOM     28  C   UNL d   1      23.020 -18.148  -0.218  0.00  0.00     0.034 A 
ATOM     29  C   UNL d   1      24.298 -18.686  -0.072  0.00  0.00     0.032 A 
ATOM     30  C   UNL d   1      25.429 -17.996  -0.513  0.00  0.00     0.031 A 
BRANCH  28  31
ATOM     31  N   UNL d   1      21.886 -18.881   0.211  0.00  0.00    -0.327 N 
ATOM     32  C   UNL d   1      20.963 -19.394  -0.693  0.00  0.00     0.221 C 
ATOM     33  O   UNL d   1      21.090 -19.325  -1.915  0.00  0.00    -0.273 OA
ATOM     34  H   UNL d   1      21.841 -19.159   1.184  0.00  0.00     0.169 HD
BRANCH  32  35
ATOM     35  C   UNL d   1      19.766 -20.104  -0.078  0.00  0.00     0.098 C 
ATOM     36  C   UNL d   1      19.823 -19.983   1.445  0.00  0.00     0.014 C 
ENDBRANCH  32  35
ENDBRANCH  28  31
ENDBRANCH  23  25
ENDBRANCH  22  23
ENDBRANCH   1  22
TORSDOF 8
ENDMDL
MODEL 7
REMARK VINA RESULT:    -9.807      0.659      1.607
REMARK INTER + INTRA:         -13.445
REMARK INTER:                 -12.193
REMARK INTRA:                  -1.252
REMARK CONF_INDEPENDENT:        2.386
REMARK UNBOUND:                -1.252
REMARK  8 active torsions:
REMARK  status: ('A' for Active; 'I' for Inactive)
REMARK    1  A    between atoms: C_2  and  C_3 
REMARK       I    between atoms: C_3  and  N_5 
REMARK    2  A    between atoms: N_5  and  C_6 
REMARK    3  A    between atoms: C_9  and  N_10 
REMARK    4  A    between atoms: N_10  and  C_11 
REMARK    5  A    between atoms: C_11  and  C_12 
REMARK       I    between atoms: C_12  and  N_14 
REMARK    6  A    between atoms: N_14  and  C_15 
REMARK    7  A    between atoms: C_18  and  N_19 
REMARK       I    between atoms: N_19  and  C_20 
REMARK    8  A    between atoms: C_20  and  C_22 
ROOT
ATOM      1  C   UNL d   1      26.481 -15.017  -3.719  0.00  0.00     0.239 C 
ATOM      2  O   UNL d   1      25.462 -15.137  -4.404  0.00  0.00    -0.271 OA
ATOM      3  N   UNL d   1      26.604 -15.477  -2.403  0.00  0.00    -0.326 N 
ATOM      4  H   UNL d   1      27.398 -15.200  -1.840  0.00  0.00     0.169 HD
ENDROOT
BRANCH   3   5
ATOM      5  C   UNL d   1      25.585 -16.237  -1.773  0.00  0.00     0.034 A 
ATOM      6  C   UNL d   1      24.264 -15.786  -1.665  0.00  0.00     0.032 A 
ATOM      7  C   UNL d   1      23.283 -16.577  -1.007  0.00  0.00     0.032 A 
ATOM      8  C   UNL d   1      23.615 -17.830  -0.471  0.00  0.00     0.035 A 
ATOM      9  C   UNL d   1      24.949 -18.224  -0.549  0.00  0.00     0.032 A 
ATOM     10  C   UNL d   1      25.910 -17.454  -1.195  0.00  0.00     0.032 A 
BRANCH   8  11
ATOM     11  N   UNL d   1      22.621 -18.680   0.102  0.00  0.00    -0.323 N 
ATOM     12  C   UNL d   1      21.298 -18.746  -0.326  0.00  0.00     0.256 C 
ATOM     13  O   UNL d   1      20.793 -18.129  -1.273  0.00  0.00    -0.267 OA
ATOM     14  H   UNL d   1      22.899 -19.253   0.889  0.00  0.00     0.169 HD
BRANCH  12  15
ATOM     15  C   UNL d   1      20.351 -19.620   0.396  0.00  0.00     0.032 A 
ATOM     16  C   UNL d   1      19.198 -20.044  -0.286  0.00  0.00     0.017 A 
ATOM     17  C   UNL d   1      18.159 -20.667   0.401  0.00  0.00     0.002 A 
ATOM     18  C   UNL d   1      18.289 -20.917   1.765  0.00  0.00     0.007 A 
ATOM     19  C   UNL d   1      19.433 -20.496   2.457  0.00  0.00    -0.061 A 
ATOM     20  C   UNL d   1      19.530 -20.676   3.942  0.00  0.00     0.048 C 
ATOM     21  C   UNL d   1      20.467 -19.840   1.769  0.00  0.00     0.023 A 
ENDBRANCH  12  15
ENDBRANCH   8  11
ENDBRANCH   3   5
BRANCH   1  22
ATOM     22  C   UNL d   1      27.710 -14.288  -4.294  0.00  0.00     0.223 C 
BRANCH  22  23
ATOM     23  N   UNL d   1      27.934 -13.018  -3.576  0.00  0.00    -0.381 N 
ATOM     24  H   UNL d   1      28.432 -13.126  -2.691  0.00  0.00     0.160 HD
BRANCH  23  25
ATOM     25  C   UNL d   1      27.119 -11.908  -3.736  0.00  0.00     0.028 A 
ATOM     26  C   UNL d   1      26.644 -11.191  -2.625  0.00  0.00     0.031 A 
ATOM     27  C   UNL d   1      25.828 -10.045  -2.771  0.00  0.00     0.032 A 
ATOM     28  C   UNL d   1      25.508  -9.575  -4.045  0.00  0.00     0.034 A 
ATOM     29  C   UNL d   1      26.020 -10.255  -5.148  0.00  0.00     0.032 A 
ATOM     30  C   UNL d   1      26.820 -11.389  -4.993  0.00  0.00     0.031 A 
BRANCH  28  31
ATOM     31  N   UNL d   1      24.722  -8.410  -4.228  0.00  0.00    -0.327 N 
ATOM     32  C   UNL d   1      23.865  -8.270  -5.312  0.00  0.00     0.221 C 
ATOM     33  O   UNL d   1      23.661  -9.156  -6.143  0.00  0.00    -0.273 OA
ATOM     34  H   UNL d   1      24.681  -7.741  -3.468  0.00  0.00     0.169 HD
BRANCH  32  35
ATOM     35  C   UNL d   1      23.136  -6.938  -5.407  0.00  0.00     0.098 C 
ATOM     36  C   UNL d   1      24.123  -5.794  -5.174  0.00  0.00     0.014 C 
ENDBRANCH  32  35
ENDBRANCH  28  31
ENDBRANCH  23  25
ENDBRANCH  22  23
ENDBRANCH   1  22
TORSDOF 8
ENDMDL
MODEL 8
REMARK VINA RESULT:    -9.532      3.359      5.155
REMARK INTER + INTRA:         -13.579
REMARK INTER:                 -11.918
REMARK INTRA:                  -1.661
REMARK CONF_INDEPENDENT:        2.386
REMARK UNBOUND:                -1.661
REMARK  8 active torsions:
REMARK  status: ('A' for Active; 'I' for Inactive)
REMARK    1  A    between atoms: C_2  and  C_3 
REMARK       I    between atoms: C_3  and  N_5 
REMARK    2  A    between atoms: N_5  and  C_6 
REMARK    3  A    between atoms: C_9  and  N_10 
REMARK    4  A    between atoms: N_10  and  C_11 
REMARK    5  A    between atoms: C_11  and  C_12 
REMARK       I    between atoms: C_12  and  N_14 
REMARK    6  A    between atoms: N_14  and  C_15 
REMARK    7  A    between atoms: C_18  and  N_19 
REMARK       I    between atoms: N_19  and  C_20 
REMARK    8  A    between atoms: C_20  and  C_22 
ROOT
ATOM      1  C   UNL d   1      26.086 -14.500  -3.440  0.00  0.00     0.239 C 
ATOM      2  O   UNL d   1      25.107 -14.697  -4.165  0.00  0.00    -0.271 OA
ATOM      3  N   UNL d   1      26.250 -15.063  -2.168  0.00  0.00    -0.326 N 
ATOM      4  H   UNL d   1      26.985 -14.733  -1.557  0.00  0.00     0.169 HD
ENDROOT
BRANCH   3   5
ATOM      5  C   UNL d   1      25.340 -16.016  -1.645  0.00  0.00     0.034 A 
ATOM      6  C   UNL d   1      25.749 -17.266  -1.161  0.00  0.00     0.032 A 
ATOM      7  C   UNL d   1      24.794 -18.194  -0.664  0.00  0.00     0.032 A 
ATOM      8  C   UNL d   1      23.429 -17.871  -0.630  0.00  0.00     0.035 A 
ATOM      9  C   UNL d   1      23.052 -16.642  -1.167  0.00  0.00     0.032 A 
ATOM     10  C   UNL d   1      23.983 -15.730  -1.652  0.00  0.00     0.032 A 
BRANCH   8  11
ATOM     11  N   UNL d   1      22.472 -18.750  -0.041  0.00  0.00    -0.323 N 
ATOM     12  C   UNL d   1      21.125 -18.798  -0.389  0.00  0.00     0.256 C 
ATOM     13  O   UNL d   1      20.563 -18.134  -1.271  0.00  0.00    -0.267 OA
ATOM     14  H   UNL d   1      22.797 -19.362   0.698  0.00  0.00     0.169 HD
BRANCH  12  15
ATOM     15  C   UNL d   1      20.223 -19.708   0.345  0.00  0.00     0.032 A 
ATOM     16  C   UNL d   1      19.069 -20.163  -0.316  0.00  0.00     0.017 A 
ATOM     17  C   UNL d   1      18.067 -20.826   0.387  0.00  0.00     0.002 A 
ATOM     18  C   UNL d   1      18.235 -21.085   1.746  0.00  0.00     0.007 A 
ATOM     19  C   UNL d   1      19.381 -20.634   2.417  0.00  0.00    -0.061 A 
ATOM     20  C   UNL d   1      19.517 -20.825   3.897  0.00  0.00     0.048 C 
ATOM     21  C   UNL d   1      20.377 -19.938   1.713  0.00  0.00     0.023 A 
ENDBRANCH  12  15
ENDBRANCH   8  11
ENDBRANCH   3   5
BRANCH   1  22
ATOM     22  C   UNL d   1      27.208 -13.553  -3.906  0.00  0.00     0.223 C 
BRANCH  22  23
ATOM     23  N   UNL d   1      26.938 -13.076  -5.276  0.00  0.00    -0.381 N 
ATOM     24  H   UNL d   1      25.960 -13.162  -5.558  0.00  0.00     0.160 HD
BRANCH  23  25
ATOM     25  C   UNL d   1      27.904 -13.050  -6.269  0.00  0.00     0.028 A 
ATOM     26  C   UNL d   1      27.903 -12.050  -7.257  0.00  0.00     0.031 A 
ATOM     27  C   UNL d   1      28.892 -11.998  -8.266  0.00  0.00     0.032 A 
ATOM     28  C   UNL d   1      29.929 -12.932  -8.275  0.00  0.00     0.034 A 
ATOM     29  C   UNL d   1      29.961 -13.895  -7.267  0.00  0.00     0.032 A 
ATOM     30  C   UNL d   1      28.975 -13.940  -6.278  0.00  0.00     0.031 A 
BRANCH  28  31
ATOM     31  N   UNL d   1      30.956 -12.889  -9.250  0.00  0.00    -0.327 N 
ATOM     32  C   UNL d   1      32.241 -12.460  -8.938  0.00  0.00     0.221 C 
ATOM     33  O   UNL d   1      32.607 -12.162  -7.801  0.00  0.00    -0.273 OA
ATOM     34  H   UNL d   1      30.778 -13.324 -10.147  0.00  0.00     0.169 HD
BRANCH  32  35
ATOM     35  C   UNL d   1      33.217 -12.409 -10.103  0.00  0.00     0.098 C 
ATOM     36  C   UNL d   1      34.600 -12.867  -9.636  0.00  0.00     0.014 C 
ENDBRANCH  32  35
ENDBRANCH  28  31
ENDBRANCH  23  25
ENDBRANCH  22  23
ENDBRANCH   1  22
TORSDOF 8
ENDMDL
MODEL 9
REMARK VINA RESULT:    -9.358      3.646      6.800
REMARK INTER + INTRA:         -13.263
REMARK INTER:                 -11.745
REMARK INTRA:                  -1.519
REMARK CONF_INDEPENDENT:        2.386
REMARK UNBOUND:                -1.519
REMARK  8 active torsions:
REMARK  status: ('A' for Active; 'I' for Inactive)
REMARK    1  A    between atoms: C_2  and  C_3 
REMARK       I    between atoms: C_3  and  N_5 
REMARK    2  A    between atoms: N_5  and  C_6 
REMARK    3  A    between atoms: C_9  and  N_10 
REMARK    4  A    between atoms: N_10  and  C_11 
REMARK    5  A    between atoms: C_11  and  C_12 
REMARK       I    between atoms: C_12  and  N_14 
REMARK    6  A    between atoms: N_14  and  C_15 
REMARK    7  A    between atoms: C_18  and  N_19 
REMARK       I    between atoms: N_19  and  C_20 
REMARK    8  A    between atoms: C_20  and  C_22 
ROOT
ATOM      1  C   UNL d   1      26.405 -14.861  -3.777  0.00  0.00     0.239 C 
ATOM      2  O   UNL d   1      25.533 -15.234  -4.566  0.00  0.00    -0.271 OA
ATOM      3  N   UNL d   1      26.384 -15.120  -2.401  0.00  0.00    -0.326 N 
ATOM      4  H   UNL d   1      27.031 -14.646  -1.785  0.00  0.00     0.169 HD
ENDROOT
BRANCH   3   5
ATOM      5  C   UNL d   1      25.398 -15.948  -1.806  0.00  0.00     0.034 A 
ATOM      6  C   UNL d   1      24.045 -15.592  -1.753  0.00  0.00     0.032 A 
ATOM      7  C   UNL d   1      23.098 -16.448  -1.128  0.00  0.00     0.032 A 
ATOM      8  C   UNL d   1      23.497 -17.672  -0.570  0.00  0.00     0.035 A 
ATOM      9  C   UNL d   1      24.857 -17.970  -0.593  0.00  0.00     0.032 A 
ATOM     10  C   UNL d   1      25.786 -17.136  -1.207  0.00  0.00     0.032 A 
BRANCH   8  11
ATOM     11  N   UNL d   1      22.544 -18.588  -0.030  0.00  0.00    -0.323 N 
ATOM     12  C   UNL d   1      21.202 -18.637  -0.395  0.00  0.00     0.256 C 
ATOM     13  O   UNL d   1      20.642 -17.944  -1.254  0.00  0.00    -0.267 OA
ATOM     14  H   UNL d   1      22.869 -19.227   0.685  0.00  0.00     0.169 HD
BRANCH  12  15
ATOM     15  C   UNL d   1      20.304 -19.590   0.288  0.00  0.00     0.032 A 
ATOM     16  C   UNL d   1      19.180 -20.055  -0.417  0.00  0.00     0.017 A 
ATOM     17  C   UNL d   1      18.177 -20.763   0.240  0.00  0.00     0.002 A 
ATOM     18  C   UNL d   1      18.315 -21.055   1.595  0.00  0.00     0.007 A 
ATOM     19  C   UNL d   1      19.430 -20.594   2.310  0.00  0.00    -0.061 A 
ATOM     20  C   UNL d   1      19.530 -20.822   3.787  0.00  0.00     0.048 C 
ATOM     21  C   UNL d   1      20.427 -19.854   1.653  0.00  0.00     0.023 A 
ENDBRANCH  12  15
ENDBRANCH   8  11
ENDBRANCH   3   5
BRANCH   1  22
ATOM     22  C   UNL d   1      27.592 -14.021  -4.285  0.00  0.00     0.223 C 
BRANCH  22  23
ATOM     23  N   UNL d   1      28.775 -14.880  -4.487  0.00  0.00    -0.381 N 
ATOM     24  H   UNL d   1      28.884 -15.215  -5.446  0.00  0.00     0.160 HD
BRANCH  23  25
ATOM     25  C   UNL d   1      29.352 -15.620  -3.467  0.00  0.00     0.028 A 
ATOM     26  C   UNL d   1      29.909 -16.887  -3.715  0.00  0.00     0.031 A 
ATOM     27  C   UNL d   1      30.518 -17.647  -2.690  0.00  0.00     0.032 A 
ATOM     28  C   UNL d   1      30.615 -17.126  -1.399  0.00  0.00     0.034 A 
ATOM     29  C   UNL d   1      30.109 -15.849  -1.162  0.00  0.00     0.032 A 
ATOM     30  C   UNL d   1      29.504 -15.109  -2.181  0.00  0.00     0.031 A 
BRANCH  28  31
ATOM     31  N   UNL d   1      31.251 -17.844  -0.357  0.00  0.00    -0.327 N 
ATOM     32  C   UNL d   1      32.573 -17.604  -0.005  0.00  0.00     0.221 C 
ATOM     33  O   UNL d   1      33.265 -16.716  -0.504  0.00  0.00    -0.273 OA
ATOM     34  H   UNL d   1      30.674 -18.431   0.234  0.00  0.00     0.169 HD
BRANCH  32  35
ATOM     35  C   UNL d   1      33.135 -18.497   1.091  0.00  0.00     0.098 C 
ATOM     36  C   UNL d   1      32.634 -18.016   2.454  0.00  0.00     0.014 C 
ENDBRANCH  32  35
ENDBRANCH  28  31
ENDBRANCH  23  25
ENDBRANCH  22  23
ENDBRANCH   1  22
TORSDOF 8
ENDMDL
