MODEL 1
REMARK VINA RESULT:   -28.897      0.000      0.000
REMARK INTER + INTRA:         -32.218
REMARK INTER:                 -32.179
REMARK INTRA:                  -0.039
REMARK CONF_INDEPENDENT:        3.281
REMARK UNBOUND:                -0.039
REMARK  11 active torsions:
REMARK  status: ('A' for Active; 'I' for Inactive)
REMARK    1  A    between atoms: C_4  and  N_5 
REMARK    2  A    between atoms: C_8  and  C_9 
REMARK    3  A    between atoms: C_9  and  C_10 
REMARK    4  A    between atoms: C_10  and  C_11 
REMARK    5  A    between atoms: C_11  and  C_12 
REMARK    6  A    between atoms: C_12  and  C_13 
REMARK    7  A    between atoms: C_13  and  N_14 
REMARK       I    between atoms: N_14  and  C_15 
REMARK    8  A    between atoms: C_15  and  C_17 
REMARK    9  A    between atoms: C_20  and  S_21 
REMARK   10  A    between atoms: S_21  and  N_24 
REMARK   11  A    between atoms: N_24  and  C_25 
ROOT
ATOM      1  N   UNL d   1      19.529 -18.576  -1.270  0.00  0.00    -0.191 NA
ATOM      2  C   UNL d   1      19.276 -19.302  -0.394  0.00  0.00     0.105 C 
ATOM      3  C   UNL d   1      18.978 -20.182   0.680  0.00  0.00     0.115 A 
ATOM      4  C   UNL d   1      18.015 -21.203   0.731  0.00  0.00     0.164 A 
ATOM      5  N   UNL d   1      18.019 -21.827   1.906  0.00  0.00    -0.155 NA
ATOM      6  N   UNL d   1      18.983 -21.201   2.607  0.00  0.00    -0.279 N 
ATOM      7  C   UNL d   1      19.598 -20.195   1.909  0.00  0.00     0.052 A 
ATOM      8  H   UNL d   1      19.165 -21.514   3.558  0.00  0.00     0.189 HD
ENDROOT
BRANCH   4   9
ATOM      9  N   UNL d   1      17.200 -21.501  -0.283  0.00  0.00    -0.381 N 
ATOM     10  H   UNL d   1      17.059 -22.446  -0.622  0.00  0.00     0.157 HD
ATOM     11  H   UNL d   1      16.688 -20.776  -0.768  0.00  0.00     0.157 HD
ENDBRANCH   4   9
BRANCH   7  12
ATOM     12  C   UNL d   1      20.693 -19.328   2.409  0.00  0.00     0.060 C 
BRANCH  12  13
ATOM     13  C   UNL d   1      21.454 -18.605   1.314  0.00  0.00     0.006 C 
BRANCH  13  14
ATOM     14  C   UNL d   1      21.870 -19.583   0.225  0.00  0.00     0.002 C 
BRANCH  14  15
ATOM     15  C   UNL d   1      22.631 -18.850  -0.875  0.00  0.00     0.020 C 
BRANCH  15  16
ATOM     16  C   UNL d   1      23.149 -17.507  -0.379  0.00  0.00     0.123 C 
BRANCH  16  17
ATOM     17  N   UNL d   1      24.043 -16.877  -1.338  0.00  0.00    -0.357 N 
ATOM     18  C   UNL d   1      25.413 -16.891  -1.139  0.00  0.00     0.251 C 
ATOM     19  O   UNL d   1      25.940 -17.404  -0.158  0.00  0.00    -0.268 OA
ATOM     20  H   UNL d   1      23.658 -16.508  -2.197  0.00  0.00     0.162 HD
BRANCH  18  21
ATOM     21  C   UNL d   1      26.267 -16.220  -2.168  0.00  0.00     0.032 A 
ATOM     22  C   UNL d   1      25.673 -15.580  -3.265  0.00  0.00     0.018 A 
ATOM     23  C   UNL d   1      26.462 -15.124  -4.338  0.00  0.00     0.026 A 
ATOM     24  C   UNL d   1      27.864 -15.223  -4.282  0.00  0.00     0.079 A 
ATOM     25  C   UNL d   1      28.456 -15.852  -3.187  0.00  0.00     0.026 A 
ATOM     26  C   UNL d   1      27.659 -16.352  -2.138  0.00  0.00     0.018 A 
BRANCH  24  27
ATOM     27  S   UNL d   1      28.812 -14.411  -5.576  0.00  0.00     0.263 S 
ATOM     28  O   UNL d   1      28.233 -14.812  -6.839  0.00  0.00    -0.200 OA
ATOM     29  O   UNL d   1      28.860 -13.019  -5.176  0.00  0.00    -0.200 OA
BRANCH  27  30
ATOM     30  N   UNL d   1      30.383 -15.031  -5.528  0.00  0.00    -0.281 N 
ATOM     31  H   UNL d   1      31.190 -14.421  -5.538  0.00  0.00     0.179 HD
BRANCH  30  32
ATOM     32  C   UNL d   1      30.624 -16.441  -5.629  0.00  0.00     0.042 A 
ATOM     33  C   UNL d   1      30.602 -17.056  -6.890  0.00  0.00     0.033 A 
ATOM     34  C   UNL d   1      30.679 -18.454  -6.997  0.00  0.00     0.044 A 
ATOM     35  C   UNL d   1      30.863 -19.223  -5.855  0.00  0.00     0.116 A 
ATOM     36  F   UNL d   1      31.043 -20.545  -5.963  0.00  0.00    -0.206 F 
ATOM     37  C   UNL d   1      30.878 -18.630  -4.603  0.00  0.00     0.044 A 
ATOM     38  C   UNL d   1      30.738 -17.245  -4.492  0.00  0.00     0.033 A 
ENDBRANCH  30  32
ENDBRANCH  27  30
ENDBRANCH  24  27
ENDBRANCH  18  21
ENDBRANCH  16  17
ENDBRANCH  15  16
ENDBRANCH  14  15
ENDBRANCH  13  14
ENDBRANCH  12  13
ENDBRANCH   7  12
TORSDOF 11
ENDMDL
MODEL 2
REMARK VINA RESULT:   -28.637      5.173      6.683
REMARK INTER + INTRA:         -32.018
REMARK INTER:                 -31.918
REMARK INTRA:                  -0.099
REMARK CONF_INDEPENDENT:        3.281
REMARK UNBOUND:                -0.099
REMARK  11 active torsions:
REMARK  status: ('A' for Active; 'I' for Inactive)
REMARK    1  A    between atoms: C_4  and  N_5 
REMARK    2  A    between atoms: C_8  and  C_9 
REMARK    3  A    between atoms: C_9  and  C_10 
REMARK    4  A    between atoms: C_10  and  C_11 
REMARK    5  A    between atoms: C_11  and  C_12 
REMARK    6  A    between atoms: C_12  and  C_13 
REMARK    7  A    between atoms: C_13  and  N_14 
REMARK       I    between atoms: N_14  and  C_15 
REMARK    8  A    between atoms: C_15  and  C_17 
REMARK    9  A    between atoms: C_20  and  S_21 
REMARK   10  A    between atoms: S_21  and  N_24 
REMARK   11  A    between atoms: N_24  and  C_25 
ROOT
ATOM      1  N   UNL d   1      19.530 -18.576  -1.270  0.00  0.00    -0.191 NA
ATOM      2  C   UNL d   1      19.280 -19.302  -0.394  0.00  0.00     0.105 C 
ATOM      3  C   UNL d   1      18.984 -20.182   0.681  0.00  0.00     0.115 A 
ATOM      4  C   UNL d   1      18.022 -21.205   0.734  0.00  0.00     0.164 A 
ATOM      5  N   UNL d   1      18.029 -21.828   1.909  0.00  0.00    -0.155 NA
ATOM      6  N   UNL d   1      18.993 -21.200   2.609  0.00  0.00    -0.279 N 
ATOM      7  C   UNL d   1      19.606 -20.194   1.909  0.00  0.00     0.052 A 
ATOM      8  H   UNL d   1      19.177 -21.512   3.559  0.00  0.00     0.189 HD
ENDROOT
BRANCH   4   9
ATOM      9  N   UNL d   1      17.207 -21.504  -0.279  0.00  0.00    -0.381 N 
ATOM     10  H   UNL d   1      16.788 -20.803  -0.880  0.00  0.00     0.157 HD
ATOM     11  H   UNL d   1      16.963 -22.464  -0.484  0.00  0.00     0.157 HD
ENDBRANCH   4   9
BRANCH   7  12
ATOM     12  C   UNL d   1      20.701 -19.325   2.408  0.00  0.00     0.060 C 
BRANCH  12  13
ATOM     13  C   UNL d   1      21.454 -18.596   1.312  0.00  0.00     0.006 C 
BRANCH  13  14
ATOM     14  C   UNL d   1      21.890 -19.573   0.230  0.00  0.00     0.002 C 
BRANCH  14  15
ATOM     15  C   UNL d   1      22.683 -18.842  -0.849  0.00  0.00     0.020 C 
BRANCH  15  16
ATOM     16  C   UNL d   1      22.667 -17.337  -0.613  0.00  0.00     0.123 C 
BRANCH  16  17
ATOM     17  N   UNL d   1      23.967 -16.834  -0.200  0.00  0.00    -0.357 N 
ATOM     18  C   UNL d   1      24.711 -16.028  -1.044  0.00  0.00     0.251 C 
ATOM     19  O   UNL d   1      24.339 -15.716  -2.170  0.00  0.00    -0.268 OA
ATOM     20  H   UNL d   1      24.280 -17.006   0.746  0.00  0.00     0.162 HD
BRANCH  18  21
ATOM     21  C   UNL d   1      26.040 -15.551  -0.549  0.00  0.00     0.032 A 
ATOM     22  C   UNL d   1      26.823 -16.378   0.269  0.00  0.00     0.018 A 
ATOM     23  C   UNL d   1      27.973 -15.870   0.905  0.00  0.00     0.026 A 
ATOM     24  C   UNL d   1      28.402 -14.555   0.653  0.00  0.00     0.079 A 
ATOM     25  C   UNL d   1      27.628 -13.735  -0.169  0.00  0.00     0.026 A 
ATOM     26  C   UNL d   1      26.451 -14.231  -0.762  0.00  0.00     0.018 A 
BRANCH  24  27
ATOM     27  S   UNL d   1      29.999 -14.056   1.310  0.00  0.00     0.263 S 
ATOM     28  O   UNL d   1      31.008 -14.742   0.533  0.00  0.00    -0.200 OA
ATOM     29  O   UNL d   1      29.939 -12.609   1.358  0.00  0.00    -0.200 OA
BRANCH  27  30
ATOM     30  N   UNL d   1      30.109 -14.635   2.893  0.00  0.00    -0.281 N 
ATOM     31  H   UNL d   1      30.429 -15.574   3.089  0.00  0.00     0.179 HD
BRANCH  30  32
ATOM     32  C   UNL d   1      29.607 -13.869   3.996  0.00  0.00     0.042 A 
ATOM     33  C   UNL d   1      28.745 -14.476   4.922  0.00  0.00     0.033 A 
ATOM     34  C   UNL d   1      28.120 -13.708   5.917  0.00  0.00     0.044 A 
ATOM     35  C   UNL d   1      28.423 -12.357   6.035  0.00  0.00     0.116 A 
ATOM     36  F   UNL d   1      27.910 -11.645   7.047  0.00  0.00    -0.206 F 
ATOM     37  C   UNL d   1      29.265 -11.742   5.123  0.00  0.00     0.044 A 
ATOM     38  C   UNL d   1      29.837 -12.495   4.095  0.00  0.00     0.033 A 
ENDBRANCH  30  32
ENDBRANCH  27  30
ENDBRANCH  24  27
ENDBRANCH  18  21
ENDBRANCH  16  17
ENDBRANCH  15  16
ENDBRANCH  14  15
ENDBRANCH  13  14
ENDBRANCH  12  13
ENDBRANCH   7  12
TORSDOF 11
ENDMDL
MODEL 3
REMARK VINA RESULT:   -28.548      4.637      6.023
REMARK INTER + INTRA:         -31.866
REMARK INTER:                 -31.829
REMARK INTRA:                  -0.037
REMARK CONF_INDEPENDENT:        3.281
REMARK UNBOUND:                -0.037
REMARK  11 active torsions:
REMARK  status: ('A' for Active; 'I' for Inactive)
REMARK    1  A    between atoms: C_4  and  N_5 
REMARK    2  A    between atoms: C_8  and  C_9 
REMARK    3  A    between atoms: C_9  and  C_10 
REMARK    4  A    between atoms: C_10  and  C_11 
REMARK    5  A    between atoms: C_11  and  C_12 
REMARK    6  A    between atoms: C_12  and  C_13 
REMARK    7  A    between atoms: C_13  and  N_14 
REMARK       I    between atoms: N_14  and  C_15 
REMARK    8  A    between atoms: C_15  and  C_17 
REMARK    9  A    between atoms: C_20  and  S_21 
REMARK   10  A    between atoms: S_21  and  N_24 
REMARK   11  A    between atoms: N_24  and  C_25 
ROOT
ATOM      1  N   UNL d   1      19.530 -18.577  -1.270  0.00  0.00    -0.191 NA
ATOM      2  C   UNL d   1      19.283 -19.302  -0.392  0.00  0.00     0.105 C 
ATOM      3  C   UNL d   1      18.992 -20.181   0.685  0.00  0.00     0.115 A 
ATOM      4  C   UNL d   1      18.028 -21.201   0.743  0.00  0.00     0.164 A 
ATOM      5  N   UNL d   1      18.041 -21.824   1.919  0.00  0.00    -0.155 NA
ATOM      6  N   UNL d   1      19.010 -21.199   2.612  0.00  0.00    -0.279 N 
ATOM      7  C   UNL d   1      19.621 -20.195   1.909  0.00  0.00     0.052 A 
ATOM      8  H   UNL d   1      19.199 -21.512   3.561  0.00  0.00     0.189 HD
ENDROOT
BRANCH   4   9
ATOM      9  N   UNL d   1      17.205 -21.498  -0.264  0.00  0.00    -0.381 N 
ATOM     10  H   UNL d   1      16.733 -20.795  -0.820  0.00  0.00     0.157 HD
ATOM     11  H   UNL d   1      17.010 -22.460  -0.510  0.00  0.00     0.157 HD
ENDBRANCH   4   9
BRANCH   7  12
ATOM     12  C   UNL d   1      20.722 -19.329   2.401  0.00  0.00     0.060 C 
BRANCH  12  13
ATOM     13  C   UNL d   1      21.448 -18.575   1.303  0.00  0.00     0.006 C 
BRANCH  13  14
ATOM     14  C   UNL d   1      21.931 -19.540   0.230  0.00  0.00     0.002 C 
BRANCH  14  15
ATOM     15  C   UNL d   1      22.521 -18.766  -0.945  0.00  0.00     0.020 C 
BRANCH  15  16
ATOM     16  C   UNL d   1      23.965 -18.368  -0.668  0.00  0.00     0.123 C 
BRANCH  16  17
ATOM     17  N   UNL d   1      24.252 -17.009  -1.100  0.00  0.00    -0.357 N 
ATOM     18  C   UNL d   1      25.551 -16.617  -1.373  0.00  0.00     0.251 C 
ATOM     19  O   UNL d   1      26.515 -17.365  -1.249  0.00  0.00    -0.268 OA
ATOM     20  H   UNL d   1      23.481 -16.382  -1.286  0.00  0.00     0.162 HD
BRANCH  18  21
ATOM     21  C   UNL d   1      25.767 -15.203  -1.810  0.00  0.00     0.032 A 
ATOM     22  C   UNL d   1      25.247 -14.759  -3.034  0.00  0.00     0.018 A 
ATOM     23  C   UNL d   1      25.612 -13.500  -3.549  0.00  0.00     0.026 A 
ATOM     24  C   UNL d   1      26.429 -12.635  -2.801  0.00  0.00     0.079 A 
ATOM     25  C   UNL d   1      26.939 -13.073  -1.579  0.00  0.00     0.026 A 
ATOM     26  C   UNL d   1      26.613 -14.353  -1.090  0.00  0.00     0.018 A 
BRANCH  24  27
ATOM     27  S   UNL d   1      26.659 -10.961  -3.415  0.00  0.00     0.263 S 
ATOM     28  O   UNL d   1      26.323 -10.065  -2.330  0.00  0.00    -0.200 OA
ATOM     29  O   UNL d   1      27.982 -10.966  -4.006  0.00  0.00    -0.200 OA
BRANCH  27  30
ATOM     30  N   UNL d   1      25.529 -10.703  -4.644  0.00  0.00    -0.281 N 
ATOM     31  H   UNL d   1      24.995 -11.467  -5.037  0.00  0.00     0.179 HD
BRANCH  30  32
ATOM     32  C   UNL d   1      25.403  -9.422  -5.273  0.00  0.00     0.042 A 
ATOM     33  C   UNL d   1      24.465  -8.501  -4.782  0.00  0.00     0.033 A 
ATOM     34  C   UNL d   1      24.215  -7.306  -5.474  0.00  0.00     0.044 A 
ATOM     35  C   UNL d   1      24.961  -6.997  -6.605  0.00  0.00     0.116 A 
ATOM     36  F   UNL d   1      24.800  -5.812  -7.207  0.00  0.00    -0.206 F 
ATOM     37  C   UNL d   1      25.884  -7.900  -7.107  0.00  0.00     0.044 A 
ATOM     38  C   UNL d   1      26.087  -9.117  -6.452  0.00  0.00     0.033 A 
ENDBRANCH  30  32
ENDBRANCH  27  30
ENDBRANCH  24  27
ENDBRANCH  18  21
ENDBRANCH  16  17
ENDBRANCH  15  16
ENDBRANCH  14  15
ENDBRANCH  13  14
ENDBRANCH  12  13
ENDBRANCH   7  12
TORSDOF 11
ENDMDL
MODEL 4
REMARK VINA RESULT:   -28.467      3.766      5.148
REMARK INTER + INTRA:         -31.898
REMARK INTER:                 -31.748
REMARK INTRA:                  -0.150
REMARK CONF_INDEPENDENT:        3.281
REMARK UNBOUND:                -0.150
REMARK  11 active torsions:
REMARK  status: ('A' for Active; 'I' for Inactive)
REMARK    1  A    between atoms: C_4  and  N_5 
REMARK    2  A    between atoms: C_8  and  C_9 
REMARK    3  A    between atoms: C_9  and  C_10 
REMARK    4  A    between atoms: C_10  and  C_11 
REMARK    5  A    between atoms: C_11  and  C_12 
REMARK    6  A    between atoms: C_12  and  C_13 
REMARK    7  A    between atoms: C_13  and  N_14 
REMARK       I    between atoms: N_14  and  C_15 
REMARK    8  A    between atoms: C_15  and  C_17 
REMARK    9  A    between atoms: C_20  and  S_21 
REMARK   10  A    between atoms: S_21  and  N_24 
REMARK   11  A    between atoms: N_24  and  C_25 
ROOT
ATOM      1  N   UNL d   1      19.530 -18.576  -1.270  0.00  0.00    -0.191 NA
ATOM      2  C   UNL d   1      19.279 -19.302  -0.394  0.00  0.00     0.105 C 
ATOM      3  C   UNL d   1      18.983 -20.183   0.680  0.00  0.00     0.115 A 
ATOM      4  C   UNL d   1      18.025 -21.209   0.730  0.00  0.00     0.164 A 
ATOM      5  N   UNL d   1      18.030 -21.831   1.906  0.00  0.00    -0.155 NA
ATOM      6  N   UNL d   1      18.989 -21.200   2.608  0.00  0.00    -0.279 N 
ATOM      7  C   UNL d   1      19.600 -20.192   1.910  0.00  0.00     0.052 A 
ATOM      8  H   UNL d   1      19.170 -21.511   3.559  0.00  0.00     0.189 HD
ENDROOT
BRANCH   4   9
ATOM      9  N   UNL d   1      17.214 -21.512  -0.286  0.00  0.00    -0.381 N 
ATOM     10  H   UNL d   1      16.869 -22.449  -0.459  0.00  0.00     0.157 HD
ATOM     11  H   UNL d   1      16.915 -20.802  -0.942  0.00  0.00     0.157 HD
ENDBRANCH   4   9
BRANCH   7  12
ATOM     12  C   UNL d   1      20.690 -19.318   2.412  0.00  0.00     0.060 C 
BRANCH  12  13
ATOM     13  C   UNL d   1      21.435 -18.575   1.320  0.00  0.00     0.006 C 
BRANCH  13  14
ATOM     14  C   UNL d   1      21.883 -19.542   0.234  0.00  0.00     0.002 C 
BRANCH  14  15
ATOM     15  C   UNL d   1      22.855 -18.851  -0.716  0.00  0.00     0.020 C 
BRANCH  15  16
ATOM     16  C   UNL d   1      24.049 -18.284   0.041  0.00  0.00     0.123 C 
BRANCH  16  17
ATOM     17  N   UNL d   1      24.908 -17.479  -0.814  0.00  0.00    -0.357 N 
ATOM     18  C   UNL d   1      24.416 -16.348  -1.441  0.00  0.00     0.251 C 
ATOM     19  O   UNL d   1      23.252 -15.977  -1.334  0.00  0.00    -0.268 OA
ATOM     20  H   UNL d   1      25.891 -17.706  -0.872  0.00  0.00     0.162 HD
BRANCH  18  21
ATOM     21  C   UNL d   1      25.359 -15.573  -2.307  0.00  0.00     0.032 A 
ATOM     22  C   UNL d   1      25.965 -14.407  -1.817  0.00  0.00     0.018 A 
ATOM     23  C   UNL d   1      26.689 -13.564  -2.682  0.00  0.00     0.026 A 
ATOM     24  C   UNL d   1      26.892 -13.926  -4.025  0.00  0.00     0.079 A 
ATOM     25  C   UNL d   1      26.297 -15.091  -4.509  0.00  0.00     0.026 A 
ATOM     26  C   UNL d   1      25.531 -15.906  -3.654  0.00  0.00     0.018 A 
BRANCH  24  27
ATOM     27  S   UNL d   1      28.020 -12.923  -5.001  0.00  0.00     0.263 S 
ATOM     28  O   UNL d   1      28.656 -11.996  -4.091  0.00  0.00    -0.200 OA
ATOM     29  O   UNL d   1      28.793 -13.881  -5.765  0.00  0.00    -0.200 OA
BRANCH  27  30
ATOM     30  N   UNL d   1      27.094 -12.008  -6.079  0.00  0.00    -0.281 N 
ATOM     31  H   UNL d   1      27.139 -12.165  -7.077  0.00  0.00     0.179 HD
BRANCH  30  32
ATOM     32  C   UNL d   1      26.334 -10.881  -5.626  0.00  0.00     0.042 A 
ATOM     33  C   UNL d   1      25.864  -9.945  -6.560  0.00  0.00     0.033 A 
ATOM     34  C   UNL d   1      25.254  -8.757  -6.128  0.00  0.00     0.044 A 
ATOM     35  C   UNL d   1      25.040  -8.547  -4.771  0.00  0.00     0.116 A 
ATOM     36  F   UNL d   1      24.365  -7.466  -4.361  0.00  0.00    -0.206 F 
ATOM     37  C   UNL d   1      25.507  -9.458  -3.837  0.00  0.00     0.044 A 
ATOM     38  C   UNL d   1      26.169 -10.610  -4.265  0.00  0.00     0.033 A 
ENDBRANCH  30  32
ENDBRANCH  27  30
ENDBRANCH  24  27
ENDBRANCH  18  21
ENDBRANCH  16  17
ENDBRANCH  15  16
ENDBRANCH  14  15
ENDBRANCH  13  14
ENDBRANCH  12  13
ENDBRANCH   7  12
TORSDOF 11
ENDMDL
MODEL 5
REMARK VINA RESULT:   -28.379      3.574      4.232
REMARK INTER + INTRA:         -31.874
REMARK INTER:                 -31.660
REMARK INTRA:                  -0.214
REMARK CONF_INDEPENDENT:        3.281
REMARK UNBOUND:                -0.214
REMARK  11 active torsions:
REMARK  status: ('A' for Active; 'I' for Inactive)
REMARK    1  A    between atoms: C_4  and  N_5 
REMARK    2  A    between atoms: C_8  and  C_9 
REMARK    3  A    between atoms: C_9  and  C_10 
REMARK    4  A    between atoms: C_10  and  C_11 
REMARK    5  A    between atoms: C_11  and  C_12 
REMARK    6  A    between atoms: C_12  and  C_13 
REMARK    7  A    between atoms: C_13  and  N_14 
REMARK       I    between atoms: N_14  and  C_15 
REMARK    8  A    between atoms: C_15  and  C_17 
REMARK    9  A    between atoms: C_20  and  S_21 
REMARK   10  A    between atoms: S_21  and  N_24 
REMARK   11  A    between atoms: N_24  and  C_25 
ROOT
ATOM      1  N   UNL d   1      19.533 -18.608  -1.269  0.00  0.00    -0.191 NA
ATOM      2  C   UNL d   1      19.276 -19.319  -0.382  0.00  0.00     0.105 C 
ATOM      3  C   UNL d   1      18.973 -20.180   0.706  0.00  0.00     0.115 A 
ATOM      4  C   UNL d   1      17.984 -21.174   0.784  0.00  0.00     0.164 A 
ATOM      5  N   UNL d   1      17.992 -21.786   1.965  0.00  0.00    -0.155 NA
ATOM      6  N   UNL d   1      18.985 -21.180   2.642  0.00  0.00    -0.279 N 
ATOM      7  C   UNL d   1      19.614 -20.199   1.923  0.00  0.00     0.052 A 
ATOM      8  H   UNL d   1      19.175 -21.489   3.592  0.00  0.00     0.189 HD
ENDROOT
BRANCH   4   9
ATOM      9  N   UNL d   1      17.143 -21.459  -0.213  0.00  0.00    -0.381 N 
ATOM     10  H   UNL d   1      17.000 -20.848  -1.010  0.00  0.00     0.157 HD
ATOM     11  H   UNL d   1      16.597 -22.310  -0.205  0.00  0.00     0.157 HD
ENDBRANCH   4   9
BRANCH   7  12
ATOM     12  C   UNL d   1      20.742 -19.357   2.396  0.00  0.00     0.060 C 
BRANCH  12  13
ATOM     13  C   UNL d   1      21.429 -18.575   1.293  0.00  0.00     0.006 C 
BRANCH  13  14
ATOM     14  C   UNL d   1      21.967 -19.522   0.230  0.00  0.00     0.002 C 
BRANCH  14  15
ATOM     15  C   UNL d   1      22.573 -18.727  -0.923  0.00  0.00     0.020 C 
BRANCH  15  16
ATOM     16  C   UNL d   1      23.940 -18.173  -0.544  0.00  0.00     0.123 C 
BRANCH  16  17
ATOM     17  N   UNL d   1      24.248 -16.942  -1.256  0.00  0.00    -0.357 N 
ATOM     18  C   UNL d   1      25.561 -16.542  -1.435  0.00  0.00     0.251 C 
ATOM     19  O   UNL d   1      26.518 -17.172  -0.997  0.00  0.00    -0.268 OA
ATOM     20  H   UNL d   1      23.496 -16.431  -1.697  0.00  0.00     0.162 HD
BRANCH  18  21
ATOM     21  C   UNL d   1      25.799 -15.264  -2.175  0.00  0.00     0.032 A 
ATOM     22  C   UNL d   1      26.139 -14.099  -1.474  0.00  0.00     0.018 A 
ATOM     23  C   UNL d   1      26.165 -12.853  -2.130  0.00  0.00     0.026 A 
ATOM     24  C   UNL d   1      25.941 -12.775  -3.516  0.00  0.00     0.079 A 
ATOM     25  C   UNL d   1      25.613 -13.936  -4.216  0.00  0.00     0.026 A 
ATOM     26  C   UNL d   1      25.537 -15.172  -3.546  0.00  0.00     0.018 A 
BRANCH  24  27
ATOM     27  S   UNL d   1      26.223 -11.193  -4.321  0.00  0.00     0.263 S 
ATOM     28  O   UNL d   1      25.339 -10.236  -3.692  0.00  0.00    -0.200 OA
ATOM     29  O   UNL d   1      27.661 -11.020  -4.297  0.00  0.00    -0.200 OA
BRANCH  27  30
ATOM     30  N   UNL d   1      25.733 -11.340  -5.932  0.00  0.00    -0.281 N 
ATOM     31  H   UNL d   1      24.763 -11.490  -6.176  0.00  0.00     0.179 HD
BRANCH  30  32
ATOM     32  C   UNL d   1      26.695 -11.410  -6.992  0.00  0.00     0.042 A 
ATOM     33  C   UNL d   1      26.453 -10.721  -8.190  0.00  0.00     0.033 A 
ATOM     34  C   UNL d   1      27.301 -10.900  -9.294  0.00  0.00     0.044 A 
ATOM     35  C   UNL d   1      28.432 -11.698  -9.171  0.00  0.00     0.116 A 
ATOM     36  F   UNL d   1      29.298 -11.787 -10.188  0.00  0.00    -0.206 F 
ATOM     37  C   UNL d   1      28.678 -12.392  -7.998  0.00  0.00     0.044 A 
ATOM     38  C   UNL d   1      27.800 -12.262  -6.920  0.00  0.00     0.033 A 
ENDBRANCH  30  32
ENDBRANCH  27  30
ENDBRANCH  24  27
ENDBRANCH  18  21
ENDBRANCH  16  17
ENDBRANCH  15  16
ENDBRANCH  14  15
ENDBRANCH  13  14
ENDBRANCH  12  13
ENDBRANCH   7  12
TORSDOF 11
ENDMDL
MODEL 6
REMARK VINA RESULT:   -28.278      2.346      2.870
REMARK INTER + INTRA:         -31.947
REMARK INTER:                 -31.560
REMARK INTRA:                  -0.388
REMARK CONF_INDEPENDENT:        3.281
REMARK UNBOUND:                -0.388
REMARK  11 active torsions:
REMARK  status: ('A' for Active; 'I' for Inactive)
REMARK    1  A    between atoms: C_4  and  N_5 
REMARK    2  A    between atoms: C_8  and  C_9 
REMARK    3  A    between atoms: C_9  and  C_10 
REMARK    4  A    between atoms: C_10  and  C_11 
REMARK    5  A    between atoms: C_11  and  C_12 
REMARK    6  A    between atoms: C_12  and  C_13 
REMARK    7  A    between atoms: C_13  and  N_14 
REMARK       I    between atoms: N_14  and  C_15 
REMARK    8  A    between atoms: C_15  and  C_17 
REMARK    9  A    between atoms: C_20  and  S_21 
REMARK   10  A    between atoms: S_21  and  N_24 
REMARK   11  A    between atoms: N_24  and  C_25 
ROOT
ATOM      1  N   UNL d   1      19.530 -18.576  -1.270  0.00  0.00    -0.191 NA
ATOM      2  C   UNL d   1      19.282 -19.302  -0.393  0.00  0.00     0.105 C 
ATOM      3  C   UNL d   1      18.989 -20.182   0.683  0.00  0.00     0.115 A 
ATOM      4  C   UNL d   1      18.027 -21.204   0.738  0.00  0.00     0.164 A 
ATOM      5  N   UNL d   1      18.037 -21.827   1.914  0.00  0.00    -0.155 NA
ATOM      6  N   UNL d   1      19.004 -21.200   2.610  0.00  0.00    -0.279 N 
ATOM      7  C   UNL d   1      19.615 -20.194   1.908  0.00  0.00     0.052 A 
ATOM      8  H   UNL d   1      19.190 -21.513   3.560  0.00  0.00     0.189 HD
ENDROOT
BRANCH   4   9
ATOM      9  N   UNL d   1      17.208 -21.502  -0.272  0.00  0.00    -0.381 N 
ATOM     10  H   UNL d   1      16.806 -20.802  -0.885  0.00  0.00     0.157 HD
ATOM     11  H   UNL d   1      16.944 -22.460  -0.461  0.00  0.00     0.157 HD
ENDBRANCH   4   9
BRANCH   7  12
ATOM     12  C   UNL d   1      20.712 -19.326   2.404  0.00  0.00     0.060 C 
BRANCH  12  13
ATOM     13  C   UNL d   1      21.443 -18.575   1.308  0.00  0.00     0.006 C 
BRANCH  13  14
ATOM     14  C   UNL d   1      21.915 -19.539   0.230  0.00  0.00     0.002 C 
BRANCH  14  15
ATOM     15  C   UNL d   1      22.728 -18.793  -0.823  0.00  0.00     0.020 C 
BRANCH  15  16
ATOM     16  C   UNL d   1      23.823 -17.955  -0.175  0.00  0.00     0.123 C 
BRANCH  16  17
ATOM     17  N   UNL d   1      24.178 -16.798  -0.983  0.00  0.00    -0.357 N 
ATOM     18  C   UNL d   1      25.501 -16.415  -1.119  0.00  0.00     0.251 C 
ATOM     19  O   UNL d   1      26.427 -16.998  -0.566  0.00  0.00    -0.268 OA
ATOM     20  H   UNL d   1      23.456 -16.333  -1.515  0.00  0.00     0.162 HD
BRANCH  18  21
ATOM     21  C   UNL d   1      25.788 -15.214  -1.964  0.00  0.00     0.032 A 
ATOM     22  C   UNL d   1      26.661 -14.221  -1.499  0.00  0.00     0.018 A 
ATOM     23  C   UNL d   1      26.781 -12.998  -2.188  0.00  0.00     0.026 A 
ATOM     24  C   UNL d   1      26.098 -12.794  -3.399  0.00  0.00     0.079 A 
ATOM     25  C   UNL d   1      25.237 -13.786  -3.867  0.00  0.00     0.026 A 
ATOM     26  C   UNL d   1      25.080 -14.988  -3.149  0.00  0.00     0.018 A 
BRANCH  24  27
ATOM     27  S   UNL d   1      26.482 -11.309  -4.337  0.00  0.00     0.263 S 
ATOM     28  O   UNL d   1      25.633 -11.318  -5.508  0.00  0.00    -0.200 OA
ATOM     29  O   UNL d   1      26.417 -10.236  -3.366  0.00  0.00    -0.200 OA
BRANCH  27  30
ATOM     30  N   UNL d   1      28.078 -11.440  -4.877  0.00  0.00    -0.281 N 
ATOM     31  H   UNL d   1      28.656 -10.621  -5.015  0.00  0.00     0.179 HD
BRANCH  30  32
ATOM     32  C   UNL d   1      28.613 -12.700  -5.303  0.00  0.00     0.042 A 
ATOM     33  C   UNL d   1      29.977 -12.969  -5.116  0.00  0.00     0.033 A 
ATOM     34  C   UNL d   1      30.552 -14.127  -5.663  0.00  0.00     0.044 A 
ATOM     35  C   UNL d   1      29.748 -15.050  -6.320  0.00  0.00     0.116 A 
ATOM     36  F   UNL d   1      30.274 -16.204  -6.750  0.00  0.00    -0.206 F 
ATOM     37  C   UNL d   1      28.402 -14.793  -6.520  0.00  0.00     0.044 A 
ATOM     38  C   UNL d   1      27.843 -13.611  -6.029  0.00  0.00     0.033 A 
ENDBRANCH  30  32
ENDBRANCH  27  30
ENDBRANCH  24  27
ENDBRANCH  18  21
ENDBRANCH  16  17
ENDBRANCH  15  16
ENDBRANCH  14  15
ENDBRANCH  13  14
ENDBRANCH  12  13
ENDBRANCH   7  12
TORSDOF 11
ENDMDL
