MODEL 1
REMARK VINA RESULT:    -7.928      0.000      0.000
REMARK INTER + INTRA:         -11.407
REMARK INTER:                 -10.314
REMARK INTRA:                  -1.093
REMARK CONF_INDEPENDENT:        2.386
REMARK UNBOUND:                -1.093
REMARK  8 active torsions:
REMARK  status: ('A' for Active; 'I' for Inactive)
REMARK    1  A    between atoms: C_2  and  O_4 
REMARK    2  A    between atoms: C_2  and  C_12 
REMARK    3  A    between atoms: O_4  and  C_5 
REMARK       I    between atoms: C_12  and  N_14 
REMARK    4  A    between atoms: N_14  and  N_15 
REMARK       I    between atoms: N_15  and  C_16 
REMARK       I    between atoms: C_16  and  N_18 
REMARK    5  A    between atoms: N_18  and  C_19 
REMARK    6  A    between atoms: C_19  and  C_20 
REMARK    7  A    between atoms: C_20  and  C_21 
REMARK    8  A    between atoms: C_21  and  N_22 
ROOT
ATOM      1  C   UNL d   1      27.025 -15.304   0.661  0.00  0.00     0.270 C 
ATOM      2  O   UNL d   1      26.423 -14.267   0.351  0.00  0.00    -0.268 OA
ATOM      3  N   UNL d   1      27.774 -15.329   1.831  0.00  0.00    -0.264 N 
ATOM      4  H   UNL d   1      28.325 -16.129   2.132  0.00  0.00     0.190 HD
ENDROOT
BRANCH   3   5
ATOM      5  N   UNL d   1      27.837 -14.151   2.660  0.00  0.00    -0.249 N 
ATOM      6  C   UNL d   1      27.972 -14.284   4.030  0.00  0.00     0.334 C 
ATOM      7  O   UNL d   1      28.029 -15.383   4.587  0.00  0.00    -0.246 OA
ATOM      8  N   UNL d   1      28.039 -13.095   4.737  0.00  0.00    -0.342 N 
ATOM      9  H   UNL d   1      27.984 -12.223   4.230  0.00  0.00     0.164 HD
ATOM     10  H   UNL d   1      27.798 -13.263   2.164  0.00  0.00     0.192 HD
BRANCH   8  11
ATOM     11  C   UNL d   1      28.181 -13.096   6.196  0.00  0.00     0.126 C 
BRANCH  11  12
ATOM     12  C   UNL d   1      29.261 -14.049   6.722  0.00  0.00     0.040 C 
BRANCH  12  13
ATOM     13  C   UNL d   1      29.972 -13.508   7.969  0.00  0.00     0.130 C 
BRANCH  13  14
ATOM     14  N   UNL d   1      29.033 -13.422   9.106  0.00  0.00    -0.352 N 
ATOM     15  C   UNL d   1      28.481 -12.251   9.617  0.00  0.00     0.108 A 
ATOM     16  C   UNL d   1      27.748 -12.601  10.715  0.00  0.00     0.106 A 
ATOM     17  N   UNL d   1      27.841 -13.968  10.818  0.00  0.00    -0.361 N 
ATOM     18  C   UNL d   1      28.598 -14.465   9.834  0.00  0.00     0.182 A 
ATOM     19  H   UNL d   1      27.400 -14.533  11.542  0.00  0.00     0.166 HD
ENDBRANCH  13  14
ENDBRANCH  12  13
ENDBRANCH  11  12
ENDBRANCH   8  11
ENDBRANCH   3   5
BRANCH   1  20
ATOM     20  C   UNL d   1      26.939 -16.635  -0.216  0.00  0.00     0.142 C 
ATOM     21  C   UNL d   1      26.819 -17.789   0.805  0.00  0.00     0.057 C 
ATOM     22  C   UNL d   1      28.247 -16.821  -0.995  0.00  0.00     0.057 C 
BRANCH  20  23
ATOM     23  O   UNL d   1      25.825 -16.543  -1.150  0.00  0.00    -0.331 OA
BRANCH  23  24
ATOM     24  C   UNL d   1      24.614 -17.145  -0.881  0.00  0.00     0.070 A 
ATOM     25  C   UNL d   1      23.390 -16.476  -0.808  0.00  0.00     0.038 A 
ATOM     26  C   UNL d   1      22.191 -17.131  -0.520  0.00  0.00     0.026 A 
ATOM     27  C   UNL d   1      22.175 -18.509  -0.419  0.00  0.00     0.034 A 
ATOM     28 CL   UNL d   1      20.678 -19.314  -0.168  0.00  0.00    -0.084 Cl
ATOM     29  C   UNL d   1      23.362 -19.223  -0.577  0.00  0.00     0.026 A 
ATOM     30  C   UNL d   1      24.580 -18.542  -0.792  0.00  0.00     0.038 A 
ENDBRANCH  23  24
ENDBRANCH  20  23
ENDBRANCH   1  20
TORSDOF 8
ENDMDL
MODEL 2
REMARK VINA RESULT:    -7.214      7.996     10.380
REMARK INTER + INTRA:         -11.061
REMARK INTER:                  -9.600
REMARK INTRA:                  -1.461
REMARK CONF_INDEPENDENT:        2.386
REMARK UNBOUND:                -1.461
REMARK  8 active torsions:
REMARK  status: ('A' for Active; 'I' for Inactive)
REMARK    1  A    between atoms: C_2  and  O_4 
REMARK    2  A    between atoms: C_2  and  C_12 
REMARK    3  A    between atoms: O_4  and  C_5 
REMARK       I    between atoms: C_12  and  N_14 
REMARK    4  A    between atoms: N_14  and  N_15 
REMARK       I    between atoms: N_15  and  C_16 
REMARK       I    between atoms: C_16  and  N_18 
REMARK    5  A    between atoms: N_18  and  C_19 
REMARK    6  A    between atoms: C_19  and  C_20 
REMARK    7  A    between atoms: C_20  and  C_21 
REMARK    8  A    between atoms: C_21  and  N_22 
ROOT
ATOM      1  C   UNL d   1      25.652 -14.571  -3.909  0.00  0.00     0.270 C 
ATOM      2  O   UNL d   1      24.567 -14.082  -4.252  0.00  0.00    -0.268 OA
ATOM      3  N   UNL d   1      25.674 -15.535  -2.909  0.00  0.00    -0.264 N 
ATOM      4  H   UNL d   1      26.528 -15.954  -2.547  0.00  0.00     0.190 HD
ENDROOT
BRANCH   3   5
ATOM      5  N   UNL d   1      24.438 -15.947  -2.291  0.00  0.00    -0.249 N 
ATOM      6  C   UNL d   1      24.413 -17.081  -1.500  0.00  0.00     0.334 C 
ATOM      7  O   UNL d   1      25.412 -17.777  -1.306  0.00  0.00    -0.246 OA
ATOM      8  N   UNL d   1      23.183 -17.384  -0.939  0.00  0.00    -0.342 N 
ATOM      9  H   UNL d   1      22.396 -16.781  -1.134  0.00  0.00     0.164 HD
ATOM     10  H   UNL d   1      23.638 -15.342  -2.465  0.00  0.00     0.192 HD
BRANCH   8  11
ATOM     11  C   UNL d   1      23.018 -18.562  -0.081  0.00  0.00     0.126 C 
BRANCH  11  12
ATOM     12  C   UNL d   1      21.707 -19.324  -0.305  0.00  0.00     0.040 C 
BRANCH  12  13
ATOM     13  C   UNL d   1      20.802 -19.322   0.935  0.00  0.00     0.130 C 
BRANCH  13  14
ATOM     14  N   UNL d   1      19.534 -20.025   0.653  0.00  0.00    -0.352 N 
ATOM     15  C   UNL d   1      18.845 -20.844   1.543  0.00  0.00     0.108 A 
ATOM     16  C   UNL d   1      17.783 -21.368   0.862  0.00  0.00     0.106 A 
ATOM     17  N   UNL d   1      17.833 -20.828  -0.400  0.00  0.00    -0.361 N 
ATOM     18  C   UNL d   1      18.876 -20.000  -0.519  0.00  0.00     0.182 A 
ATOM     19  H   UNL d   1      17.171 -21.025  -1.149  0.00  0.00     0.166 HD
ENDBRANCH  13  14
ENDBRANCH  12  13
ENDBRANCH  11  12
ENDBRANCH   8  11
ENDBRANCH   3   5
BRANCH   1  20
ATOM     20  C   UNL d   1      27.031 -14.165  -4.605  0.00  0.00     0.142 C 
ATOM     21  C   UNL d   1      28.007 -13.880  -3.442  0.00  0.00     0.057 C 
ATOM     22  C   UNL d   1      26.841 -12.866  -5.399  0.00  0.00     0.057 C 
BRANCH  20  23
ATOM     23  O   UNL d   1      27.462 -15.226  -5.505  0.00  0.00    -0.331 OA
BRANCH  23  24
ATOM     24  C   UNL d   1      28.758 -15.284  -5.973  0.00  0.00     0.070 A 
ATOM     25  C   UNL d   1      29.595 -16.397  -5.867  0.00  0.00     0.038 A 
ATOM     26  C   UNL d   1      30.906 -16.400  -6.347  0.00  0.00     0.026 A 
ATOM     27  C   UNL d   1      31.371 -15.314  -7.064  0.00  0.00     0.034 A 
ATOM     28 CL   UNL d   1      32.950 -15.370  -7.739  0.00  0.00    -0.084 Cl
ATOM     29  C   UNL d   1      30.535 -14.218  -7.271  0.00  0.00     0.026 A 
ATOM     30  C   UNL d   1      29.238 -14.197  -6.714  0.00  0.00     0.038 A 
ENDBRANCH  23  24
ENDBRANCH  20  23
ENDBRANCH   1  20
TORSDOF 8
ENDMDL
MODEL 3
REMARK VINA RESULT:    -7.023      1.725      2.194
REMARK INTER + INTRA:         -11.149
REMARK INTER:                  -9.410
REMARK INTRA:                  -1.740
REMARK CONF_INDEPENDENT:        2.386
REMARK UNBOUND:                -1.740
REMARK  8 active torsions:
REMARK  status: ('A' for Active; 'I' for Inactive)
REMARK    1  A    between atoms: C_2  and  O_4 
REMARK    2  A    between atoms: C_2  and  C_12 
REMARK    3  A    between atoms: O_4  and  C_5 
REMARK       I    between atoms: C_12  and  N_14 
REMARK    4  A    between atoms: N_14  and  N_15 
REMARK       I    between atoms: N_15  and  C_16 
REMARK       I    between atoms: C_16  and  N_18 
REMARK    5  A    between atoms: N_18  and  C_19 
REMARK    6  A    between atoms: C_19  and  C_20 
REMARK    7  A    between atoms: C_20  and  C_21 
REMARK    8  A    between atoms: C_21  and  N_22 
ROOT
ATOM      1  C   UNL d   1      28.510 -14.680  -0.226  0.00  0.00     0.270 C 
ATOM      2  O   UNL d   1      29.597 -15.272  -0.236  0.00  0.00    -0.268 OA
ATOM      3  N   UNL d   1      27.895 -14.412   0.991  0.00  0.00    -0.264 N 
ATOM      4  H   UNL d   1      26.986 -13.965   1.079  0.00  0.00     0.190 HD
ENDROOT
BRANCH   3   5
ATOM      5  N   UNL d   1      28.533 -14.827   2.216  0.00  0.00    -0.249 N 
ATOM      6  C   UNL d   1      28.035 -14.389   3.430  0.00  0.00     0.334 C 
ATOM      7  O   UNL d   1      27.063 -13.636   3.515  0.00  0.00    -0.246 OA
ATOM      8  N   UNL d   1      28.707 -14.855   4.548  0.00  0.00    -0.342 N 
ATOM      9  H   UNL d   1      29.501 -15.468   4.421  0.00  0.00     0.164 HD
ATOM     10  H   UNL d   1      29.325 -15.458   2.106  0.00  0.00     0.192 HD
BRANCH   8  11
ATOM     11  C   UNL d   1      28.283 -14.464   5.896  0.00  0.00     0.126 C 
BRANCH  11  12
ATOM     12  C   UNL d   1      29.245 -13.503   6.604  0.00  0.00     0.040 C 
BRANCH  12  13
ATOM     13  C   UNL d   1      29.815 -14.085   7.904  0.00  0.00     0.130 C 
BRANCH  13  14
ATOM     14  N   UNL d   1      28.943 -13.750   9.048  0.00  0.00    -0.352 N 
ATOM     15  C   UNL d   1      28.461 -12.481   9.358  0.00  0.00     0.108 A 
ATOM     16  C   UNL d   1      27.777 -12.590  10.535  0.00  0.00     0.106 A 
ATOM     17  N   UNL d   1      27.827 -13.918  10.885  0.00  0.00    -0.361 N 
ATOM     18  C   UNL d   1      28.510 -14.621   9.977  0.00  0.00     0.182 A 
ATOM     19  H   UNL d   1      27.406 -14.320  11.721  0.00  0.00     0.166 HD
ENDBRANCH  13  14
ENDBRANCH  12  13
ENDBRANCH  11  12
ENDBRANCH   8  11
ENDBRANCH   3   5
BRANCH   1  20
ATOM     20  C   UNL d   1      27.801 -14.172  -1.563  0.00  0.00     0.142 C 
ATOM     21  C   UNL d   1      28.917 -13.485  -2.381  0.00  0.00     0.057 C 
ATOM     22  C   UNL d   1      26.745 -13.115  -1.213  0.00  0.00     0.057 C 
BRANCH  20  23
ATOM     23  O   UNL d   1      27.162 -15.291  -2.242  0.00  0.00    -0.331 OA
BRANCH  23  24
ATOM     24  C   UNL d   1      26.125 -15.985  -1.656  0.00  0.00     0.070 A 
ATOM     25  C   UNL d   1      24.771 -15.769  -1.923  0.00  0.00     0.038 A 
ATOM     26  C   UNL d   1      23.757 -16.493  -1.291  0.00  0.00     0.026 A 
ATOM     27  C   UNL d   1      24.087 -17.546  -0.460  0.00  0.00     0.034 A 
ATOM     28 CL   UNL d   1      22.831 -18.494   0.229  0.00  0.00    -0.084 Cl
ATOM     29  C   UNL d   1      25.428 -17.852  -0.240  0.00  0.00     0.026 A 
ATOM     30  C   UNL d   1      26.444 -17.065  -0.824  0.00  0.00     0.038 A 
ENDBRANCH  23  24
ENDBRANCH  20  23
ENDBRANCH   1  20
TORSDOF 8
ENDMDL
MODEL 4
REMARK VINA RESULT:    -6.893      1.431      1.978
REMARK INTER + INTRA:         -11.052
REMARK INTER:                  -9.279
REMARK INTRA:                  -1.773
REMARK CONF_INDEPENDENT:        2.386
REMARK UNBOUND:                -1.773
REMARK  8 active torsions:
REMARK  status: ('A' for Active; 'I' for Inactive)
REMARK    1  A    between atoms: C_2  and  O_4 
REMARK    2  A    between atoms: C_2  and  C_12 
REMARK    3  A    between atoms: O_4  and  C_5 
REMARK       I    between atoms: C_12  and  N_14 
REMARK    4  A    between atoms: N_14  and  N_15 
REMARK       I    between atoms: N_15  and  C_16 
REMARK       I    between atoms: C_16  and  N_18 
REMARK    5  A    between atoms: N_18  and  C_19 
REMARK    6  A    between atoms: C_19  and  C_20 
REMARK    7  A    between atoms: C_20  and  C_21 
REMARK    8  A    between atoms: C_21  and  N_22 
ROOT
ATOM      1  C   UNL d   1      27.268 -15.811  -0.077  0.00  0.00     0.270 C 
ATOM      2  O   UNL d   1      28.240 -16.533  -0.335  0.00  0.00    -0.268 OA
ATOM      3  N   UNL d   1      27.261 -15.081   1.105  0.00  0.00    -0.264 N 
ATOM      4  H   UNL d   1      26.484 -14.497   1.404  0.00  0.00     0.190 HD
ENDROOT
BRANCH   3   5
ATOM      5  N   UNL d   1      28.382 -15.178   2.007  0.00  0.00    -0.249 N 
ATOM      6  C   UNL d   1      28.497 -14.284   3.056  0.00  0.00     0.334 C 
ATOM      7  O   UNL d   1      27.680 -13.383   3.252  0.00  0.00    -0.246 OA
ATOM      8  N   UNL d   1      29.600 -14.469   3.874  0.00  0.00    -0.342 N 
ATOM      9  H   UNL d   1      30.241 -15.222   3.666  0.00  0.00     0.164 HD
ATOM     10  H   UNL d   1      29.030 -15.941   1.821  0.00  0.00     0.192 HD
BRANCH   8  11
ATOM     11  C   UNL d   1      29.841 -13.588   5.021  0.00  0.00     0.126 C 
BRANCH  11  12
ATOM     12  C   UNL d   1      28.689 -13.543   6.032  0.00  0.00     0.040 C 
BRANCH  12  13
ATOM     13  C   UNL d   1      29.025 -14.258   7.346  0.00  0.00     0.130 C 
BRANCH  13  14
ATOM     14  N   UNL d   1      28.851 -13.345   8.494  0.00  0.00    -0.352 N 
ATOM     15  C   UNL d   1      28.235 -13.665   9.700  0.00  0.00     0.108 A 
ATOM     16  C   UNL d   1      28.200 -12.521  10.445  0.00  0.00     0.106 A 
ATOM     17  N   UNL d   1      28.825 -11.555   9.695  0.00  0.00    -0.361 N 
ATOM     18  C   UNL d   1      29.239 -12.058   8.528  0.00  0.00     0.182 A 
ATOM     19  H   UNL d   1      28.959 -10.586   9.980  0.00  0.00     0.166 HD
ENDBRANCH  13  14
ENDBRANCH  12  13
ENDBRANCH  11  12
ENDBRANCH   8  11
ENDBRANCH   3   5
BRANCH   1  20
ATOM     20  C   UNL d   1      26.033 -15.651  -1.076  0.00  0.00     0.142 C 
ATOM     21  C   UNL d   1      26.122 -16.860  -2.033  0.00  0.00     0.057 C 
ATOM     22  C   UNL d   1      26.208 -14.371  -1.905  0.00  0.00     0.057 C 
BRANCH  20  23
ATOM     23  O   UNL d   1      24.790 -15.574  -0.319  0.00  0.00    -0.331 OA
BRANCH  23  24
ATOM     24  C   UNL d   1      23.849 -16.580  -0.386  0.00  0.00     0.070 A 
ATOM     25  C   UNL d   1      24.035 -17.878   0.094  0.00  0.00     0.038 A 
ATOM     26  C   UNL d   1      23.053 -18.865  -0.009  0.00  0.00     0.026 A 
ATOM     27  C   UNL d   1      21.801 -18.533  -0.492  0.00  0.00     0.034 A 
ATOM     28 CL   UNL d   1      20.569 -19.730  -0.518  0.00  0.00    -0.084 Cl
ATOM     29  C   UNL d   1      21.546 -17.224  -0.896  0.00  0.00     0.026 A 
ATOM     30  C   UNL d   1      22.572 -16.254  -0.858  0.00  0.00     0.038 A 
ENDBRANCH  23  24
ENDBRANCH  20  23
ENDBRANCH   1  20
TORSDOF 8
ENDMDL
MODEL 5
REMARK VINA RESULT:    -6.852      3.831     10.050
REMARK INTER + INTRA:         -10.861
REMARK INTER:                  -9.239
REMARK INTRA:                  -1.623
REMARK CONF_INDEPENDENT:        2.386
REMARK UNBOUND:                -1.623
REMARK  8 active torsions:
REMARK  status: ('A' for Active; 'I' for Inactive)
REMARK    1  A    between atoms: C_2  and  O_4 
REMARK    2  A    between atoms: C_2  and  C_12 
REMARK    3  A    between atoms: O_4  and  C_5 
REMARK       I    between atoms: C_12  and  N_14 
REMARK    4  A    between atoms: N_14  and  N_15 
REMARK       I    between atoms: N_15  and  C_16 
REMARK       I    between atoms: C_16  and  N_18 
REMARK    5  A    between atoms: N_18  and  C_19 
REMARK    6  A    between atoms: C_19  and  C_20 
REMARK    7  A    between atoms: C_20  and  C_21 
REMARK    8  A    between atoms: C_21  and  N_22 
ROOT
ATOM      1  C   UNL d   1      29.029 -13.388   4.949  0.00  0.00     0.270 C 
ATOM      2  O   UNL d   1      29.641 -14.387   5.351  0.00  0.00    -0.268 OA
ATOM      3  N   UNL d   1      28.449 -13.411   3.687  0.00  0.00    -0.264 N 
ATOM      4  H   UNL d   1      27.964 -12.618   3.273  0.00  0.00     0.190 HD
ENDROOT
BRANCH   3   5
ATOM      5  N   UNL d   1      28.570 -14.594   2.870  0.00  0.00    -0.249 N 
ATOM      6  C   UNL d   1      27.905 -14.661   1.660  0.00  0.00     0.334 C 
ATOM      7  O   UNL d   1      27.189 -13.748   1.245  0.00  0.00    -0.246 OA
ATOM      8  N   UNL d   1      28.096 -15.831   0.943  0.00  0.00    -0.342 N 
ATOM      9  H   UNL d   1      28.691 -16.549   1.332  0.00  0.00     0.164 HD
ATOM     10  H   UNL d   1      29.178 -15.322   3.240  0.00  0.00     0.192 HD
BRANCH   8  11
ATOM     11  C   UNL d   1      27.446 -16.031  -0.356  0.00  0.00     0.126 C 
BRANCH  11  12
ATOM     12  C   UNL d   1      26.282 -17.029  -0.328  0.00  0.00     0.040 C 
BRANCH  12  13
ATOM     13  C   UNL d   1      24.970 -16.423  -0.843  0.00  0.00     0.130 C 
BRANCH  13  14
ATOM     14  N   UNL d   1      23.853 -17.373  -0.663  0.00  0.00    -0.352 N 
ATOM     15  C   UNL d   1      22.509 -17.100  -0.896  0.00  0.00     0.108 A 
ATOM     16  C   UNL d   1      21.805 -18.209  -0.521  0.00  0.00     0.106 A 
ATOM     17  N   UNL d   1      22.736 -19.133  -0.111  0.00  0.00    -0.361 N 
ATOM     18  C   UNL d   1      23.973 -18.637  -0.219  0.00  0.00     0.182 A 
ATOM     19  H   UNL d   1      22.523 -20.069   0.230  0.00  0.00     0.166 HD
ENDBRANCH  13  14
ENDBRANCH  12  13
ENDBRANCH  11  12
ENDBRANCH   8  11
ENDBRANCH   3   5
BRANCH   1  20
ATOM     20  C   UNL d   1      28.842 -12.082   5.848  0.00  0.00     0.142 C 
ATOM     21  C   UNL d   1      28.362 -10.982   4.875  0.00  0.00     0.057 C 
ATOM     22  C   UNL d   1      30.201 -11.654   6.418  0.00  0.00     0.057 C 
BRANCH  20  23
ATOM     23  O   UNL d   1      27.921 -12.360   6.941  0.00  0.00    -0.331 OA
BRANCH  23  24
ATOM     24  C   UNL d   1      28.375 -12.823   8.158  0.00  0.00     0.070 A 
ATOM     25  C   UNL d   1      28.153 -12.191   9.384  0.00  0.00     0.038 A 
ATOM     26  C   UNL d   1      28.646 -12.695  10.590  0.00  0.00     0.026 A 
ATOM     27  C   UNL d   1      29.275 -13.925  10.607  0.00  0.00     0.034 A 
ATOM     28 CL   UNL d   1      29.785 -14.584  12.110  0.00  0.00    -0.084 Cl
ATOM     29  C   UNL d   1      29.436 -14.631   9.416  0.00  0.00     0.026 A 
ATOM     30  C   UNL d   1      29.001 -14.075   8.193  0.00  0.00     0.038 A 
ENDBRANCH  23  24
ENDBRANCH  20  23
ENDBRANCH   1  20
TORSDOF 8
ENDMDL
MODEL 6
REMARK VINA RESULT:    -6.761      6.758     10.047
REMARK INTER + INTRA:         -10.781
REMARK INTER:                  -9.147
REMARK INTRA:                  -1.634
REMARK CONF_INDEPENDENT:        2.386
REMARK UNBOUND:                -1.634
REMARK  8 active torsions:
REMARK  status: ('A' for Active; 'I' for Inactive)
REMARK    1  A    between atoms: C_2  and  O_4 
REMARK    2  A    between atoms: C_2  and  C_12 
REMARK    3  A    between atoms: O_4  and  C_5 
REMARK       I    between atoms: C_12  and  N_14 
REMARK    4  A    between atoms: N_14  and  N_15 
REMARK       I    between atoms: N_15  and  C_16 
REMARK       I    between atoms: C_16  and  N_18 
REMARK    5  A    between atoms: N_18  and  C_19 
REMARK    6  A    between atoms: C_19  and  C_20 
REMARK    7  A    between atoms: C_20  and  C_21 
REMARK    8  A    between atoms: C_21  and  N_22 
ROOT
ATOM      1  C   UNL d   1      25.374 -14.442  -2.613  0.00  0.00     0.270 C 
ATOM      2  O   UNL d   1      24.200 -14.598  -2.972  0.00  0.00    -0.268 OA
ATOM      3  N   UNL d   1      26.126 -13.421  -3.180  0.00  0.00    -0.264 N 
ATOM      4  H   UNL d   1      27.107 -13.254  -2.964  0.00  0.00     0.190 HD
ENDROOT
BRANCH   3   5
ATOM      5  N   UNL d   1      25.528 -12.563  -4.172  0.00  0.00    -0.249 N 
ATOM      6  C   UNL d   1      26.314 -11.657  -4.860  0.00  0.00     0.334 C 
ATOM      7  O   UNL d   1      27.523 -11.535  -4.650  0.00  0.00    -0.246 OA
ATOM      8  N   UNL d   1      25.649 -10.891  -5.803  0.00  0.00    -0.342 N 
ATOM      9  H   UNL d   1      24.657 -11.029  -5.932  0.00  0.00     0.164 HD
ATOM     10  H   UNL d   1      24.530 -12.700  -4.326  0.00  0.00     0.192 HD
BRANCH   8  11
ATOM     11  C   UNL d   1      26.366  -9.890  -6.599  0.00  0.00     0.126 C 
BRANCH  11  12
ATOM     12  C   UNL d   1      25.618  -8.562  -6.762  0.00  0.00     0.040 C 
BRANCH  12  13
ATOM     13  C   UNL d   1      25.481  -7.793  -5.442  0.00  0.00     0.130 C 
BRANCH  13  14
ATOM     14  N   UNL d   1      24.128  -7.213  -5.317  0.00  0.00    -0.352 N 
ATOM     15  C   UNL d   1      23.789  -6.099  -4.554  0.00  0.00     0.108 A 
ATOM     16  C   UNL d   1      22.434  -5.956  -4.638  0.00  0.00     0.106 A 
ATOM     17  N   UNL d   1      21.994  -6.953  -5.475  0.00  0.00    -0.361 N 
ATOM     18  C   UNL d   1      23.019  -7.697  -5.903  0.00  0.00     0.182 A 
ATOM     19  H   UNL d   1      21.022  -7.112  -5.738  0.00  0.00     0.166 HD
ENDBRANCH  13  14
ENDBRANCH  12  13
ENDBRANCH  11  12
ENDBRANCH   8  11
ENDBRANCH   3   5
BRANCH   1  20
ATOM     20  C   UNL d   1      26.050 -15.348  -1.485  0.00  0.00     0.142 C 
ATOM     21  C   UNL d   1      27.325 -14.587  -1.060  0.00  0.00     0.057 C 
ATOM     22  C   UNL d   1      26.476 -16.691  -2.094  0.00  0.00     0.057 C 
BRANCH  20  23
ATOM     23  O   UNL d   1      25.103 -15.582  -0.404  0.00  0.00    -0.331 OA
BRANCH  23  24
ATOM     24  C   UNL d   1      24.118 -16.542  -0.511  0.00  0.00     0.070 A 
ATOM     25  C   UNL d   1      24.289 -17.895  -0.211  0.00  0.00     0.038 A 
ATOM     26  C   UNL d   1      23.261 -18.831  -0.349  0.00  0.00     0.026 A 
ATOM     27  C   UNL d   1      21.989 -18.402  -0.677  0.00  0.00     0.034 A 
ATOM     28 CL   UNL d   1      20.710 -19.547  -0.742  0.00  0.00    -0.084 Cl
ATOM     29  C   UNL d   1      21.757 -17.045  -0.895  0.00  0.00     0.026 A 
ATOM     30  C   UNL d   1      22.821 -16.120  -0.828  0.00  0.00     0.038 A 
ENDBRANCH  23  24
ENDBRANCH  20  23
ENDBRANCH   1  20
TORSDOF 8
ENDMDL
MODEL 7
REMARK VINA RESULT:    -6.669      2.653      3.386
REMARK INTER + INTRA:         -11.123
REMARK INTER:                  -9.055
REMARK INTRA:                  -2.067
REMARK CONF_INDEPENDENT:        2.386
REMARK UNBOUND:                -2.067
REMARK  8 active torsions:
REMARK  status: ('A' for Active; 'I' for Inactive)
REMARK    1  A    between atoms: C_2  and  O_4 
REMARK    2  A    between atoms: C_2  and  C_12 
REMARK    3  A    between atoms: O_4  and  C_5 
REMARK       I    between atoms: C_12  and  N_14 
REMARK    4  A    between atoms: N_14  and  N_15 
REMARK       I    between atoms: N_15  and  C_16 
REMARK       I    between atoms: C_16  and  N_18 
REMARK    5  A    between atoms: N_18  and  C_19 
REMARK    6  A    between atoms: C_19  and  C_20 
REMARK    7  A    between atoms: C_20  and  C_21 
REMARK    8  A    between atoms: C_21  and  N_22 
ROOT
ATOM      1  C   UNL d   1      26.573 -14.302  -1.095  0.00  0.00     0.270 C 
ATOM      2  O   UNL d   1      26.738 -13.443  -1.970  0.00  0.00    -0.268 OA
ATOM      3  N   UNL d   1      26.645 -13.930   0.242  0.00  0.00    -0.264 N 
ATOM      4  H   UNL d   1      26.559 -14.584   1.016  0.00  0.00     0.190 HD
ENDROOT
BRANCH   3   5
ATOM      5  N   UNL d   1      26.909 -12.554   0.584  0.00  0.00    -0.249 N 
ATOM      6  C   UNL d   1      26.940 -12.171   1.912  0.00  0.00     0.334 C 
ATOM      7  O   UNL d   1      26.735 -12.962   2.835  0.00  0.00    -0.246 OA
ATOM      8  N   UNL d   1      27.217 -10.833   2.137  0.00  0.00    -0.342 N 
ATOM      9  H   UNL d   1      27.374 -10.227   1.343  0.00  0.00     0.164 HD
ATOM     10  H   UNL d   1      27.086 -11.932  -0.204  0.00  0.00     0.192 HD
BRANCH   8  11
ATOM     11  C   UNL d   1      27.277 -10.297   3.500  0.00  0.00     0.126 C 
BRANCH  11  12
ATOM     12  C   UNL d   1      28.528 -10.710   4.284  0.00  0.00     0.040 C 
BRANCH  12  13
ATOM     13  C   UNL d   1      28.201 -11.567   5.514  0.00  0.00     0.130 C 
BRANCH  13  14
ATOM     14  N   UNL d   1      28.350 -13.003   5.200  0.00  0.00    -0.352 N 
ATOM     15  C   UNL d   1      27.406 -13.993   5.460  0.00  0.00     0.108 A 
ATOM     16  C   UNL d   1      27.971 -15.184   5.105  0.00  0.00     0.106 A 
ATOM     17  N   UNL d   1      29.217 -14.886   4.607  0.00  0.00    -0.361 N 
ATOM     18  C   UNL d   1      29.436 -13.567   4.643  0.00  0.00     0.182 A 
ATOM     19  H   UNL d   1      29.888 -15.568   4.258  0.00  0.00     0.166 HD
ENDBRANCH  13  14
ENDBRANCH  12  13
ENDBRANCH  11  12
ENDBRANCH   8  11
ENDBRANCH   3   5
BRANCH   1  20
ATOM     20  C   UNL d   1      26.237 -15.824  -1.442  0.00  0.00     0.142 C 
ATOM     21  C   UNL d   1      27.598 -16.481  -1.760  0.00  0.00     0.057 C 
ATOM     22  C   UNL d   1      25.372 -15.880  -2.709  0.00  0.00     0.057 C 
BRANCH  20  23
ATOM     23  O   UNL d   1      25.518 -16.438  -0.334  0.00  0.00    -0.331 OA
BRANCH  23  24
ATOM     24  C   UNL d   1      24.355 -17.149  -0.543  0.00  0.00     0.070 A 
ATOM     25  C   UNL d   1      24.245 -18.538  -0.459  0.00  0.00     0.038 A 
ATOM     26  C   UNL d   1      23.044 -19.212  -0.692  0.00  0.00     0.026 A 
ATOM     27  C   UNL d   1      21.885 -18.488  -0.896  0.00  0.00     0.034 A 
ATOM     28 CL   UNL d   1      20.395 -19.326  -1.078  0.00  0.00    -0.084 Cl
ATOM     29  C   UNL d   1      21.936 -17.096  -0.895  0.00  0.00     0.026 A 
ATOM     30  C   UNL d   1      23.170 -16.428  -0.735  0.00  0.00     0.038 A 
ENDBRANCH  23  24
ENDBRANCH  20  23
ENDBRANCH   1  20
TORSDOF 8
ENDMDL
MODEL 8
REMARK VINA RESULT:    -6.218      7.578      9.945
REMARK INTER + INTRA:         -10.753
REMARK INTER:                  -8.605
REMARK INTRA:                  -2.148
REMARK CONF_INDEPENDENT:        2.386
REMARK UNBOUND:                -2.148
REMARK  8 active torsions:
REMARK  status: ('A' for Active; 'I' for Inactive)
REMARK    1  A    between atoms: C_2  and  O_4 
REMARK    2  A    between atoms: C_2  and  C_12 
REMARK    3  A    between atoms: O_4  and  C_5 
REMARK       I    between atoms: C_12  and  N_14 
REMARK    4  A    between atoms: N_14  and  N_15 
REMARK       I    between atoms: N_15  and  C_16 
REMARK       I    between atoms: C_16  and  N_18 
REMARK    5  A    between atoms: N_18  and  C_19 
REMARK    6  A    between atoms: C_19  and  C_20 
REMARK    7  A    between atoms: C_20  and  C_21 
REMARK    8  A    between atoms: C_21  and  N_22 
ROOT
ATOM      1  C   UNL d   1      26.337 -12.233  -3.719  0.00  0.00     0.270 C 
ATOM      2  O   UNL d   1      26.291 -11.558  -2.682  0.00  0.00    -0.268 OA
ATOM      3  N   UNL d   1      25.911 -13.555  -3.687  0.00  0.00    -0.264 N 
ATOM      4  H   UNL d   1      25.954 -14.182  -4.487  0.00  0.00     0.190 HD
ENDROOT
BRANCH   3   5
ATOM      5  N   UNL d   1      25.425 -14.115  -2.450  0.00  0.00    -0.249 N 
ATOM      6  C   UNL d   1      25.175 -15.473  -2.364  0.00  0.00     0.334 C 
ATOM      7  O   UNL d   1      25.339 -16.239  -3.317  0.00  0.00    -0.246 OA
ATOM      8  N   UNL d   1      24.726 -15.916  -1.131  0.00  0.00    -0.342 N 
ATOM      9  H   UNL d   1      24.606 -15.244  -0.386  0.00  0.00     0.164 HD
ATOM     10  H   UNL d   1      25.313 -13.455  -1.684  0.00  0.00     0.192 HD
BRANCH   8  11
ATOM     11  C   UNL d   1      24.422 -17.333  -0.907  0.00  0.00     0.126 C 
BRANCH  11  12
ATOM     12  C   UNL d   1      22.923 -17.658  -0.887  0.00  0.00     0.040 C 
BRANCH  12  13
ATOM     13  C   UNL d   1      22.611 -18.963  -0.143  0.00  0.00     0.130 C 
BRANCH  13  14
ATOM     14  N   UNL d   1      21.161 -19.242  -0.172  0.00  0.00    -0.352 N 
ATOM     15  C   UNL d   1      20.425 -19.826   0.856  0.00  0.00     0.108 A 
ATOM     16  C   UNL d   1      19.152 -19.990   0.391  0.00  0.00     0.106 A 
ATOM     17  N   UNL d   1      19.138 -19.470  -0.880  0.00  0.00    -0.361 N 
ATOM     18  C   UNL d   1      20.344 -18.998  -1.211  0.00  0.00     0.182 A 
ATOM     19  H   UNL d   1      18.325 -19.445  -1.495  0.00  0.00     0.166 HD
ENDBRANCH  13  14
ENDBRANCH  12  13
ENDBRANCH  11  12
ENDBRANCH   8  11
ENDBRANCH   3   5
BRANCH   1  20
ATOM     20  C   UNL d   1      26.830 -11.627  -5.111  0.00  0.00     0.142 C 
ATOM     21  C   UNL d   1      28.202 -10.984  -4.814  0.00  0.00     0.057 C 
ATOM     22  C   UNL d   1      25.868 -10.517  -5.556  0.00  0.00     0.057 C 
BRANCH  20  23
ATOM     23  O   UNL d   1      26.865 -12.675  -6.123  0.00  0.00    -0.331 OA
BRANCH  23  24
ATOM     24  C   UNL d   1      27.893 -13.593  -6.166  0.00  0.00     0.070 A 
ATOM     25  C   UNL d   1      27.929 -14.783  -5.436  0.00  0.00     0.038 A 
ATOM     26  C   UNL d   1      29.001 -15.675  -5.506  0.00  0.00     0.026 A 
ATOM     27  C   UNL d   1      30.017 -15.450  -6.415  0.00  0.00     0.034 A 
ATOM     28 CL   UNL d   1      31.278 -16.607  -6.566  0.00  0.00    -0.084 Cl
ATOM     29  C   UNL d   1      29.972 -14.319  -7.228  0.00  0.00     0.026 A 
ATOM     30  C   UNL d   1      28.921 -13.385  -7.093  0.00  0.00     0.038 A 
ENDBRANCH  23  24
ENDBRANCH  20  23
ENDBRANCH   1  20
TORSDOF 8
ENDMDL
MODEL 9
REMARK VINA RESULT:    -6.066      6.291      9.221
REMARK INTER + INTRA:         -10.759
REMARK INTER:                  -8.452
REMARK INTRA:                  -2.307
REMARK CONF_INDEPENDENT:        2.386
REMARK UNBOUND:                -2.307
REMARK  8 active torsions:
REMARK  status: ('A' for Active; 'I' for Inactive)
REMARK    1  A    between atoms: C_2  and  O_4 
REMARK    2  A    between atoms: C_2  and  C_12 
REMARK    3  A    between atoms: O_4  and  C_5 
REMARK       I    between atoms: C_12  and  N_14 
REMARK    4  A    between atoms: N_14  and  N_15 
REMARK       I    between atoms: N_15  and  C_16 
REMARK       I    between atoms: C_16  and  N_18 
REMARK    5  A    between atoms: N_18  and  C_19 
REMARK    6  A    between atoms: C_19  and  C_20 
REMARK    7  A    between atoms: C_20  and  C_21 
REMARK    8  A    between atoms: C_21  and  N_22 
ROOT
ATOM      1  C   UNL d   1      27.895 -15.699  -1.638  0.00  0.00     0.270 C 
ATOM      2  O   UNL d   1      28.936 -15.294  -1.104  0.00  0.00    -0.268 OA
ATOM      3  N   UNL d   1      27.776 -15.641  -3.021  0.00  0.00    -0.264 N 
ATOM      4  H   UNL d   1      26.938 -15.918  -3.528  0.00  0.00     0.190 HD
ENDROOT
BRANCH   3   5
ATOM      5  N   UNL d   1      28.863 -15.112  -3.807  0.00  0.00    -0.249 N 
ATOM      6  C   UNL d   1      28.694 -14.916  -5.165  0.00  0.00     0.334 C 
ATOM      7  O   UNL d   1      27.643 -15.189  -5.749  0.00  0.00    -0.246 OA
ATOM      8  N   UNL d   1      29.791 -14.390  -5.829  0.00  0.00    -0.342 N 
ATOM      9  H   UNL d   1      30.628 -14.187  -5.301  0.00  0.00     0.164 HD
ATOM     10  H   UNL d   1      29.710 -14.888  -3.288  0.00  0.00     0.192 HD
BRANCH   8  11
ATOM     11  C   UNL d   1      29.744 -14.135  -7.272  0.00  0.00     0.126 C 
BRANCH  11  12
ATOM     12  C   UNL d   1      28.712 -13.082  -7.691  0.00  0.00     0.040 C 
BRANCH  12  13
ATOM     13  C   UNL d   1      28.817 -11.790  -6.871  0.00  0.00     0.130 C 
BRANCH  13  14
ATOM     14  N   UNL d   1      27.747 -11.734  -5.853  0.00  0.00    -0.352 N 
ATOM     15  C   UNL d   1      27.939 -11.699  -4.475  0.00  0.00     0.108 A 
ATOM     16  C   UNL d   1      26.701 -11.746  -3.900  0.00  0.00     0.106 A 
ATOM     17  N   UNL d   1      25.797 -11.768  -4.934  0.00  0.00    -0.361 N 
ATOM     18  C   UNL d   1      26.428 -11.737  -6.113  0.00  0.00     0.182 A 
ATOM     19  H   UNL d   1      24.785 -11.804  -4.828  0.00  0.00     0.166 HD
ENDBRANCH  13  14
ENDBRANCH  12  13
ENDBRANCH  11  12
ENDBRANCH   8  11
ENDBRANCH   3   5
BRANCH   1  20
ATOM     20  C   UNL d   1      26.693 -16.329  -0.797  0.00  0.00     0.142 C 
ATOM     21  C   UNL d   1      26.311 -15.250   0.241  0.00  0.00     0.057 C 
ATOM     22  C   UNL d   1      27.191 -17.566  -0.039  0.00  0.00     0.057 C 
BRANCH  20  23
ATOM     23  O   UNL d   1      25.609 -16.710  -1.692  0.00  0.00    -0.331 OA
BRANCH  23  24
ATOM     24  C   UNL d   1      24.492 -17.370  -1.223  0.00  0.00     0.070 A 
ATOM     25  C   UNL d   1      24.510 -18.616  -0.592  0.00  0.00     0.038 A 
ATOM     26  C   UNL d   1      23.348 -19.248  -0.145  0.00  0.00     0.026 A 
ATOM     27  C   UNL d   1      22.140 -18.580  -0.212  0.00  0.00     0.034 A 
ATOM     28 CL   UNL d   1      20.733 -19.326   0.435  0.00  0.00    -0.084 Cl
ATOM     29  C   UNL d   1      22.094 -17.296  -0.752  0.00  0.00     0.026 A 
ATOM     30  C   UNL d   1      23.264 -16.699  -1.270  0.00  0.00     0.038 A 
ENDBRANCH  23  24
ENDBRANCH  20  23
ENDBRANCH   1  20
TORSDOF 8
ENDMDL
