MODEL 1
REMARK VINA RESULT:    -9.320      0.000      0.000
REMARK INTER + INTRA:         -14.953
REMARK INTER:                 -12.899
REMARK INTRA:                  -2.054
REMARK CONF_INDEPENDENT:        3.580
REMARK UNBOUND:                -2.054
REMARK  12 active torsions:
REMARK  status: ('A' for Active; 'I' for Inactive)
REMARK       I    between atoms: C_2  and  N_3 
REMARK    1  A    between atoms: C_2  and  C_20 
REMARK    2  A    between atoms: N_3  and  N_4 
REMARK    3  A    between atoms: C_5  and  C_6 
REMARK    4  A    between atoms: C_10  and  O_11 
REMARK    5  A    between atoms: O_11  and  C_12 
REMARK    6  A    between atoms: C_12  and  C_13 
REMARK    7  A    between atoms: C_23  and  C_24 
REMARK       I    between atoms: C_24  and  N_26 
REMARK    8  A    between atoms: N_26  and  N_27 
REMARK    9  A    between atoms: C_28  and  C_29 
REMARK   10  A    between atoms: C_33  and  O_34 
REMARK   11  A    between atoms: O_34  and  C_35 
REMARK   12  A    between atoms: C_35  and  C_36 
ROOT
ATOM      1  C   UNL d   1      25.703 -14.781  -2.701  0.00  0.00     0.145 A 
ATOM      2  C   UNL d   1      25.290 -16.102  -2.652  0.00  0.00     0.046 A 
ATOM      3  C   UNL d   1      25.805 -16.680  -1.467  0.00  0.00     0.046 A 
ATOM      4  C   UNL d   1      26.515 -15.697  -0.797  0.00  0.00     0.145 A 
ATOM      5  O   UNL d   1      26.480 -14.531  -1.580  0.00  0.00    -0.299 OA
ENDROOT
BRANCH   1   6
ATOM      6  C   UNL d   1      25.265 -13.751  -3.663  0.00  0.00     0.295 C 
ATOM      7  O   UNL d   1      24.418 -14.033  -4.515  0.00  0.00    -0.264 OA
ATOM      8  N   UNL d   1      25.902 -12.497  -3.658  0.00  0.00    -0.241 N 
ATOM      9  H   UNL d   1      26.663 -12.300  -3.018  0.00  0.00     0.192 HD
BRANCH   8  10
ATOM     10  N   UNL d   1      25.539 -11.556  -4.621  0.00  0.00    -0.183 NA
ATOM     11  C   UNL d   1      25.565 -10.296  -4.306  0.00  0.00     0.150 C 
BRANCH  11  12
ATOM     12  C   UNL d   1      25.122  -9.231  -5.256  0.00  0.00    -0.014 A 
ATOM     13  C   UNL d   1      25.879  -8.906  -6.387  0.00  0.00     0.013 A 
ATOM     14  C   UNL d   1      25.546  -7.779  -7.155  0.00  0.00     0.004 A 
ATOM     15  C   UNL d   1      24.429  -7.012  -6.823  0.00  0.00     0.037 A 
ATOM     16  C   UNL d   1      23.655  -7.351  -5.711  0.00  0.00     0.070 A 
ATOM     17  C   UNL d   1      24.001  -8.464  -4.937  0.00  0.00     0.049 A 
BRANCH  16  18
ATOM     18  O   UNL d   1      22.607  -6.511  -5.448  0.00  0.00    -0.347 OA
BRANCH  18  19
ATOM     19  C   UNL d   1      22.320  -5.542  -6.463  0.00  0.00     0.214 C 
BRANCH  19  20
ATOM     20  C   UNL d   1      21.096  -5.964  -7.230  0.00  0.00    -0.034 A 
ATOM     21  C   UNL d   1      19.872  -6.172  -6.582  0.00  0.00     0.009 A 
ATOM     22  C   UNL d   1      18.796  -6.717  -7.280  0.00  0.00     0.001 A 
ATOM     23  C   UNL d   1      18.900  -6.952  -8.650  0.00  0.00     0.000 A 
ATOM     24  C   UNL d   1      20.089  -6.670  -9.320  0.00  0.00     0.001 A 
ATOM     25  C   UNL d   1      21.184  -6.178  -8.613  0.00  0.00     0.009 A 
ENDBRANCH  19  20
ENDBRANCH  18  19
ENDBRANCH  16  18
ENDBRANCH  11  12
ENDBRANCH   8  10
ENDBRANCH   1   6
BRANCH   4  26
ATOM     26  C   UNL d   1      27.217 -15.719   0.502  0.00  0.00     0.295 C 
ATOM     27  O   UNL d   1      27.396 -16.772   1.129  0.00  0.00    -0.264 OA
ATOM     28  N   UNL d   1      27.675 -14.471   1.000  0.00  0.00    -0.241 N 
ATOM     29  H   UNL d   1      27.526 -13.613   0.485  0.00  0.00     0.192 HD
BRANCH  28  30
ATOM     30  N   UNL d   1      28.340 -14.402   2.218  0.00  0.00    -0.183 NA
ATOM     31  C   UNL d   1      27.763 -13.794   3.211  0.00  0.00     0.150 C 
BRANCH  31  32
ATOM     32  C   UNL d   1      28.427 -13.670   4.543  0.00  0.00    -0.014 A 
ATOM     33  C   UNL d   1      29.449 -14.541   4.937  0.00  0.00     0.013 A 
ATOM     34  C   UNL d   1      29.980 -14.457   6.233  0.00  0.00     0.004 A 
ATOM     35  C   UNL d   1      29.525 -13.476   7.114  0.00  0.00     0.037 A 
ATOM     36  C   UNL d   1      28.509 -12.603   6.721  0.00  0.00     0.070 A 
ATOM     37  C   UNL d   1      27.965 -12.702   5.435  0.00  0.00     0.049 A 
BRANCH  36  38
ATOM     38  O   UNL d   1      28.115 -11.705   7.676  0.00  0.00    -0.347 OA
BRANCH  38  39
ATOM     39  C   UNL d   1      29.097 -11.402   8.665  0.00  0.00     0.214 C 
BRANCH  39  40
ATOM     40  C   UNL d   1      28.975 -12.308   9.862  0.00  0.00    -0.034 A 
ATOM     41  C   UNL d   1      28.040 -13.350   9.905  0.00  0.00     0.009 A 
ATOM     42  C   UNL d   1      27.810 -14.035  11.097  0.00  0.00     0.001 A 
ATOM     43  C   UNL d   1      28.566 -13.736  12.230  0.00  0.00     0.000 A 
ATOM     44  C   UNL d   1      29.524 -12.727  12.186  0.00  0.00     0.001 A 
ATOM     45  C   UNL d   1      29.720 -12.007  11.011  0.00  0.00     0.009 A 
ENDBRANCH  39  40
ENDBRANCH  38  39
ENDBRANCH  36  38
ENDBRANCH  31  32
ENDBRANCH  28  30
ENDBRANCH   4  26
TORSDOF 12
ENDMDL
MODEL 2
REMARK VINA RESULT:    -9.118      0.428     15.049
REMARK INTER + INTRA:         -14.665
REMARK INTER:                 -12.697
REMARK INTRA:                  -1.967
REMARK CONF_INDEPENDENT:        3.580
REMARK UNBOUND:                -1.967
REMARK  12 active torsions:
REMARK  status: ('A' for Active; 'I' for Inactive)
REMARK       I    between atoms: C_2  and  N_3 
REMARK    1  A    between atoms: C_2  and  C_20 
REMARK    2  A    between atoms: N_3  and  N_4 
REMARK    3  A    between atoms: C_5  and  C_6 
REMARK    4  A    between atoms: C_10  and  O_11 
REMARK    5  A    between atoms: O_11  and  C_12 
REMARK    6  A    between atoms: C_12  and  C_13 
REMARK    7  A    between atoms: C_23  and  C_24 
REMARK       I    between atoms: C_24  and  N_26 
REMARK    8  A    between atoms: N_26  and  N_27 
REMARK    9  A    between atoms: C_28  and  C_29 
REMARK   10  A    between atoms: C_33  and  O_34 
REMARK   11  A    between atoms: O_34  and  C_35 
REMARK   12  A    between atoms: C_35  and  C_36 
ROOT
ATOM      1  C   UNL d   1      26.319 -15.584  -0.693  0.00  0.00     0.145 A 
ATOM      2  C   UNL d   1      25.867 -16.682  -1.406  0.00  0.00     0.046 A 
ATOM      3  C   UNL d   1      25.338 -16.220  -2.635  0.00  0.00     0.046 A 
ATOM      4  C   UNL d   1      25.489 -14.843  -2.664  0.00  0.00     0.145 A 
ATOM      5  O   UNL d   1      26.066 -14.447  -1.446  0.00  0.00    -0.299 OA
ENDROOT
BRANCH   1   6
ATOM      6  C   UNL d   1      27.096 -15.601   0.561  0.00  0.00     0.295 C 
ATOM      7  O   UNL d   1      27.440 -16.681   1.051  0.00  0.00    -0.264 OA
ATOM      8  N   UNL d   1      27.337 -14.389   1.232  0.00  0.00    -0.241 N 
ATOM      9  H   UNL d   1      26.972 -13.514   0.876  0.00  0.00     0.192 HD
BRANCH   8  10
ATOM     10  N   UNL d   1      28.004 -14.421   2.457  0.00  0.00    -0.183 NA
ATOM     11  C   UNL d   1      27.669 -13.566   3.374  0.00  0.00     0.150 C 
BRANCH  11  12
ATOM     12  C   UNL d   1      28.382 -13.488   4.685  0.00  0.00    -0.014 A 
ATOM     13  C   UNL d   1      29.335 -14.444   5.053  0.00  0.00     0.013 A 
ATOM     14  C   UNL d   1      29.847 -14.459   6.359  0.00  0.00     0.004 A 
ATOM     15  C   UNL d   1      29.446 -13.490   7.279  0.00  0.00     0.037 A 
ATOM     16  C   UNL d   1      28.515 -12.517   6.907  0.00  0.00     0.070 A 
ATOM     17  C   UNL d   1      27.993 -12.516   5.608  0.00  0.00     0.049 A 
BRANCH  16  18
ATOM     18  O   UNL d   1      28.158 -11.639   7.894  0.00  0.00    -0.347 OA
BRANCH  18  19
ATOM     19  C   UNL d   1      29.158 -11.386   8.889  0.00  0.00     0.214 C 
BRANCH  19  20
ATOM     20  C   UNL d   1      29.065 -12.427   9.972  0.00  0.00    -0.034 A 
ATOM     21  C   UNL d   1      27.830 -12.794  10.520  0.00  0.00     0.009 A 
ATOM     22  C   UNL d   1      27.780 -13.636  11.628  0.00  0.00     0.001 A 
ATOM     23  C   UNL d   1      28.951 -14.204  12.126  0.00  0.00     0.000 A 
ATOM     24  C   UNL d   1      30.178 -13.909  11.535  0.00  0.00     0.001 A 
ATOM     25  C   UNL d   1      30.236 -13.024  10.461  0.00  0.00     0.009 A 
ENDBRANCH  19  20
ENDBRANCH  18  19
ENDBRANCH  16  18
ENDBRANCH  11  12
ENDBRANCH   8  10
ENDBRANCH   1   6
BRANCH   4  26
ATOM     26  C   UNL d   1      25.166 -13.852  -3.710  0.00  0.00     0.295 C 
ATOM     27  O   UNL d   1      24.402 -14.118  -4.648  0.00  0.00    -0.264 OA
ATOM     28  N   UNL d   1      25.776 -12.576  -3.588  0.00  0.00    -0.241 N 
ATOM     29  H   UNL d   1      26.400 -12.362  -2.820  0.00  0.00     0.192 HD
BRANCH  28  30
ATOM     30  N   UNL d   1      25.530 -11.586  -4.532  0.00  0.00    -0.183 NA
ATOM     31  C   UNL d   1      25.530 -10.344  -4.148  0.00  0.00     0.150 C 
BRANCH  31  32
ATOM     32  C   UNL d   1      25.259  -9.231  -5.106  0.00  0.00    -0.014 A 
ATOM     33  C   UNL d   1      26.103  -8.975  -6.193  0.00  0.00     0.013 A 
ATOM     34  C   UNL d   1      25.872  -7.861  -7.013  0.00  0.00     0.004 A 
ATOM     35  C   UNL d   1      24.774  -7.033  -6.777  0.00  0.00     0.037 A 
ATOM     36  C   UNL d   1      23.928  -7.290  -5.697  0.00  0.00     0.070 A 
ATOM     37  C   UNL d   1      24.172  -8.390  -4.866  0.00  0.00     0.049 A 
BRANCH  36  38
ATOM     38  O   UNL d   1      22.904  -6.394  -5.537  0.00  0.00    -0.347 OA
BRANCH  38  39
ATOM     39  C   UNL d   1      22.590  -5.622  -6.695  0.00  0.00     0.214 C 
BRANCH  39  40
ATOM     40  C   UNL d   1      21.345  -6.126  -7.376  0.00  0.00    -0.034 A 
ATOM     41  C   UNL d   1      21.312  -6.386  -8.751  0.00  0.00     0.009 A 
ATOM     42  C   UNL d   1      20.100  -6.651  -9.386  0.00  0.00     0.001 A 
ATOM     43  C   UNL d   1      18.926  -6.734  -8.638  0.00  0.00     0.000 A 
ATOM     44  C   UNL d   1      18.955  -6.515  -7.263  0.00  0.00     0.001 A 
ATOM     45  C   UNL d   1      20.156  -6.199  -6.635  0.00  0.00     0.009 A 
ENDBRANCH  39  40
ENDBRANCH  38  39
ENDBRANCH  36  38
ENDBRANCH  31  32
ENDBRANCH  28  30
ENDBRANCH   4  26
TORSDOF 12
ENDMDL
MODEL 3
REMARK VINA RESULT:    -8.213      5.207     10.551
REMARK INTER + INTRA:         -13.808
REMARK INTER:                 -11.792
REMARK INTRA:                  -2.015
REMARK CONF_INDEPENDENT:        3.580
REMARK UNBOUND:                -2.015
REMARK  12 active torsions:
REMARK  status: ('A' for Active; 'I' for Inactive)
REMARK       I    between atoms: C_2  and  N_3 
REMARK    1  A    between atoms: C_2  and  C_20 
REMARK    2  A    between atoms: N_3  and  N_4 
REMARK    3  A    between atoms: C_5  and  C_6 
REMARK    4  A    between atoms: C_10  and  O_11 
REMARK    5  A    between atoms: O_11  and  C_12 
REMARK    6  A    between atoms: C_12  and  C_13 
REMARK    7  A    between atoms: C_23  and  C_24 
REMARK       I    between atoms: C_24  and  N_26 
REMARK    8  A    between atoms: N_26  and  N_27 
REMARK    9  A    between atoms: C_28  and  C_29 
REMARK   10  A    between atoms: C_33  and  O_34 
REMARK   11  A    between atoms: O_34  and  C_35 
REMARK   12  A    between atoms: C_35  and  C_36 
ROOT
ATOM      1  C   UNL d   1      27.084 -14.038  -4.000  0.00  0.00     0.145 A 
ATOM      2  C   UNL d   1      26.223 -13.015  -4.360  0.00  0.00     0.046 A 
ATOM      3  C   UNL d   1      26.097 -12.139  -3.255  0.00  0.00     0.046 A 
ATOM      4  C   UNL d   1      26.897 -12.631  -2.237  0.00  0.00     0.145 A 
ATOM      5  O   UNL d   1      27.481 -13.827  -2.689  0.00  0.00    -0.299 OA
ENDROOT
BRANCH   1   6
ATOM      6  C   UNL d   1      27.640 -15.080  -4.885  0.00  0.00     0.295 C 
ATOM      7  O   UNL d   1      26.930 -15.575  -5.766  0.00  0.00    -0.264 OA
ATOM      8  N   UNL d   1      28.935 -15.567  -4.637  0.00  0.00    -0.241 N 
ATOM      9  H   UNL d   1      29.481 -15.226  -3.855  0.00  0.00     0.192 HD
BRANCH   8  10
ATOM     10  N   UNL d   1      29.425 -16.607  -5.428  0.00  0.00    -0.183 NA
ATOM     11  C   UNL d   1      30.028 -17.601  -4.851  0.00  0.00     0.150 C 
BRANCH  11  12
ATOM     12  C   UNL d   1      30.643 -18.718  -5.632  0.00  0.00    -0.014 A 
ATOM     13  C   UNL d   1      30.860 -18.608  -7.010  0.00  0.00     0.013 A 
ATOM     14  C   UNL d   1      31.256 -19.731  -7.750  0.00  0.00     0.004 A 
ATOM     15  C   UNL d   1      31.485 -20.948  -7.107  0.00  0.00     0.037 A 
ATOM     16  C   UNL d   1      31.296 -21.054  -5.727  0.00  0.00     0.070 A 
ATOM     17  C   UNL d   1      30.883 -19.935  -4.994  0.00  0.00     0.049 A 
BRANCH  16  18
ATOM     18  O   UNL d   1      31.507 -22.299  -5.200  0.00  0.00    -0.347 OA
BRANCH  18  19
ATOM     19  C   UNL d   1      31.760 -22.340  -3.790  0.00  0.00     0.214 C 
BRANCH  19  20
ATOM     20  C   UNL d   1      30.746 -23.229  -3.122  0.00  0.00    -0.034 A 
ATOM     21  C   UNL d   1      30.553 -23.192  -1.736  0.00  0.00     0.009 A 
ATOM     22  C   UNL d   1      29.730 -24.132  -1.119  0.00  0.00     0.001 A 
ATOM     23  C   UNL d   1      29.010 -25.041  -1.892  0.00  0.00     0.000 A 
ATOM     24  C   UNL d   1      29.133 -25.032  -3.280  0.00  0.00     0.001 A 
ATOM     25  C   UNL d   1      29.998 -24.129  -3.894  0.00  0.00     0.009 A 
ENDBRANCH  19  20
ENDBRANCH  18  19
ENDBRANCH  16  18
ENDBRANCH  11  12
ENDBRANCH   8  10
ENDBRANCH   1   6
BRANCH   4  26
ATOM     26  C   UNL d   1      27.190 -12.104  -0.889  0.00  0.00     0.295 C 
ATOM     27  O   UNL d   1      27.030 -10.908  -0.607  0.00  0.00    -0.264 OA
ATOM     28  N   UNL d   1      27.667 -13.036   0.069  0.00  0.00    -0.241 N 
ATOM     29  H   UNL d   1      27.797 -14.012  -0.165  0.00  0.00     0.192 HD
BRANCH  28  30
ATOM     30  N   UNL d   1      27.972 -12.623   1.360  0.00  0.00    -0.183 NA
ATOM     31  C   UNL d   1      27.464 -13.278   2.361  0.00  0.00     0.150 C 
BRANCH  31  32
ATOM     32  C   UNL d   1      27.737 -12.880   3.775  0.00  0.00    -0.014 A 
ATOM     33  C   UNL d   1      27.779 -11.536   4.163  0.00  0.00     0.013 A 
ATOM     34  C   UNL d   1      28.137 -11.197   5.477  0.00  0.00     0.004 A 
ATOM     35  C   UNL d   1      28.405 -12.200   6.411  0.00  0.00     0.037 A 
ATOM     36  C   UNL d   1      28.359 -13.540   6.026  0.00  0.00     0.070 A 
ATOM     37  C   UNL d   1      28.023 -13.876   4.709  0.00  0.00     0.049 A 
BRANCH  36  38
ATOM     38  O   UNL d   1      28.674 -14.437   7.011  0.00  0.00    -0.347 OA
BRANCH  38  39
ATOM     39  C   UNL d   1      29.788 -14.075   7.825  0.00  0.00     0.214 C 
BRANCH  39  40
ATOM     40  C   UNL d   1      29.409 -13.996   9.280  0.00  0.00    -0.034 A 
ATOM     41  C   UNL d   1      30.103 -14.713  10.262  0.00  0.00     0.009 A 
ATOM     42  C   UNL d   1      29.605 -14.784  11.562  0.00  0.00     0.001 A 
ATOM     43  C   UNL d   1      28.454 -14.076  11.907  0.00  0.00     0.000 A 
ATOM     44  C   UNL d   1      27.777 -13.330  10.945  0.00  0.00     0.001 A 
ATOM     45  C   UNL d   1      28.244 -13.299   9.635  0.00  0.00     0.009 A 
ENDBRANCH  39  40
ENDBRANCH  38  39
ENDBRANCH  36  38
ENDBRANCH  31  32
ENDBRANCH  28  30
ENDBRANCH   4  26
TORSDOF 12
ENDMDL
MODEL 4
REMARK VINA RESULT:    -8.197      6.777      9.772
REMARK INTER + INTRA:         -13.946
REMARK INTER:                 -11.777
REMARK INTRA:                  -2.169
REMARK CONF_INDEPENDENT:        3.580
REMARK UNBOUND:                -2.169
REMARK  12 active torsions:
REMARK  status: ('A' for Active; 'I' for Inactive)
REMARK       I    between atoms: C_2  and  N_3 
REMARK    1  A    between atoms: C_2  and  C_20 
REMARK    2  A    between atoms: N_3  and  N_4 
REMARK    3  A    between atoms: C_5  and  C_6 
REMARK    4  A    between atoms: C_10  and  O_11 
REMARK    5  A    between atoms: O_11  and  C_12 
REMARK    6  A    between atoms: C_12  and  C_13 
REMARK    7  A    between atoms: C_23  and  C_24 
REMARK       I    between atoms: C_24  and  N_26 
REMARK    8  A    between atoms: N_26  and  N_27 
REMARK    9  A    between atoms: C_28  and  C_29 
REMARK   10  A    between atoms: C_33  and  O_34 
REMARK   11  A    between atoms: O_34  and  C_35 
REMARK   12  A    between atoms: C_35  and  C_36 
ROOT
ATOM      1  C   UNL d   1      28.894 -13.704   4.750  0.00  0.00     0.145 A 
ATOM      2  C   UNL d   1      29.508 -14.737   5.439  0.00  0.00     0.046 A 
ATOM      3  C   UNL d   1      30.041 -14.209   6.640  0.00  0.00     0.046 A 
ATOM      4  C   UNL d   1      29.731 -12.859   6.677  0.00  0.00     0.145 A 
ATOM      5  O   UNL d   1      29.051 -12.541   5.489  0.00  0.00    -0.299 OA
ENDROOT
BRANCH   1   6
ATOM      6  C   UNL d   1      28.062 -13.820   3.538  0.00  0.00     0.295 C 
ATOM      7  O   UNL d   1      27.088 -13.076   3.392  0.00  0.00    -0.264 OA
ATOM      8  N   UNL d   1      28.331 -14.852   2.621  0.00  0.00    -0.241 N 
ATOM      9  H   UNL d   1      29.073 -15.520   2.791  0.00  0.00     0.192 HD
BRANCH   8  10
ATOM     10  N   UNL d   1      27.492 -15.005   1.518  0.00  0.00    -0.183 NA
ATOM     11  C   UNL d   1      27.359 -16.185   0.992  0.00  0.00     0.150 C 
BRANCH  11  12
ATOM     12  C   UNL d   1      26.536 -16.420  -0.233  0.00  0.00    -0.014 A 
ATOM     13  C   UNL d   1      26.862 -15.819  -1.454  0.00  0.00     0.013 A 
ATOM     14  C   UNL d   1      25.972 -15.899  -2.536  0.00  0.00     0.004 A 
ATOM     15  C   UNL d   1      24.784 -16.621  -2.413  0.00  0.00     0.037 A 
ATOM     16  C   UNL d   1      24.469 -17.245  -1.204  0.00  0.00     0.070 A 
ATOM     17  C   UNL d   1      25.351 -17.148  -0.121  0.00  0.00     0.049 A 
BRANCH  16  18
ATOM     18  O   UNL d   1      23.263 -17.891  -1.175  0.00  0.00    -0.347 OA
BRANCH  18  19
ATOM     19  C   UNL d   1      22.923 -18.511   0.071  0.00  0.00     0.214 C 
BRANCH  19  20
ATOM     20  C   UNL d   1      21.489 -18.967   0.033  0.00  0.00    -0.034 A 
ATOM     21  C   UNL d   1      20.812 -19.324   1.205  0.00  0.00     0.009 A 
ATOM     22  C   UNL d   1      19.543 -19.895   1.132  0.00  0.00     0.001 A 
ATOM     23  C   UNL d   1      18.900 -20.009  -0.099  0.00  0.00     0.000 A 
ATOM     24  C   UNL d   1      19.534 -19.580  -1.263  0.00  0.00     0.001 A 
ATOM     25  C   UNL d   1      20.825 -19.060  -1.199  0.00  0.00     0.009 A 
ENDBRANCH  19  20
ENDBRANCH  18  19
ENDBRANCH  16  18
ENDBRANCH  11  12
ENDBRANCH   8  10
ENDBRANCH   1   6
BRANCH   4  26
ATOM     26  C   UNL d   1      29.989 -11.830   7.704  0.00  0.00     0.295 C 
ATOM     27  O   UNL d   1      30.735 -12.044   8.669  0.00  0.00    -0.264 OA
ATOM     28  N   UNL d   1      29.335 -10.582   7.533  0.00  0.00    -0.241 N 
ATOM     29  H   UNL d   1      28.725 -10.411   6.743  0.00  0.00     0.192 HD
BRANCH  28  30
ATOM     30  N   UNL d   1      29.519  -9.560   8.456  0.00  0.00    -0.183 NA
ATOM     31  C   UNL d   1      29.329  -8.332   8.074  0.00  0.00     0.150 C 
BRANCH  31  32
ATOM     32  C   UNL d   1      29.523  -7.184   9.010  0.00  0.00    -0.014 A 
ATOM     33  C   UNL d   1      29.011  -5.913   8.728  0.00  0.00     0.013 A 
ATOM     34  C   UNL d   1      29.298  -4.836   9.581  0.00  0.00     0.004 A 
ATOM     35  C   UNL d   1      30.052  -5.041  10.738  0.00  0.00     0.037 A 
ATOM     36  C   UNL d   1      30.558  -6.309  11.024  0.00  0.00     0.070 A 
ATOM     37  C   UNL d   1      30.290  -7.378  10.159  0.00  0.00     0.049 A 
BRANCH  36  38
ATOM     38  O   UNL d   1      31.314  -6.389  12.163  0.00  0.00    -0.347 OA
BRANCH  38  39
ATOM     39  C   UNL d   1      32.652  -6.844  11.971  0.00  0.00     0.214 C 
BRANCH  39  40
ATOM     40  C   UNL d   1      32.687  -8.250  11.433  0.00  0.00    -0.034 A 
ATOM     41  C   UNL d   1      32.220  -9.337  12.182  0.00  0.00     0.009 A 
ATOM     42  C   UNL d   1      32.454 -10.640  11.746  0.00  0.00     0.001 A 
ATOM     43  C   UNL d   1      33.086 -10.863  10.524  0.00  0.00     0.000 A 
ATOM     44  C   UNL d   1      33.520  -9.787   9.754  0.00  0.00     0.001 A 
ATOM     45  C   UNL d   1      33.334  -8.486  10.211  0.00  0.00     0.009 A 
ENDBRANCH  39  40
ENDBRANCH  38  39
ENDBRANCH  36  38
ENDBRANCH  31  32
ENDBRANCH  28  30
ENDBRANCH   4  26
TORSDOF 12
ENDMDL
MODEL 5
REMARK VINA RESULT:    -8.186      4.948      5.629
REMARK INTER + INTRA:         -13.986
REMARK INTER:                 -11.765
REMARK INTRA:                  -2.220
REMARK CONF_INDEPENDENT:        3.580
REMARK UNBOUND:                -2.220
REMARK  12 active torsions:
REMARK  status: ('A' for Active; 'I' for Inactive)
REMARK       I    between atoms: C_2  and  N_3 
REMARK    1  A    between atoms: C_2  and  C_20 
REMARK    2  A    between atoms: N_3  and  N_4 
REMARK    3  A    between atoms: C_5  and  C_6 
REMARK    4  A    between atoms: C_10  and  O_11 
REMARK    5  A    between atoms: O_11  and  C_12 
REMARK    6  A    between atoms: C_12  and  C_13 
REMARK    7  A    between atoms: C_23  and  C_24 
REMARK       I    between atoms: C_24  and  N_26 
REMARK    8  A    between atoms: N_26  and  N_27 
REMARK    9  A    between atoms: C_28  and  C_29 
REMARK   10  A    between atoms: C_33  and  O_34 
REMARK   11  A    between atoms: O_34  and  C_35 
REMARK   12  A    between atoms: C_35  and  C_36 
ROOT
ATOM      1  C   UNL d   1      25.511 -15.158  -2.730  0.00  0.00     0.145 A 
ATOM      2  C   UNL d   1      24.535 -15.849  -2.031  0.00  0.00     0.046 A 
ATOM      3  C   UNL d   1      25.178 -16.666  -1.071  0.00  0.00     0.046 A 
ATOM      4  C   UNL d   1      26.542 -16.451  -1.186  0.00  0.00     0.145 A 
ATOM      5  O   UNL d   1      26.748 -15.542  -2.238  0.00  0.00    -0.299 OA
ENDROOT
BRANCH   1   6
ATOM      6  C   UNL d   1      25.298 -14.070  -3.704  0.00  0.00     0.295 C 
ATOM      7  O   UNL d   1      24.401 -14.170  -4.545  0.00  0.00    -0.264 OA
ATOM      8  N   UNL d   1      26.195 -12.986  -3.723  0.00  0.00    -0.241 N 
ATOM      9  H   UNL d   1      26.987 -12.953  -3.093  0.00  0.00     0.192 HD
BRANCH   8  10
ATOM     10  N   UNL d   1      26.036 -12.000  -4.697  0.00  0.00    -0.183 NA
ATOM     11  C   UNL d   1      25.729 -10.795  -4.324  0.00  0.00     0.150 C 
BRANCH  11  12
ATOM     12  C   UNL d   1      25.471  -9.701  -5.308  0.00  0.00    -0.014 A 
ATOM     13  C   UNL d   1      26.347  -9.459  -6.372  0.00  0.00     0.013 A 
ATOM     14  C   UNL d   1      26.189  -8.312  -7.166  0.00  0.00     0.004 A 
ATOM     15  C   UNL d   1      25.127  -7.438  -6.928  0.00  0.00     0.037 A 
ATOM     16  C   UNL d   1      24.235  -7.691  -5.883  0.00  0.00     0.070 A 
ATOM     17  C   UNL d   1      24.407  -8.827  -5.083  0.00  0.00     0.049 A 
BRANCH  16  18
ATOM     18  O   UNL d   1      23.255  -6.752  -5.708  0.00  0.00    -0.347 OA
BRANCH  18  19
ATOM     19  C   UNL d   1      22.974  -5.932  -6.848  0.00  0.00     0.214 C 
BRANCH  19  20
ATOM     20  C   UNL d   1      21.583  -6.222  -7.346  0.00  0.00    -0.034 A 
ATOM     21  C   UNL d   1      21.351  -6.575  -8.681  0.00  0.00     0.009 A 
ATOM     22  C   UNL d   1      20.048  -6.681  -9.160  0.00  0.00     0.001 A 
ATOM     23  C   UNL d   1      18.971  -6.544  -8.285  0.00  0.00     0.000 A 
ATOM     24  C   UNL d   1      19.194  -6.274  -6.936  0.00  0.00     0.001 A 
ATOM     25  C   UNL d   1      20.496  -6.113  -6.468  0.00  0.00     0.009 A 
ENDBRANCH  19  20
ENDBRANCH  18  19
ENDBRANCH  16  18
ENDBRANCH  11  12
ENDBRANCH   8  10
ENDBRANCH   1   6
BRANCH   4  26
ATOM     26  C   UNL d   1      27.680 -16.991  -0.415  0.00  0.00     0.295 C 
ATOM     27  O   UNL d   1      27.516 -17.790   0.518  0.00  0.00    -0.264 OA
ATOM     28  N   UNL d   1      28.974 -16.547  -0.793  0.00  0.00    -0.241 N 
ATOM     29  H   UNL d   1      29.104 -15.894  -1.555  0.00  0.00     0.192 HD
BRANCH  28  30
ATOM     30  N   UNL d   1      30.099 -17.002  -0.116  0.00  0.00    -0.183 NA
ATOM     31  C   UNL d   1      30.784 -16.156   0.594  0.00  0.00     0.150 C 
BRANCH  31  32
ATOM     32  C   UNL d   1      32.012 -16.574   1.335  0.00  0.00    -0.014 A 
ATOM     33  C   UNL d   1      32.865 -15.637   1.929  0.00  0.00     0.013 A 
ATOM     34  C   UNL d   1      34.060 -16.059   2.531  0.00  0.00     0.004 A 
ATOM     35  C   UNL d   1      34.377 -17.417   2.581  0.00  0.00     0.037 A 
ATOM     36  C   UNL d   1      33.525 -18.353   1.994  0.00  0.00     0.070 A 
ATOM     37  C   UNL d   1      32.344 -17.928   1.374  0.00  0.00     0.049 A 
BRANCH  36  38
ATOM     38  O   UNL d   1      33.952 -19.652   2.069  0.00  0.00    -0.347 OA
BRANCH  38  39
ATOM     39  C   UNL d   1      32.916 -20.622   2.211  0.00  0.00     0.214 C 
BRANCH  39  40
ATOM     40  C   UNL d   1      32.563 -20.849   3.657  0.00  0.00    -0.034 A 
ATOM     41  C   UNL d   1      33.540 -20.860   4.660  0.00  0.00     0.009 A 
ATOM     42  C   UNL d   1      33.215 -21.276   5.950  0.00  0.00     0.001 A 
ATOM     43  C   UNL d   1      31.897 -21.607   6.264  0.00  0.00     0.000 A 
ATOM     44  C   UNL d   1      30.911 -21.562   5.282  0.00  0.00     0.001 A 
ATOM     45  C   UNL d   1      31.244 -21.197   3.981  0.00  0.00     0.009 A 
ENDBRANCH  39  40
ENDBRANCH  38  39
ENDBRANCH  36  38
ENDBRANCH  31  32
ENDBRANCH  28  30
ENDBRANCH   4  26
TORSDOF 12
ENDMDL
MODEL 6
REMARK VINA RESULT:    -8.114      4.978     13.648
REMARK INTER + INTRA:         -13.671
REMARK INTER:                 -11.694
REMARK INTRA:                  -1.977
REMARK CONF_INDEPENDENT:        3.580
REMARK UNBOUND:                -1.977
REMARK  12 active torsions:
REMARK  status: ('A' for Active; 'I' for Inactive)
REMARK       I    between atoms: C_2  and  N_3 
REMARK    1  A    between atoms: C_2  and  C_20 
REMARK    2  A    between atoms: N_3  and  N_4 
REMARK    3  A    between atoms: C_5  and  C_6 
REMARK    4  A    between atoms: C_10  and  O_11 
REMARK    5  A    between atoms: O_11  and  C_12 
REMARK    6  A    between atoms: C_12  and  C_13 
REMARK    7  A    between atoms: C_23  and  C_24 
REMARK       I    between atoms: C_24  and  N_26 
REMARK    8  A    between atoms: N_26  and  N_27 
REMARK    9  A    between atoms: C_28  and  C_29 
REMARK   10  A    between atoms: C_33  and  O_34 
REMARK   11  A    between atoms: O_34  and  C_35 
REMARK   12  A    between atoms: C_35  and  C_36 
ROOT
ATOM      1  C   UNL d   1      27.223 -12.353  -2.451  0.00  0.00     0.145 A 
ATOM      2  C   UNL d   1      26.269 -11.936  -3.364  0.00  0.00     0.046 A 
ATOM      3  C   UNL d   1      26.344 -12.783  -4.495  0.00  0.00     0.046 A 
ATOM      4  C   UNL d   1      27.334 -13.720  -4.251  0.00  0.00     0.145 A 
ATOM      5  O   UNL d   1      27.902 -13.431  -2.999  0.00  0.00    -0.299 OA
ENDROOT
BRANCH   1   6
ATOM      6  C   UNL d   1      27.391 -11.874  -1.066  0.00  0.00     0.295 C 
ATOM      7  O   UNL d   1      27.893 -10.766  -0.859  0.00  0.00    -0.264 OA
ATOM      8  N   UNL d   1      27.074 -12.738  -0.002  0.00  0.00    -0.241 N 
ATOM      9  H   UNL d   1      26.751 -13.682  -0.174  0.00  0.00     0.192 HD
BRANCH   8  10
ATOM     10  N   UNL d   1      27.310 -12.308   1.304  0.00  0.00    -0.183 NA
ATOM     11  C   UNL d   1      27.524 -13.197   2.227  0.00  0.00     0.150 C 
BRANCH  11  12
ATOM     12  C   UNL d   1      27.713 -12.822   3.661  0.00  0.00    -0.014 A 
ATOM     13  C   UNL d   1      27.781 -11.483   4.060  0.00  0.00     0.013 A 
ATOM     14  C   UNL d   1      28.150 -11.160   5.375  0.00  0.00     0.004 A 
ATOM     15  C   UNL d   1      28.398 -12.173   6.301  0.00  0.00     0.037 A 
ATOM     16  C   UNL d   1      28.304 -13.512   5.913  0.00  0.00     0.070 A 
ATOM     17  C   UNL d   1      27.954 -13.830   4.596  0.00  0.00     0.049 A 
BRANCH  16  18
ATOM     18  O   UNL d   1      28.608 -14.426   6.884  0.00  0.00    -0.347 OA
BRANCH  18  19
ATOM     19  C   UNL d   1      29.631 -14.034   7.806  0.00  0.00     0.214 C 
BRANCH  19  20
ATOM     20  C   UNL d   1      29.044 -13.906   9.186  0.00  0.00    -0.034 A 
ATOM     21  C   UNL d   1      28.389 -12.735   9.588  0.00  0.00     0.009 A 
ATOM     22  C   UNL d   1      27.997 -12.575  10.915  0.00  0.00     0.001 A 
ATOM     23  C   UNL d   1      28.155 -13.623  11.821  0.00  0.00     0.000 A 
ATOM     24  C   UNL d   1      28.732 -14.823  11.409  0.00  0.00     0.001 A 
ATOM     25  C   UNL d   1      29.175 -14.965  10.096  0.00  0.00     0.009 A 
ENDBRANCH  19  20
ENDBRANCH  18  19
ENDBRANCH  16  18
ENDBRANCH  11  12
ENDBRANCH   8  10
ENDBRANCH   1   6
BRANCH   4  26
ATOM     26  C   UNL d   1      27.807 -14.868  -5.052  0.00  0.00     0.295 C 
ATOM     27  O   UNL d   1      27.250 -15.200  -6.108  0.00  0.00    -0.264 OA
ATOM     28  N   UNL d   1      28.931 -15.575  -4.551  0.00  0.00    -0.241 N 
ATOM     29  H   UNL d   1      29.383 -15.301  -3.687  0.00  0.00     0.192 HD
BRANCH  28  30
ATOM     30  N   UNL d   1      29.437 -16.670  -5.240  0.00  0.00    -0.183 NA
ATOM     31  C   UNL d   1      30.007 -17.623  -4.565  0.00  0.00     0.150 C 
BRANCH  31  32
ATOM     32  C   UNL d   1      30.585 -18.822  -5.243  0.00  0.00    -0.014 A 
ATOM     33  C   UNL d   1      30.783 -18.858  -6.628  0.00  0.00     0.013 A 
ATOM     34  C   UNL d   1      31.234 -20.036  -7.242  0.00  0.00     0.004 A 
ATOM     35  C   UNL d   1      31.533 -21.158  -6.467  0.00  0.00     0.037 A 
ATOM     36  C   UNL d   1      31.342 -21.123  -5.086  0.00  0.00     0.070 A 
ATOM     37  C   UNL d   1      30.870 -19.953  -4.478  0.00  0.00     0.049 A 
BRANCH  36  38
ATOM     38  O   UNL d   1      31.632 -22.289  -4.430  0.00  0.00    -0.347 OA
BRANCH  38  39
ATOM     39  C   UNL d   1      30.504 -22.979  -3.895  0.00  0.00     0.214 C 
BRANCH  39  40
ATOM     40  C   UNL d   1      30.533 -23.005  -2.389  0.00  0.00    -0.034 A 
ATOM     41  C   UNL d   1      29.769 -23.918  -1.653  0.00  0.00     0.009 A 
ATOM     42  C   UNL d   1      29.657 -23.785  -0.270  0.00  0.00     0.001 A 
ATOM     43  C   UNL d   1      30.370 -22.786   0.393  0.00  0.00     0.000 A 
ATOM     44  C   UNL d   1      31.163 -21.897  -0.327  0.00  0.00     0.001 A 
ATOM     45  C   UNL d   1      31.235 -21.996  -1.713  0.00  0.00     0.009 A 
ENDBRANCH  39  40
ENDBRANCH  38  39
ENDBRANCH  36  38
ENDBRANCH  31  32
ENDBRANCH  28  30
ENDBRANCH   4  26
TORSDOF 12
ENDMDL
MODEL 7
REMARK VINA RESULT:    -8.097      5.541      9.183
REMARK INTER + INTRA:         -13.662
REMARK INTER:                 -11.677
REMARK INTRA:                  -1.985
REMARK CONF_INDEPENDENT:        3.580
REMARK UNBOUND:                -1.985
REMARK  12 active torsions:
REMARK  status: ('A' for Active; 'I' for Inactive)
REMARK       I    between atoms: C_2  and  N_3 
REMARK    1  A    between atoms: C_2  and  C_20 
REMARK    2  A    between atoms: N_3  and  N_4 
REMARK    3  A    between atoms: C_5  and  C_6 
REMARK    4  A    between atoms: C_10  and  O_11 
REMARK    5  A    between atoms: O_11  and  C_12 
REMARK    6  A    between atoms: C_12  and  C_13 
REMARK    7  A    between atoms: C_23  and  C_24 
REMARK       I    between atoms: C_24  and  N_26 
REMARK    8  A    between atoms: N_26  and  N_27 
REMARK    9  A    between atoms: C_28  and  C_29 
REMARK   10  A    between atoms: C_33  and  O_34 
REMARK   11  A    between atoms: O_34  and  C_35 
REMARK   12  A    between atoms: C_35  and  C_36 
ROOT
ATOM      1  C   UNL d   1      26.933 -14.847  -3.921  0.00  0.00     0.145 A 
ATOM      2  C   UNL d   1      25.625 -14.408  -4.048  0.00  0.00     0.046 A 
ATOM      3  C   UNL d   1      25.176 -13.993  -2.771  0.00  0.00     0.046 A 
ATOM      4  C   UNL d   1      26.223 -14.170  -1.881  0.00  0.00     0.145 A 
ATOM      5  O   UNL d   1      27.299 -14.732  -2.590  0.00  0.00    -0.299 OA
ENDROOT
BRANCH   1   6
ATOM      6  C   UNL d   1      27.854 -15.208  -5.015  0.00  0.00     0.295 C 
ATOM      7  O   UNL d   1      27.450 -15.202  -6.181  0.00  0.00    -0.264 OA
ATOM      8  N   UNL d   1      29.148 -15.658  -4.697  0.00  0.00    -0.241 N 
ATOM      9  H   UNL d   1      29.446 -15.752  -3.733  0.00  0.00     0.192 HD
BRANCH   8  10
ATOM     10  N   UNL d   1      29.988 -16.073  -5.731  0.00  0.00    -0.183 NA
ATOM     11  C   UNL d   1      31.057 -15.381  -5.985  0.00  0.00     0.150 C 
BRANCH  11  12
ATOM     12  C   UNL d   1      31.969 -15.717  -7.119  0.00  0.00    -0.014 A 
ATOM     13  C   UNL d   1      32.644 -14.719  -7.830  0.00  0.00     0.013 A 
ATOM     14  C   UNL d   1      33.339 -15.041  -9.006  0.00  0.00     0.004 A 
ATOM     15  C   UNL d   1      33.402 -16.366  -9.441  0.00  0.00     0.037 A 
ATOM     16  C   UNL d   1      32.752 -17.369  -8.718  0.00  0.00     0.070 A 
ATOM     17  C   UNL d   1      32.045 -17.041  -7.555  0.00  0.00     0.049 A 
BRANCH  16  18
ATOM     18  O   UNL d   1      32.840 -18.627  -9.250  0.00  0.00    -0.347 OA
BRANCH  18  19
ATOM     19  C   UNL d   1      31.617 -19.371  -9.287  0.00  0.00     0.214 C 
BRANCH  19  20
ATOM     20  C   UNL d   1      31.396 -20.043  -7.958  0.00  0.00    -0.034 A 
ATOM     21  C   UNL d   1      30.470 -19.538  -7.037  0.00  0.00     0.009 A 
ATOM     22  C   UNL d   1      30.397 -20.075  -5.754  0.00  0.00     0.001 A 
ATOM     23  C   UNL d   1      31.166 -21.189  -5.419  0.00  0.00     0.000 A 
ATOM     24  C   UNL d   1      32.031 -21.749  -6.357  0.00  0.00     0.001 A 
ATOM     25  C   UNL d   1      32.146 -21.179  -7.623  0.00  0.00     0.009 A 
ENDBRANCH  19  20
ENDBRANCH  18  19
ENDBRANCH  16  18
ENDBRANCH  11  12
ENDBRANCH   8  10
ENDBRANCH   1   6
BRANCH   4  26
ATOM     26  C   UNL d   1      26.338 -13.863  -0.442  0.00  0.00     0.295 C 
ATOM     27  O   UNL d   1      25.861 -14.609   0.425  0.00  0.00    -0.264 OA
ATOM     28  N   UNL d   1      27.021 -12.667  -0.098  0.00  0.00    -0.241 N 
ATOM     29  H   UNL d   1      27.409 -12.060  -0.809  0.00  0.00     0.192 HD
BRANCH  28  30
ATOM     30  N   UNL d   1      27.169 -12.301   1.234  0.00  0.00    -0.183 NA
ATOM     31  C   UNL d   1      27.733 -13.139   2.053  0.00  0.00     0.150 C 
BRANCH  31  32
ATOM     32  C   UNL d   1      27.912 -12.816   3.500  0.00  0.00    -0.014 A 
ATOM     33  C   UNL d   1      27.845 -11.500   3.972  0.00  0.00     0.013 A 
ATOM     34  C   UNL d   1      28.117 -11.224   5.320  0.00  0.00     0.004 A 
ATOM     35  C   UNL d   1      28.406 -12.266   6.203  0.00  0.00     0.037 A 
ATOM     36  C   UNL d   1      28.468 -13.579   5.735  0.00  0.00     0.070 A 
ATOM     37  C   UNL d   1      28.218 -13.849   4.385  0.00  0.00     0.049 A 
BRANCH  36  38
ATOM     38  O   UNL d   1      28.796 -14.515   6.679  0.00  0.00    -0.347 OA
BRANCH  38  39
ATOM     39  C   UNL d   1      29.711 -14.073   7.679  0.00  0.00     0.214 C 
BRANCH  39  40
ATOM     40  C   UNL d   1      29.053 -13.979   9.030  0.00  0.00    -0.034 A 
ATOM     41  C   UNL d   1      28.236 -12.897   9.378  0.00  0.00     0.009 A 
ATOM     42  C   UNL d   1      27.812 -12.734  10.696  0.00  0.00     0.001 A 
ATOM     43  C   UNL d   1      28.137 -13.692  11.656  0.00  0.00     0.000 A 
ATOM     44  C   UNL d   1      28.918 -14.792  11.310  0.00  0.00     0.001 A 
ATOM     45  C   UNL d   1      29.386 -14.929  10.007  0.00  0.00     0.009 A 
ENDBRANCH  39  40
ENDBRANCH  38  39
ENDBRANCH  36  38
ENDBRANCH  31  32
ENDBRANCH  28  30
ENDBRANCH   4  26
TORSDOF 12
ENDMDL
MODEL 8
REMARK VINA RESULT:    -8.036      7.240     17.042
REMARK INTER + INTRA:         -14.071
REMARK INTER:                 -11.616
REMARK INTRA:                  -2.455
REMARK CONF_INDEPENDENT:        3.580
REMARK UNBOUND:                -2.455
REMARK  12 active torsions:
REMARK  status: ('A' for Active; 'I' for Inactive)
REMARK       I    between atoms: C_2  and  N_3 
REMARK    1  A    between atoms: C_2  and  C_20 
REMARK    2  A    between atoms: N_3  and  N_4 
REMARK    3  A    between atoms: C_5  and  C_6 
REMARK    4  A    between atoms: C_10  and  O_11 
REMARK    5  A    between atoms: O_11  and  C_12 
REMARK    6  A    between atoms: C_12  and  C_13 
REMARK    7  A    between atoms: C_23  and  C_24 
REMARK       I    between atoms: C_24  and  N_26 
REMARK    8  A    between atoms: N_26  and  N_27 
REMARK    9  A    between atoms: C_28  and  C_29 
REMARK   10  A    between atoms: C_33  and  O_34 
REMARK   11  A    between atoms: O_34  and  C_35 
REMARK   12  A    between atoms: C_35  and  C_36 
ROOT
ATOM      1  C   UNL d   1      33.825 -17.800   1.573  0.00  0.00     0.145 A 
ATOM      2  C   UNL d   1      34.439 -16.578   1.352  0.00  0.00     0.046 A 
ATOM      3  C   UNL d   1      33.503 -15.723   0.724  0.00  0.00     0.046 A 
ATOM      4  C   UNL d   1      32.320 -16.430   0.583  0.00  0.00     0.145 A 
ATOM      5  O   UNL d   1      32.532 -17.728   1.078  0.00  0.00    -0.299 OA
ENDROOT
BRANCH   1   6
ATOM      6  C   UNL d   1      34.361 -18.933   2.351  0.00  0.00     0.295 C 
ATOM      7  O   UNL d   1      35.569 -18.986   2.599  0.00  0.00    -0.264 OA
ATOM      8  N   UNL d   1      33.500 -19.987   2.704  0.00  0.00    -0.241 N 
ATOM      9  H   UNL d   1      32.528 -19.986   2.418  0.00  0.00     0.192 HD
BRANCH   8  10
ATOM     10  N   UNL d   1      34.030 -21.092   3.371  0.00  0.00    -0.183 NA
ATOM     11  C   UNL d   1      34.625 -22.015   2.678  0.00  0.00     0.150 C 
BRANCH  11  12
ATOM     12  C   UNL d   1      35.156 -23.262   3.308  0.00  0.00    -0.014 A 
ATOM     13  C   UNL d   1      35.402 -24.412   2.550  0.00  0.00     0.013 A 
ATOM     14  C   UNL d   1      35.715 -25.621   3.189  0.00  0.00     0.004 A 
ATOM     15  C   UNL d   1      35.832 -25.669   4.579  0.00  0.00     0.037 A 
ATOM     16  C   UNL d   1      35.613 -24.516   5.337  0.00  0.00     0.070 A 
ATOM     17  C   UNL d   1      35.284 -23.315   4.697  0.00  0.00     0.049 A 
BRANCH  16  18
ATOM     18  O   UNL d   1      35.711 -24.678   6.692  0.00  0.00    -0.347 OA
BRANCH  18  19
ATOM     19  C   UNL d   1      34.595 -24.203   7.454  0.00  0.00     0.214 C 
BRANCH  19  20
ATOM     20  C   UNL d   1      34.904 -22.836   8.002  0.00  0.00    -0.034 A 
ATOM     21  C   UNL d   1      34.474 -21.678   7.342  0.00  0.00     0.009 A 
ATOM     22  C   UNL d   1      34.906 -20.426   7.774  0.00  0.00     0.001 A 
ATOM     23  C   UNL d   1      35.678 -20.316   8.930  0.00  0.00     0.000 A 
ATOM     24  C   UNL d   1      36.042 -21.458   9.641  0.00  0.00     0.001 A 
ATOM     25  C   UNL d   1      35.657 -22.714   9.179  0.00  0.00     0.009 A 
ENDBRANCH  19  20
ENDBRANCH  18  19
ENDBRANCH  16  18
ENDBRANCH  11  12
ENDBRANCH   8  10
ENDBRANCH   1   6
BRANCH   4  26
ATOM     26  C   UNL d   1      31.004 -16.026   0.047  0.00  0.00     0.295 C 
ATOM     27  O   UNL d   1      30.839 -14.944  -0.533  0.00  0.00    -0.264 OA
ATOM     28  N   UNL d   1      29.934 -16.941   0.231  0.00  0.00    -0.241 N 
ATOM     29  H   UNL d   1      30.072 -17.824   0.706  0.00  0.00     0.192 HD
BRANCH  28  30
ATOM     30  N   UNL d   1      28.662 -16.637  -0.238  0.00  0.00    -0.183 NA
ATOM     31  C   UNL d   1      27.670 -17.405   0.104  0.00  0.00     0.150 C 
BRANCH  31  32
ATOM     32  C   UNL d   1      26.280 -17.146  -0.376  0.00  0.00    -0.014 A 
ATOM     33  C   UNL d   1      25.186 -17.860   0.126  0.00  0.00     0.013 A 
ATOM     34  C   UNL d   1      23.908 -17.660  -0.419  0.00  0.00     0.004 A 
ATOM     35  C   UNL d   1      23.718 -16.715  -1.428  0.00  0.00     0.037 A 
ATOM     36  C   UNL d   1      24.808 -15.999  -1.926  0.00  0.00     0.070 A 
ATOM     37  C   UNL d   1      26.085 -16.216  -1.396  0.00  0.00     0.049 A 
BRANCH  36  38
ATOM     38  O   UNL d   1      24.513 -15.126  -2.939  0.00  0.00    -0.347 OA
BRANCH  38  39
ATOM     39  C   UNL d   1      25.185 -13.870  -2.871  0.00  0.00     0.214 C 
BRANCH  39  40
ATOM     40  C   UNL d   1      26.211 -13.730  -3.964  0.00  0.00    -0.034 A 
ATOM     41  C   UNL d   1      26.461 -12.501  -4.586  0.00  0.00     0.009 A 
ATOM     42  C   UNL d   1      27.260 -12.444  -5.727  0.00  0.00     0.001 A 
ATOM     43  C   UNL d   1      27.876 -13.599  -6.205  0.00  0.00     0.000 A 
ATOM     44  C   UNL d   1      27.664 -14.820  -5.570  0.00  0.00     0.001 A 
ATOM     45  C   UNL d   1      26.825 -14.889  -4.462  0.00  0.00     0.009 A 
ENDBRANCH  39  40
ENDBRANCH  38  39
ENDBRANCH  36  38
ENDBRANCH  31  32
ENDBRANCH  28  30
ENDBRANCH   4  26
TORSDOF 12
ENDMDL
MODEL 9
REMARK VINA RESULT:    -7.946      1.154     14.526
REMARK INTER + INTRA:         -13.879
REMARK INTER:                 -11.525
REMARK INTRA:                  -2.354
REMARK CONF_INDEPENDENT:        3.580
REMARK UNBOUND:                -2.354
REMARK  12 active torsions:
REMARK  status: ('A' for Active; 'I' for Inactive)
REMARK       I    between atoms: C_2  and  N_3 
REMARK    1  A    between atoms: C_2  and  C_20 
REMARK    2  A    between atoms: N_3  and  N_4 
REMARK    3  A    between atoms: C_5  and  C_6 
REMARK    4  A    between atoms: C_10  and  O_11 
REMARK    5  A    between atoms: O_11  and  C_12 
REMARK    6  A    between atoms: C_12  and  C_13 
REMARK    7  A    between atoms: C_23  and  C_24 
REMARK       I    between atoms: C_24  and  N_26 
REMARK    8  A    between atoms: N_26  and  N_27 
REMARK    9  A    between atoms: C_28  and  C_29 
REMARK   10  A    between atoms: C_33  and  O_34 
REMARK   11  A    between atoms: O_34  and  C_35 
REMARK   12  A    between atoms: C_35  and  C_36 
ROOT
ATOM      1  C   UNL d   1      26.556 -15.282  -0.556  0.00  0.00     0.145 A 
ATOM      2  C   UNL d   1      26.114 -16.427  -1.197  0.00  0.00     0.046 A 
ATOM      3  C   UNL d   1      25.555 -16.046  -2.440  0.00  0.00     0.046 A 
ATOM      4  C   UNL d   1      25.676 -14.671  -2.549  0.00  0.00     0.145 A 
ATOM      5  O   UNL d   1      26.266 -14.195  -1.366  0.00  0.00    -0.299 OA
ENDROOT
BRANCH   1   6
ATOM      6  C   UNL d   1      27.356 -15.214   0.682  0.00  0.00     0.295 C 
ATOM      7  O   UNL d   1      27.566 -16.242   1.331  0.00  0.00    -0.264 OA
ATOM      8  N   UNL d   1      27.772 -13.957   1.157  0.00  0.00    -0.241 N 
ATOM      9  H   UNL d   1      27.518 -13.105   0.672  0.00  0.00     0.192 HD
BRANCH   8  10
ATOM     10  N   UNL d   1      28.460 -13.892   2.369  0.00  0.00    -0.183 NA
ATOM     11  C   UNL d   1      27.778 -13.824   3.473  0.00  0.00     0.150 C 
BRANCH  11  12
ATOM     12  C   UNL d   1      28.438 -13.679   4.805  0.00  0.00    -0.014 A 
ATOM     13  C   UNL d   1      29.539 -14.467   5.161  0.00  0.00     0.013 A 
ATOM     14  C   UNL d   1      30.019 -14.450   6.479  0.00  0.00     0.004 A 
ATOM     15  C   UNL d   1      29.432 -13.610   7.427  0.00  0.00     0.037 A 
ATOM     16  C   UNL d   1      28.350 -12.802   7.068  0.00  0.00     0.070 A 
ATOM     17  C   UNL d   1      27.863 -12.835   5.756  0.00  0.00     0.049 A 
BRANCH  16  18
ATOM     18  O   UNL d   1      27.821 -12.047   8.079  0.00  0.00    -0.347 OA
BRANCH  18  19
ATOM     19  C   UNL d   1      28.772 -11.460   8.975  0.00  0.00     0.214 C 
BRANCH  19  20
ATOM     20  C   UNL d   1      29.735 -10.604   8.198  0.00  0.00    -0.034 A 
ATOM     21  C   UNL d   1      29.280  -9.561   7.382  0.00  0.00     0.009 A 
ATOM     22  C   UNL d   1      30.169  -8.887   6.548  0.00  0.00     0.001 A 
ATOM     23  C   UNL d   1      31.532  -9.174   6.605  0.00  0.00     0.000 A 
ATOM     24  C   UNL d   1      32.005 -10.155   7.475  0.00  0.00     0.001 A 
ATOM     25  C   UNL d   1      31.110 -10.868   8.269  0.00  0.00     0.009 A 
ENDBRANCH  19  20
ENDBRANCH  18  19
ENDBRANCH  16  18
ENDBRANCH  11  12
ENDBRANCH   8  10
ENDBRANCH   1   6
BRANCH   4  26
ATOM     26  C   UNL d   1      25.314 -13.746  -3.643  0.00  0.00     0.295 C 
ATOM     27  O   UNL d   1      24.586 -14.098  -4.581  0.00  0.00    -0.264 OA
ATOM     28  N   UNL d   1      25.845 -12.432  -3.567  0.00  0.00    -0.241 N 
ATOM     29  H   UNL d   1      26.440 -12.148  -2.799  0.00  0.00     0.192 HD
BRANCH  28  30
ATOM     30  N   UNL d   1      25.557 -11.500  -4.557  0.00  0.00    -0.183 NA
ATOM     31  C   UNL d   1      25.546 -10.239  -4.243  0.00  0.00     0.150 C 
BRANCH  31  32
ATOM     32  C   UNL d   1      25.232  -9.185  -5.253  0.00  0.00    -0.014 A 
ATOM     33  C   UNL d   1      26.054  -8.964  -6.364  0.00  0.00     0.013 A 
ATOM     34  C   UNL d   1      25.782  -7.901  -7.238  0.00  0.00     0.004 A 
ATOM     35  C   UNL d   1      24.664  -7.092  -7.029  0.00  0.00     0.037 A 
ATOM     36  C   UNL d   1      23.840  -7.314  -5.925  0.00  0.00     0.070 A 
ATOM     37  C   UNL d   1      24.126  -8.362  -5.042  0.00  0.00     0.049 A 
BRANCH  36  38
ATOM     38  O   UNL d   1      22.794  -6.439  -5.797  0.00  0.00    -0.347 OA
BRANCH  38  39
ATOM     39  C   UNL d   1      22.466  -5.712  -6.979  0.00  0.00     0.214 C 
BRANCH  39  40
ATOM     40  C   UNL d   1      21.059  -6.000  -7.434  0.00  0.00    -0.034 A 
ATOM     41  C   UNL d   1      20.015  -6.193  -6.521  0.00  0.00     0.009 A 
ATOM     42  C   UNL d   1      18.778  -6.660  -6.961  0.00  0.00     0.001 A 
ATOM     43  C   UNL d   1      18.553  -6.861  -8.323  0.00  0.00     0.000 A 
ATOM     44  C   UNL d   1      19.574  -6.635  -9.242  0.00  0.00     0.001 A 
ATOM     45  C   UNL d   1      20.826  -6.219  -8.800  0.00  0.00     0.009 A 
ENDBRANCH  39  40
ENDBRANCH  38  39
ENDBRANCH  36  38
ENDBRANCH  31  32
ENDBRANCH  28  30
ENDBRANCH   4  26
TORSDOF 12
ENDMDL
