MODEL 1
REMARK VINA RESULT:    -8.182      0.000      0.000
REMARK INTER + INTRA:         -10.165
REMARK INTER:                  -9.077
REMARK INTRA:                  -1.087
REMARK CONF_INDEPENDENT:        0.895
REMARK UNBOUND:                -1.087
REMARK  3 active torsions:
REMARK  status: ('A' for Active; 'I' for Inactive)
REMARK    1  A    between atoms: C_7  and  N_8 
REMARK       I    between atoms: N_8  and  C_9 
REMARK    2  A    between atoms: C_9  and  C_11 
REMARK    3  A    between atoms: C_16  and  O_17 
ROOT
ATOM      1  N   UNL d   1      23.042 -17.323  -0.457  0.00  0.00    -0.321 N 
ATOM      2  C   UNL d   1      22.418 -18.449  -0.973  0.00  0.00     0.259 C 
ATOM      3  O   UNL d   1      22.752 -19.084  -1.975  0.00  0.00    -0.267 OA
ATOM      4  H   UNL d   1      22.644 -16.903   0.381  0.00  0.00     0.169 HD
ENDROOT
BRANCH   1   5
ATOM      5  C   UNL d   1      24.178 -16.673  -1.016  0.00  0.00     0.057 A 
ATOM      6  C   UNL d   1      25.483 -16.995  -0.603  0.00  0.00     0.060 A 
ATOM      7  C   UNL d   1      26.594 -16.348  -1.169  0.00  0.00     0.026 A 
ATOM      8 CL   UNL d   1      25.779 -18.196   0.606  0.00  0.00    -0.082 Cl
ATOM      9  C   UNL d   1      26.422 -15.381  -2.161  0.00  0.00     0.008 A 
ATOM     10  C   UNL d   1      25.139 -15.045  -2.581  0.00  0.00    -0.060 A 
ATOM     11  C   UNL d   1      24.891 -14.013  -3.640  0.00  0.00     0.048 C 
ATOM     12  C   UNL d   1      24.040 -15.686  -1.999  0.00  0.00     0.038 A 
ENDBRANCH   1   5
BRANCH   2  13
ATOM     13  C   UNL d   1      21.250 -18.992  -0.250  0.00  0.00     0.065 A 
ATOM     14  C   UNL d   1      21.291 -18.950   1.154  0.00  0.00     0.020 A 
ATOM     15  C   UNL d   1      20.280 -19.540   1.910  0.00  0.00     0.001 A 
ATOM     16  C   UNL d   1      19.238 -20.199   1.263  0.00  0.00     0.003 A 
ATOM     17  C   UNL d   1      19.199 -20.261  -0.136  0.00  0.00     0.037 A 
ATOM     18  C   UNL d   1      20.198 -19.645  -0.893  0.00  0.00     0.081 A 
BRANCH  18  19
ATOM     19  O   UNL d   1      20.168 -19.700  -2.258  0.00  0.00    -0.360 OA
ATOM     20  H   UNL d   1      21.034 -19.450  -2.616  0.00  0.00     0.217 HD
ENDBRANCH  18  19
ENDBRANCH   2  13
TORSDOF 3
ENDMDL
MODEL 2
REMARK VINA RESULT:    -7.953      1.789      2.674
REMARK INTER + INTRA:          -9.752
REMARK INTER:                  -8.848
REMARK INTRA:                  -0.904
REMARK CONF_INDEPENDENT:        0.895
REMARK UNBOUND:                -0.904
REMARK  3 active torsions:
REMARK  status: ('A' for Active; 'I' for Inactive)
REMARK    1  A    between atoms: C_7  and  N_8 
REMARK       I    between atoms: N_8  and  C_9 
REMARK    2  A    between atoms: C_9  and  C_11 
REMARK    3  A    between atoms: C_16  and  O_17 
ROOT
ATOM      1  N   UNL d   1      22.444 -18.574   0.583  0.00  0.00    -0.321 N 
ATOM      2  C   UNL d   1      21.400 -19.001  -0.224  0.00  0.00     0.259 C 
ATOM      3  O   UNL d   1      21.350 -18.954  -1.454  0.00  0.00    -0.267 OA
ATOM      4  H   UNL d   1      22.336 -18.674   1.590  0.00  0.00     0.169 HD
ENDROOT
BRANCH   1   5
ATOM      5  C   UNL d   1      23.651 -17.970   0.130  0.00  0.00     0.057 A 
ATOM      6  C   UNL d   1      23.642 -16.745  -0.560  0.00  0.00     0.060 A 
ATOM      7  C   UNL d   1      24.842 -16.159  -0.996  0.00  0.00     0.026 A 
ATOM      8 CL   UNL d   1      22.167 -15.905  -0.895  0.00  0.00    -0.082 Cl
ATOM      9  C   UNL d   1      26.067 -16.780  -0.742  0.00  0.00     0.008 A 
ATOM     10  C   UNL d   1      26.098 -17.995  -0.065  0.00  0.00    -0.060 A 
ATOM     11  C   UNL d   1      27.381 -18.709   0.235  0.00  0.00     0.048 C 
ATOM     12  C   UNL d   1      24.894 -18.575   0.351  0.00  0.00     0.038 A 
ENDBRANCH   1   5
BRANCH   2  13
ATOM     13  C   UNL d   1      20.223 -19.615   0.426  0.00  0.00     0.065 A 
ATOM     14  C   UNL d   1      20.282 -19.793   1.819  0.00  0.00     0.020 A 
ATOM     15  C   UNL d   1      19.262 -20.463   2.490  0.00  0.00     0.001 A 
ATOM     16  C   UNL d   1      18.191 -20.982   1.766  0.00  0.00     0.003 A 
ATOM     17  C   UNL d   1      18.134 -20.824   0.376  0.00  0.00     0.037 A 
ATOM     18  C   UNL d   1      19.144 -20.128  -0.293  0.00  0.00     0.081 A 
BRANCH  18  19
ATOM     19  O   UNL d   1      19.095 -19.969  -1.649  0.00  0.00    -0.360 OA
ATOM     20  H   UNL d   1      19.244 -19.037  -1.876  0.00  0.00     0.217 HD
ENDBRANCH  18  19
ENDBRANCH   2  13
TORSDOF 3
ENDMDL
MODEL 3
REMARK VINA RESULT:    -6.936      3.182      7.407
REMARK INTER + INTRA:          -8.847
REMARK INTER:                  -7.831
REMARK INTRA:                  -1.016
REMARK CONF_INDEPENDENT:        0.895
REMARK UNBOUND:                -1.016
REMARK  3 active torsions:
REMARK  status: ('A' for Active; 'I' for Inactive)
REMARK    1  A    between atoms: C_7  and  N_8 
REMARK       I    between atoms: N_8  and  C_9 
REMARK    2  A    between atoms: C_9  and  C_11 
REMARK    3  A    between atoms: C_16  and  O_17 
ROOT
ATOM      1  N   UNL d   1      26.154 -15.946  -2.722  0.00  0.00    -0.321 N 
ATOM      2  C   UNL d   1      25.530 -14.909  -3.400  0.00  0.00     0.259 C 
ATOM      3  O   UNL d   1      24.402 -14.461  -3.187  0.00  0.00    -0.267 OA
ATOM      4  H   UNL d   1      27.092 -16.208  -3.018  0.00  0.00     0.169 HD
ENDROOT
BRANCH   1   5
ATOM      5  C   UNL d   1      25.584 -16.707  -1.663  0.00  0.00     0.057 A 
ATOM      6  C   UNL d   1      26.369 -17.177  -0.594  0.00  0.00     0.060 A 
ATOM      7  C   UNL d   1      25.790 -17.922   0.446  0.00  0.00     0.026 A 
ATOM      8 CL   UNL d   1      28.066 -16.856  -0.509  0.00  0.00    -0.082 Cl
ATOM      9  C   UNL d   1      24.422 -18.200   0.443  0.00  0.00     0.008 A 
ATOM     10  C   UNL d   1      23.628 -17.749  -0.607  0.00  0.00    -0.060 A 
ATOM     11  C   UNL d   1      22.155 -18.018  -0.667  0.00  0.00     0.048 C 
ATOM     12  C   UNL d   1      24.220 -17.020  -1.645  0.00  0.00     0.038 A 
ENDBRANCH   1   5
BRANCH   2  13
ATOM     13  C   UNL d   1      26.282 -14.225  -4.472  0.00  0.00     0.065 A 
ATOM     14  C   UNL d   1      27.219 -14.992  -5.186  0.00  0.00     0.020 A 
ATOM     15  C   UNL d   1      28.045 -14.396  -6.136  0.00  0.00     0.001 A 
ATOM     16  C   UNL d   1      27.957 -13.023  -6.355  0.00  0.00     0.003 A 
ATOM     17  C   UNL d   1      27.039 -12.249  -5.635  0.00  0.00     0.037 A 
ATOM     18  C   UNL d   1      26.191 -12.852  -4.703  0.00  0.00     0.081 A 
BRANCH  18  19
ATOM     19  O   UNL d   1      25.292 -12.104  -3.996  0.00  0.00    -0.360 OA
ATOM     20  H   UNL d   1      24.405 -12.487  -4.085  0.00  0.00     0.217 HD
ENDBRANCH  18  19
ENDBRANCH   2  13
TORSDOF 3
ENDMDL
MODEL 4
REMARK VINA RESULT:    -6.870      3.076      7.414
REMARK INTER + INTRA:          -8.800
REMARK INTER:                  -7.765
REMARK INTRA:                  -1.035
REMARK CONF_INDEPENDENT:        0.895
REMARK UNBOUND:                -1.035
REMARK  3 active torsions:
REMARK  status: ('A' for Active; 'I' for Inactive)
REMARK    1  A    between atoms: C_7  and  N_8 
REMARK       I    between atoms: N_8  and  C_9 
REMARK    2  A    between atoms: C_9  and  C_11 
REMARK    3  A    between atoms: C_16  and  O_17 
ROOT
ATOM      1  N   UNL d   1      26.246 -15.644  -2.681  0.00  0.00    -0.321 N 
ATOM      2  C   UNL d   1      25.515 -14.688  -3.370  0.00  0.00     0.259 C 
ATOM      3  O   UNL d   1      24.312 -14.450  -3.249  0.00  0.00    -0.267 OA
ATOM      4  H   UNL d   1      27.238 -15.726  -2.894  0.00  0.00     0.169 HD
ENDROOT
BRANCH   1   5
ATOM      5  C   UNL d   1      25.724 -16.554  -1.718  0.00  0.00     0.057 A 
ATOM      6  C   UNL d   1      26.537 -17.095  -0.706  0.00  0.00     0.060 A 
ATOM      7  C   UNL d   1      26.006 -17.987   0.240  0.00  0.00     0.026 A 
ATOM      8 CL   UNL d   1      28.213 -16.686  -0.576  0.00  0.00    -0.082 Cl
ATOM      9  C   UNL d   1      24.657 -18.343   0.198  0.00  0.00     0.008 A 
ATOM     10  C   UNL d   1      23.836 -17.823  -0.797  0.00  0.00    -0.060 A 
ATOM     11  C   UNL d   1      22.381 -18.170  -0.895  0.00  0.00     0.048 C 
ATOM     12  C   UNL d   1      24.381 -16.947  -1.743  0.00  0.00     0.038 A 
ENDBRANCH   1   5
BRANCH   2  13
ATOM     13  C   UNL d   1      26.230 -13.823  -4.330  0.00  0.00     0.065 A 
ATOM     14  C   UNL d   1      25.754 -12.509  -4.485  0.00  0.00     0.020 A 
ATOM     15  C   UNL d   1      26.303 -11.667  -5.449  0.00  0.00     0.001 A 
ATOM     16  C   UNL d   1      27.312 -12.145  -6.282  0.00  0.00     0.003 A 
ATOM     17  C   UNL d   1      27.780 -13.457  -6.146  0.00  0.00     0.037 A 
ATOM     18  C   UNL d   1      27.248 -14.293  -5.160  0.00  0.00     0.081 A 
BRANCH  18  19
ATOM     19  O   UNL d   1      27.699 -15.575  -5.020  0.00  0.00    -0.360 OA
ATOM     20  H   UNL d   1      28.663 -15.574  -4.913  0.00  0.00     0.217 HD
ENDBRANCH  18  19
ENDBRANCH   2  13
TORSDOF 3
ENDMDL
MODEL 5
REMARK VINA RESULT:    -5.979      2.902      7.069
REMARK INTER + INTRA:          -7.930
REMARK INTER:                  -6.873
REMARK INTRA:                  -1.057
REMARK CONF_INDEPENDENT:        0.895
REMARK UNBOUND:                -1.057
REMARK  3 active torsions:
REMARK  status: ('A' for Active; 'I' for Inactive)
REMARK    1  A    between atoms: C_7  and  N_8 
REMARK       I    between atoms: N_8  and  C_9 
REMARK    2  A    between atoms: C_9  and  C_11 
REMARK    3  A    between atoms: C_16  and  O_17 
ROOT
ATOM      1  N   UNL d   1      25.331 -15.033  -1.375  0.00  0.00    -0.321 N 
ATOM      2  C   UNL d   1      25.446 -14.600  -2.688  0.00  0.00     0.259 C 
ATOM      3  O   UNL d   1      25.153 -15.234  -3.703  0.00  0.00    -0.267 OA
ATOM      4  H   UNL d   1      25.620 -14.393  -0.638  0.00  0.00     0.169 HD
ENDROOT
BRANCH   1   5
ATOM      5  C   UNL d   1      24.875 -16.317  -0.961  0.00  0.00     0.057 A 
ATOM      6  C   UNL d   1      25.748 -17.253  -0.380  0.00  0.00     0.060 A 
ATOM      7  C   UNL d   1      25.281 -18.512   0.029  0.00  0.00     0.026 A 
ATOM      8 CL   UNL d   1      27.424 -16.896  -0.136  0.00  0.00    -0.082 Cl
ATOM      9  C   UNL d   1      23.936 -18.853  -0.126  0.00  0.00     0.008 A 
ATOM     10  C   UNL d   1      23.056 -17.944  -0.703  0.00  0.00    -0.060 A 
ATOM     11  C   UNL d   1      21.602 -18.254  -0.898  0.00  0.00     0.048 C 
ATOM     12  C   UNL d   1      23.537 -16.698  -1.119  0.00  0.00     0.038 A 
ENDBRANCH   1   5
BRANCH   2  13
ATOM     13  C   UNL d   1      25.934 -13.226  -2.928  0.00  0.00     0.065 A 
ATOM     14  C   UNL d   1      26.710 -12.637  -1.916  0.00  0.00     0.020 A 
ATOM     15  C   UNL d   1      27.115 -11.308  -2.018  0.00  0.00     0.001 A 
ATOM     16  C   UNL d   1      26.720 -10.554  -3.120  0.00  0.00     0.003 A 
ATOM     17  C   UNL d   1      25.931 -11.129  -4.124  0.00  0.00     0.037 A 
ATOM     18  C   UNL d   1      25.549 -12.470  -4.035  0.00  0.00     0.081 A 
BRANCH  18  19
ATOM     19  O   UNL d   1      24.780 -13.038  -5.011  0.00  0.00    -0.360 OA
ATOM     20  H   UNL d   1      24.968 -13.988  -5.065  0.00  0.00     0.217 HD
ENDBRANCH  18  19
ENDBRANCH   2  13
TORSDOF 3
ENDMDL
MODEL 6
REMARK VINA RESULT:    -5.847      5.302      7.750
REMARK INTER + INTRA:          -7.779
REMARK INTER:                  -6.742
REMARK INTRA:                  -1.036
REMARK CONF_INDEPENDENT:        0.895
REMARK UNBOUND:                -1.036
REMARK  3 active torsions:
REMARK  status: ('A' for Active; 'I' for Inactive)
REMARK    1  A    between atoms: C_7  and  N_8 
REMARK       I    between atoms: N_8  and  C_9 
REMARK    2  A    between atoms: C_9  and  C_11 
REMARK    3  A    between atoms: C_16  and  O_17 
ROOT
ATOM      1  N   UNL d   1      27.697 -15.167   1.280  0.00  0.00    -0.321 N 
ATOM      2  C   UNL d   1      27.401 -14.195   2.223  0.00  0.00     0.259 C 
ATOM      3  O   UNL d   1      26.531 -13.326   2.141  0.00  0.00    -0.267 OA
ATOM      4  H   UNL d   1      28.453 -15.817   1.489  0.00  0.00     0.169 HD
ENDROOT
BRANCH   1   5
ATOM      5  C   UNL d   1      27.057 -15.321   0.018  0.00  0.00     0.057 A 
ATOM      6  C   UNL d   1      26.541 -16.562  -0.396  0.00  0.00     0.060 A 
ATOM      7  C   UNL d   1      25.907 -16.697  -1.642  0.00  0.00     0.026 A 
ATOM      8 CL   UNL d   1      26.655 -17.969   0.606  0.00  0.00    -0.082 Cl
ATOM      9  C   UNL d   1      25.769 -15.595  -2.488  0.00  0.00     0.008 A 
ATOM     10  C   UNL d   1      26.276 -14.359  -2.101  0.00  0.00    -0.060 A 
ATOM     11  C   UNL d   1      26.160 -13.141  -2.968  0.00  0.00     0.048 C 
ATOM     12  C   UNL d   1      26.918 -14.242  -0.863  0.00  0.00     0.038 A 
ENDBRANCH   1   5
BRANCH   2  13
ATOM     13  C   UNL d   1      28.168 -14.193   3.486  0.00  0.00     0.065 A 
ATOM     14  C   UNL d   1      27.488 -13.788   4.647  0.00  0.00     0.020 A 
ATOM     15  C   UNL d   1      28.168 -13.654   5.856  0.00  0.00     0.001 A 
ATOM     16  C   UNL d   1      29.538 -13.898   5.901  0.00  0.00     0.003 A 
ATOM     17  C   UNL d   1      30.227 -14.286   4.745  0.00  0.00     0.037 A 
ATOM     18  C   UNL d   1      29.539 -14.447   3.540  0.00  0.00     0.081 A 
BRANCH  18  19
ATOM     19  O   UNL d   1      30.203 -14.825   2.407  0.00  0.00    -0.360 OA
ATOM     20  H   UNL d   1      30.441 -15.764   2.465  0.00  0.00     0.217 HD
ENDBRANCH  18  19
ENDBRANCH   2  13
TORSDOF 3
ENDMDL
MODEL 7
REMARK VINA RESULT:    -5.656      3.833      5.597
REMARK INTER + INTRA:          -7.594
REMARK INTER:                  -6.551
REMARK INTRA:                  -1.043
REMARK CONF_INDEPENDENT:        0.895
REMARK UNBOUND:                -1.043
REMARK  3 active torsions:
REMARK  status: ('A' for Active; 'I' for Inactive)
REMARK    1  A    between atoms: C_7  and  N_8 
REMARK       I    between atoms: N_8  and  C_9 
REMARK    2  A    between atoms: C_9  and  C_11 
REMARK    3  A    between atoms: C_16  and  O_17 
ROOT
ATOM      1  N   UNL d   1      26.890 -15.469  -3.412  0.00  0.00    -0.321 N 
ATOM      2  C   UNL d   1      25.624 -15.517  -2.849  0.00  0.00     0.259 C 
ATOM      3  O   UNL d   1      24.653 -14.823  -3.156  0.00  0.00    -0.267 OA
ATOM      4  H   UNL d   1      27.595 -16.106  -3.046  0.00  0.00     0.169 HD
ENDROOT
BRANCH   1   5
ATOM      5  C   UNL d   1      27.309 -14.578  -4.440  0.00  0.00     0.057 A 
ATOM      6  C   UNL d   1      28.428 -14.861  -5.244  0.00  0.00     0.060 A 
ATOM      7  C   UNL d   1      28.825 -13.975  -6.258  0.00  0.00     0.026 A 
ATOM      8 CL   UNL d   1      29.356 -16.306  -5.027  0.00  0.00    -0.082 Cl
ATOM      9  C   UNL d   1      28.108 -12.800  -6.493  0.00  0.00     0.008 A 
ATOM     10  C   UNL d   1      27.001 -12.499  -5.707  0.00  0.00    -0.060 A 
ATOM     11  C   UNL d   1      26.193 -11.252  -5.910  0.00  0.00     0.048 C 
ATOM     12  C   UNL d   1      26.624 -13.383  -4.690  0.00  0.00     0.038 A 
ENDBRANCH   1   5
BRANCH   2  13
ATOM     13  C   UNL d   1      25.368 -16.517  -1.793  0.00  0.00     0.065 A 
ATOM     14  C   UNL d   1      24.027 -16.855  -1.543  0.00  0.00     0.020 A 
ATOM     15  C   UNL d   1      23.695 -17.707  -0.491  0.00  0.00     0.001 A 
ATOM     16  C   UNL d   1      24.703 -18.201   0.333  0.00  0.00     0.003 A 
ATOM     17  C   UNL d   1      26.040 -17.855   0.102  0.00  0.00     0.037 A 
ATOM     18  C   UNL d   1      26.374 -17.024  -0.970  0.00  0.00     0.081 A 
BRANCH  18  19
ATOM     19  O   UNL d   1      27.676 -16.681  -1.203  0.00  0.00    -0.360 OA
ATOM     20  H   UNL d   1      28.110 -16.454  -0.365  0.00  0.00     0.217 HD
ENDBRANCH  18  19
ENDBRANCH   2  13
TORSDOF 3
ENDMDL
MODEL 8
REMARK VINA RESULT:    -5.504      5.411      8.009
REMARK INTER + INTRA:          -7.465
REMARK INTER:                  -6.399
REMARK INTRA:                  -1.066
REMARK CONF_INDEPENDENT:        0.895
REMARK UNBOUND:                -1.066
REMARK  3 active torsions:
REMARK  status: ('A' for Active; 'I' for Inactive)
REMARK    1  A    between atoms: C_7  and  N_8 
REMARK       I    between atoms: N_8  and  C_9 
REMARK    2  A    between atoms: C_9  and  C_11 
REMARK    3  A    between atoms: C_16  and  O_17 
ROOT
ATOM      1  N   UNL d   1      27.663 -15.246   1.352  0.00  0.00    -0.321 N 
ATOM      2  C   UNL d   1      27.406 -14.213   2.241  0.00  0.00     0.259 C 
ATOM      3  O   UNL d   1      26.538 -13.345   2.134  0.00  0.00    -0.267 OA
ATOM      4  H   UNL d   1      28.422 -15.886   1.576  0.00  0.00     0.169 HD
ENDROOT
BRANCH   1   5
ATOM      5  C   UNL d   1      26.978 -15.475   0.125  0.00  0.00     0.057 A 
ATOM      6  C   UNL d   1      27.252 -14.707  -1.021  0.00  0.00     0.060 A 
ATOM      7  C   UNL d   1      26.572 -14.950  -2.226  0.00  0.00     0.026 A 
ATOM      8 CL   UNL d   1      28.435 -13.445  -1.003  0.00  0.00    -0.082 Cl
ATOM      9  C   UNL d   1      25.618 -15.965  -2.309  0.00  0.00     0.008 A 
ATOM     10  C   UNL d   1      25.328 -16.733  -1.186  0.00  0.00    -0.060 A 
ATOM     11  C   UNL d   1      24.312 -17.836  -1.213  0.00  0.00     0.048 C 
ATOM     12  C   UNL d   1      26.002 -16.472   0.012  0.00  0.00     0.038 A 
ENDBRANCH   1   5
BRANCH   2  13
ATOM     13  C   UNL d   1      28.217 -14.137   3.474  0.00  0.00     0.065 A 
ATOM     14  C   UNL d   1      27.576 -13.668   4.633  0.00  0.00     0.020 A 
ATOM     15  C   UNL d   1      28.297 -13.463   5.807  0.00  0.00     0.001 A 
ATOM     16  C   UNL d   1      29.669 -13.701   5.818  0.00  0.00     0.003 A 
ATOM     17  C   UNL d   1      30.319 -14.152   4.663  0.00  0.00     0.037 A 
ATOM     18  C   UNL d   1      29.589 -14.384   3.493  0.00  0.00     0.081 A 
BRANCH  18  19
ATOM     19  O   UNL d   1      30.215 -14.825   2.361  0.00  0.00    -0.360 OA
ATOM     20  H   UNL d   1      30.410 -15.772   2.442  0.00  0.00     0.217 HD
ENDBRANCH  18  19
ENDBRANCH   2  13
TORSDOF 3
ENDMDL
MODEL 9
REMARK VINA RESULT:    -5.503      5.867      8.189
REMARK INTER + INTRA:          -7.438
REMARK INTER:                  -6.398
REMARK INTRA:                  -1.040
REMARK CONF_INDEPENDENT:        0.895
REMARK UNBOUND:                -1.040
REMARK  3 active torsions:
REMARK  status: ('A' for Active; 'I' for Inactive)
REMARK    1  A    between atoms: C_7  and  N_8 
REMARK       I    between atoms: N_8  and  C_9 
REMARK    2  A    between atoms: C_9  and  C_11 
REMARK    3  A    between atoms: C_16  and  O_17 
ROOT
ATOM      1  N   UNL d   1      28.109 -14.825   2.100  0.00  0.00    -0.321 N 
ATOM      2  C   UNL d   1      27.450 -13.725   2.628  0.00  0.00     0.259 C 
ATOM      3  O   UNL d   1      26.591 -13.041   2.069  0.00  0.00    -0.267 OA
ATOM      4  H   UNL d   1      28.803 -15.287   2.685  0.00  0.00     0.169 HD
ENDROOT
BRANCH   1   5
ATOM      5  C   UNL d   1      27.929 -15.352   0.790  0.00  0.00     0.057 A 
ATOM      6  C   UNL d   1      29.021 -15.572  -0.068  0.00  0.00     0.060 A 
ATOM      7  C   UNL d   1      28.827 -16.098  -1.356  0.00  0.00     0.026 A 
ATOM      8 CL   UNL d   1      30.642 -15.217   0.421  0.00  0.00    -0.082 Cl
ATOM      9  C   UNL d   1      27.544 -16.421  -1.803  0.00  0.00     0.008 A 
ATOM     10  C   UNL d   1      26.449 -16.206  -0.973  0.00  0.00    -0.060 A 
ATOM     11  C   UNL d   1      25.049 -16.530  -1.398  0.00  0.00     0.048 C 
ATOM     12  C   UNL d   1      26.655 -15.668   0.303  0.00  0.00     0.038 A 
ENDBRANCH   1   5
BRANCH   2  13
ATOM     13  C   UNL d   1      27.762 -13.326   4.016  0.00  0.00     0.065 A 
ATOM     14  C   UNL d   1      27.780 -11.949   4.296  0.00  0.00     0.020 A 
ATOM     15  C   UNL d   1      28.172 -11.488   5.551  0.00  0.00     0.001 A 
ATOM     16  C   UNL d   1      28.575 -12.401   6.522  0.00  0.00     0.003 A 
ATOM     17  C   UNL d   1      28.576 -13.774   6.244  0.00  0.00     0.037 A 
ATOM     18  C   UNL d   1      28.156 -14.238   4.995  0.00  0.00     0.081 A 
BRANCH  18  19
ATOM     19  O   UNL d   1      28.155 -15.575   4.716  0.00  0.00    -0.360 OA
ATOM     20  H   UNL d   1      29.017 -15.836   4.355  0.00  0.00     0.217 HD
ENDBRANCH  18  19
ENDBRANCH   2  13
TORSDOF 3
ENDMDL
