MODEL 1
REMARK VINA RESULT:    -9.698      0.000      0.000
REMARK INTER + INTRA:         -13.909
REMARK INTER:                 -12.084
REMARK INTRA:                  -1.825
REMARK CONF_INDEPENDENT:        2.386
REMARK UNBOUND:                -1.825
REMARK  8 active torsions:
REMARK  status: ('A' for Active; 'I' for Inactive)
REMARK    1  A    between atoms: C_2  and  C_3 
REMARK    2  A    between atoms: C_3  and  C_4 
REMARK    3  A    between atoms: C_4  and  C_5 
REMARK    4  A    between atoms: C_5  and  C_6 
REMARK       I    between atoms: C_6  and  N_8 
REMARK    5  A    between atoms: N_8  and  N_9 
REMARK       I    between atoms: N_9  and  C_10 
REMARK    6  A    between atoms: C_10  and  C_12 
REMARK    7  A    between atoms: C_15  and  N_16 
REMARK       I    between atoms: N_16  and  C_17 
REMARK    8  A    between atoms: C_17  and  C_19 
ROOT
ATOM      1  C   UNL d   1      25.775 -16.126  -1.473  0.00  0.00     0.033 A 
ATOM      2  C   UNL d   1      26.179 -17.281  -0.780  0.00  0.00     0.019 A 
ATOM      3  C   UNL d   1      25.231 -18.235  -0.333  0.00  0.00     0.030 A 
ATOM      4  C   UNL d   1      23.859 -18.016  -0.529  0.00  0.00     0.034 A 
ATOM      5  C   UNL d   1      23.487 -16.875  -1.242  0.00  0.00     0.030 A 
ATOM      6  C   UNL d   1      24.417 -15.938  -1.702  0.00  0.00     0.019 A 
ENDROOT
BRANCH   1   7
ATOM      7  C   UNL d   1      26.764 -15.186  -2.088  0.00  0.00     0.270 C 
ATOM      8  N   UNL d   1      27.004 -15.313  -3.447  0.00  0.00    -0.263 N 
ATOM      9  H   UNL d   1      26.481 -15.937  -4.063  0.00  0.00     0.190 HD
ATOM     10  O   UNL d   1      27.346 -14.363  -1.377  0.00  0.00    -0.266 OA
BRANCH   8  11
ATOM     11  N   UNL d   1      27.948 -14.465  -4.086  0.00  0.00    -0.267 N 
ATOM     12  C   UNL d   1      28.021 -14.479  -5.470  0.00  0.00     0.236 C 
ATOM     13  O   UNL d   1      27.285 -15.200  -6.145  0.00  0.00    -0.272 OA
ATOM     14  H   UNL d   1      28.534 -13.893  -3.480  0.00  0.00     0.190 HD
BRANCH  12  15
ATOM     15  C   UNL d   1      29.065 -13.546  -6.090  0.00  0.00     0.104 C 
BRANCH  15  16
ATOM     16  C   UNL d   1      30.220 -14.339  -6.724  0.00  0.00     0.009 C 
BRANCH  16  17
ATOM     17  C   UNL d   1      30.014 -15.855  -6.656  0.00  0.00     0.000 C 
BRANCH  17  18
ATOM     18  C   UNL d   1      30.882 -16.483  -5.561  0.00  0.00    -0.005 C 
ATOM     19  C   UNL d   1      30.031 -16.968  -4.399  0.00  0.00     0.005 C 
ENDBRANCH  17  18
ENDBRANCH  16  17
ENDBRANCH  15  16
ENDBRANCH  12  15
ENDBRANCH   8  11
ENDBRANCH   1   7
BRANCH   4  20
ATOM     20  N   UNL d   1      22.895 -18.915   0.016  0.00  0.00    -0.327 N 
ATOM     21  C   UNL d   1      21.522 -18.850  -0.211  0.00  0.00     0.226 C 
ATOM     22  O   UNL d   1      20.971 -18.059  -0.978  0.00  0.00    -0.273 OA
ATOM     23  H   UNL d   1      23.249 -19.590   0.682  0.00  0.00     0.169 HD
BRANCH  21  24
ATOM     24  C   UNL d   1      20.607 -19.827   0.535  0.00  0.00     0.078 C 
ATOM     25  C   UNL d   1      20.282 -19.464   1.980  0.00  0.00     0.014 C 
ATOM     26  C   UNL d   1      19.307 -20.449   2.615  0.00  0.00     0.001 C 
ATOM     27  C   UNL d   1      18.031 -20.582   1.792  0.00  0.00     0.000 C 
ATOM     28  C   UNL d   1      18.349 -21.000   0.363  0.00  0.00     0.001 C 
ATOM     29  C   UNL d   1      19.319 -20.023  -0.294  0.00  0.00     0.014 C 
ENDBRANCH  21  24
ENDBRANCH   4  20
TORSDOF 8
ENDMDL
MODEL 2
REMARK VINA RESULT:    -9.581      1.122      2.126
REMARK INTER + INTRA:         -13.919
REMARK INTER:                 -11.967
REMARK INTRA:                  -1.952
REMARK CONF_INDEPENDENT:        2.386
REMARK UNBOUND:                -1.952
REMARK  8 active torsions:
REMARK  status: ('A' for Active; 'I' for Inactive)
REMARK    1  A    between atoms: C_2  and  C_3 
REMARK    2  A    between atoms: C_3  and  C_4 
REMARK    3  A    between atoms: C_4  and  C_5 
REMARK    4  A    between atoms: C_5  and  C_6 
REMARK       I    between atoms: C_6  and  N_8 
REMARK    5  A    between atoms: N_8  and  N_9 
REMARK       I    between atoms: N_9  and  C_10 
REMARK    6  A    between atoms: C_10  and  C_12 
REMARK    7  A    between atoms: C_15  and  N_16 
REMARK       I    between atoms: N_16  and  C_17 
REMARK    8  A    between atoms: C_17  and  C_19 
ROOT
ATOM      1  C   UNL d   1      25.681 -16.001  -1.531  0.00  0.00     0.033 A 
ATOM      2  C   UNL d   1      26.110 -17.197  -0.928  0.00  0.00     0.019 A 
ATOM      3  C   UNL d   1      25.176 -18.165  -0.482  0.00  0.00     0.030 A 
ATOM      4  C   UNL d   1      23.799 -17.923  -0.586  0.00  0.00     0.034 A 
ATOM      5  C   UNL d   1      23.401 -16.741  -1.212  0.00  0.00     0.030 A 
ATOM      6  C   UNL d   1      24.316 -15.788  -1.672  0.00  0.00     0.019 A 
ENDROOT
BRANCH   1   7
ATOM      7  C   UNL d   1      26.646 -15.037  -2.148  0.00  0.00     0.270 C 
ATOM      8  N   UNL d   1      27.055 -15.290  -3.449  0.00  0.00    -0.263 N 
ATOM      9  H   UNL d   1      26.668 -16.031  -4.035  0.00  0.00     0.190 HD
ATOM     10  O   UNL d   1      27.062 -14.083  -1.487  0.00  0.00    -0.266 OA
BRANCH   8  11
ATOM     11  N   UNL d   1      27.986 -14.424  -4.083  0.00  0.00    -0.267 N 
ATOM     12  C   UNL d   1      28.081 -14.452  -5.465  0.00  0.00     0.236 C 
ATOM     13  O   UNL d   1      27.375 -15.201  -6.143  0.00  0.00    -0.272 OA
ATOM     14  H   UNL d   1      28.548 -13.830  -3.475  0.00  0.00     0.190 HD
BRANCH  12  15
ATOM     15  C   UNL d   1      29.110 -13.499  -6.080  0.00  0.00     0.104 C 
BRANCH  15  16
ATOM     16  C   UNL d   1      28.687 -12.030  -5.911  0.00  0.00     0.009 C 
BRANCH  16  17
ATOM     17  C   UNL d   1      27.171 -11.831  -5.995  0.00  0.00     0.000 C 
BRANCH  17  18
ATOM     18  C   UNL d   1      26.575 -11.526  -4.617  0.00  0.00    -0.005 C 
ATOM     19  C   UNL d   1      25.512 -12.546  -4.243  0.00  0.00     0.005 C 
ENDBRANCH  17  18
ENDBRANCH  16  17
ENDBRANCH  15  16
ENDBRANCH  12  15
ENDBRANCH   8  11
ENDBRANCH   1   7
BRANCH   4  20
ATOM     20  N   UNL d   1      22.856 -18.843  -0.038  0.00  0.00    -0.327 N 
ATOM     21  C   UNL d   1      21.483 -18.816  -0.271  0.00  0.00     0.226 C 
ATOM     22  O   UNL d   1      20.915 -18.046  -1.048  0.00  0.00    -0.273 OA
ATOM     23  H   UNL d   1      23.225 -19.502   0.636  0.00  0.00     0.169 HD
BRANCH  21  24
ATOM     24  C   UNL d   1      20.590 -19.810   0.479  0.00  0.00     0.078 C 
ATOM     25  C   UNL d   1      20.252 -19.444   1.920  0.00  0.00     0.014 C 
ATOM     26  C   UNL d   1      19.299 -20.449   2.560  0.00  0.00     0.001 C 
ATOM     27  C   UNL d   1      18.030 -20.619   1.734  0.00  0.00     0.000 C 
ATOM     28  C   UNL d   1      18.363 -21.040   0.309  0.00  0.00     0.001 C 
ATOM     29  C   UNL d   1      19.310 -20.044  -0.352  0.00  0.00     0.014 C 
ENDBRANCH  21  24
ENDBRANCH   4  20
TORSDOF 8
ENDMDL
MODEL 3
REMARK VINA RESULT:    -9.542      1.341      2.244
REMARK INTER + INTRA:         -13.574
REMARK INTER:                 -11.929
REMARK INTRA:                  -1.646
REMARK CONF_INDEPENDENT:        2.386
REMARK UNBOUND:                -1.646
REMARK  8 active torsions:
REMARK  status: ('A' for Active; 'I' for Inactive)
REMARK    1  A    between atoms: C_2  and  C_3 
REMARK    2  A    between atoms: C_3  and  C_4 
REMARK    3  A    between atoms: C_4  and  C_5 
REMARK    4  A    between atoms: C_5  and  C_6 
REMARK       I    between atoms: C_6  and  N_8 
REMARK    5  A    between atoms: N_8  and  N_9 
REMARK       I    between atoms: N_9  and  C_10 
REMARK    6  A    between atoms: C_10  and  C_12 
REMARK    7  A    between atoms: C_15  and  N_16 
REMARK       I    between atoms: N_16  and  C_17 
REMARK    8  A    between atoms: C_17  and  C_19 
ROOT
ATOM      1  C   UNL d   1      25.820 -16.135  -1.435  0.00  0.00     0.033 A 
ATOM      2  C   UNL d   1      26.085 -16.923  -0.300  0.00  0.00     0.019 A 
ATOM      3  C   UNL d   1      25.154 -17.891   0.150  0.00  0.00     0.030 A 
ATOM      4  C   UNL d   1      23.921 -18.045  -0.500  0.00  0.00     0.034 A 
ATOM      5  C   UNL d   1      23.694 -17.270  -1.639  0.00  0.00     0.030 A 
ATOM      6  C   UNL d   1      24.615 -16.325  -2.101  0.00  0.00     0.019 A 
ENDROOT
BRANCH   1   7
ATOM      7  C   UNL d   1      26.849 -15.220  -2.020  0.00  0.00     0.270 C 
ATOM      8  N   UNL d   1      27.094 -15.320  -3.381  0.00  0.00    -0.263 N 
ATOM      9  H   UNL d   1      26.551 -15.907  -4.016  0.00  0.00     0.190 HD
ATOM     10  O   UNL d   1      27.459 -14.439  -1.284  0.00  0.00    -0.266 OA
BRANCH   8  11
ATOM     11  N   UNL d   1      28.075 -14.494  -3.992  0.00  0.00    -0.267 N 
ATOM     12  C   UNL d   1      28.181 -14.503  -5.373  0.00  0.00     0.236 C 
ATOM     13  O   UNL d   1      27.444 -15.202  -6.070  0.00  0.00    -0.272 OA
ATOM     14  H   UNL d   1      28.661 -13.941  -3.369  0.00  0.00     0.190 HD
BRANCH  12  15
ATOM     15  C   UNL d   1      29.264 -13.595  -5.962  0.00  0.00     0.104 C 
BRANCH  15  16
ATOM     16  C   UNL d   1      29.190 -13.555  -7.498  0.00  0.00     0.009 C 
BRANCH  16  17
ATOM     17  C   UNL d   1      28.162 -12.549  -8.021  0.00  0.00     0.000 C 
BRANCH  17  18
ATOM     18  C   UNL d   1      28.224 -12.437  -9.548  0.00  0.00    -0.005 C 
ATOM     19  C   UNL d   1      27.395 -11.263 -10.045  0.00  0.00     0.005 C 
ENDBRANCH  17  18
ENDBRANCH  16  17
ENDBRANCH  15  16
ENDBRANCH  12  15
ENDBRANCH   8  11
ENDBRANCH   1   7
BRANCH   4  20
ATOM     20  N   UNL d   1      22.934 -18.938   0.015  0.00  0.00    -0.327 N 
ATOM     21  C   UNL d   1      21.561 -18.813  -0.181  0.00  0.00     0.226 C 
ATOM     22  O   UNL d   1      21.025 -17.963  -0.895  0.00  0.00    -0.273 OA
ATOM     23  H   UNL d   1      23.276 -19.659   0.638  0.00  0.00     0.169 HD
BRANCH  21  24
ATOM     24  C   UNL d   1      20.624 -19.796   0.530  0.00  0.00     0.078 C 
ATOM     25  C   UNL d   1      20.286 -19.463   1.979  0.00  0.00     0.014 C 
ATOM     26  C   UNL d   1      19.291 -20.450   2.578  0.00  0.00     0.001 C 
ATOM     27  C   UNL d   1      18.024 -20.547   1.737  0.00  0.00     0.000 C 
ATOM     28  C   UNL d   1      18.354 -20.936   0.302  0.00  0.00     0.001 C 
ATOM     29  C   UNL d   1      19.344 -19.955  -0.319  0.00  0.00     0.014 C 
ENDBRANCH  21  24
ENDBRANCH   4  20
TORSDOF 8
ENDMDL
MODEL 4
REMARK VINA RESULT:    -9.479      0.998      1.455
REMARK INTER + INTRA:         -13.628
REMARK INTER:                 -11.865
REMARK INTRA:                  -1.763
REMARK CONF_INDEPENDENT:        2.386
REMARK UNBOUND:                -1.763
REMARK  8 active torsions:
REMARK  status: ('A' for Active; 'I' for Inactive)
REMARK    1  A    between atoms: C_2  and  C_3 
REMARK    2  A    between atoms: C_3  and  C_4 
REMARK    3  A    between atoms: C_4  and  C_5 
REMARK    4  A    between atoms: C_5  and  C_6 
REMARK       I    between atoms: C_6  and  N_8 
REMARK    5  A    between atoms: N_8  and  N_9 
REMARK       I    between atoms: N_9  and  C_10 
REMARK    6  A    between atoms: C_10  and  C_12 
REMARK    7  A    between atoms: C_15  and  N_16 
REMARK       I    between atoms: N_16  and  C_17 
REMARK    8  A    between atoms: C_17  and  C_19 
ROOT
ATOM      1  C   UNL d   1      25.536 -16.814  -1.161  0.00  0.00     0.033 A 
ATOM      2  C   UNL d   1      25.618 -18.059  -0.512  0.00  0.00     0.019 A 
ATOM      3  C   UNL d   1      24.448 -18.770  -0.146  0.00  0.00     0.030 A 
ATOM      4  C   UNL d   1      23.180 -18.217  -0.377  0.00  0.00     0.034 A 
ATOM      5  C   UNL d   1      23.127 -16.992  -1.046  0.00  0.00     0.030 A 
ATOM      6  C   UNL d   1      24.276 -16.293  -1.428  0.00  0.00     0.019 A 
ENDROOT
BRANCH   1   7
ATOM      7  C   UNL d   1      26.749 -16.120  -1.695  0.00  0.00     0.270 C 
ATOM      8  N   UNL d   1      26.802 -15.888  -3.061  0.00  0.00    -0.263 N 
ATOM      9  H   UNL d   1      26.029 -16.074  -3.702  0.00  0.00     0.190 HD
ATOM     10  O   UNL d   1      27.661 -15.807  -0.926  0.00  0.00    -0.266 OA
BRANCH   8  11
ATOM     11  N   UNL d   1      27.937 -15.253  -3.633  0.00  0.00    -0.267 N 
ATOM     12  C   UNL d   1      27.973 -15.071  -5.006  0.00  0.00     0.236 C 
ATOM     13  O   UNL d   1      27.046 -15.441  -5.728  0.00  0.00    -0.272 OA
ATOM     14  H   UNL d   1      28.677 -14.972  -2.991  0.00  0.00     0.190 HD
BRANCH  12  15
ATOM     15  C   UNL d   1      29.229 -14.388  -5.553  0.00  0.00     0.104 C 
BRANCH  15  16
ATOM     16  C   UNL d   1      30.132 -15.385  -6.299  0.00  0.00     0.009 C 
BRANCH  16  17
ATOM     17  C   UNL d   1      30.294 -16.715  -5.559  0.00  0.00     0.000 C 
BRANCH  17  18
ATOM     18  C   UNL d   1      30.600 -17.857  -6.534  0.00  0.00    -0.005 C 
ATOM     19  C   UNL d   1      30.413 -19.210  -5.867  0.00  0.00     0.005 C 
ENDBRANCH  17  18
ENDBRANCH  16  17
ENDBRANCH  15  16
ENDBRANCH  12  15
ENDBRANCH   8  11
ENDBRANCH   1   7
BRANCH   4  20
ATOM     20  N   UNL d   1      22.004 -18.875   0.090  0.00  0.00    -0.327 N 
ATOM     21  C   UNL d   1      20.710 -18.614  -0.357  0.00  0.00     0.226 C 
ATOM     22  O   UNL d   1      20.423 -17.840  -1.272  0.00  0.00    -0.273 OA
ATOM     23  H   UNL d   1      22.134 -19.513   0.864  0.00  0.00     0.169 HD
BRANCH  21  24
ATOM     24  C   UNL d   1      19.539 -19.332   0.323  0.00  0.00     0.078 C 
ATOM     25  C   UNL d   1      18.849 -20.411  -0.505  0.00  0.00     0.014 C 
ATOM     26  C   UNL d   1      17.750 -21.122   0.278  0.00  0.00     0.001 C 
ATOM     27  C   UNL d   1      18.279 -21.699   1.585  0.00  0.00     0.000 C 
ATOM     28  C   UNL d   1      18.918 -20.612   2.439  0.00  0.00     0.001 C 
ATOM     29  C   UNL d   1      20.026 -19.893   1.676  0.00  0.00     0.014 C 
ENDBRANCH  21  24
ENDBRANCH   4  20
TORSDOF 8
ENDMDL
MODEL 5
REMARK VINA RESULT:    -8.669      1.572     10.743
REMARK INTER + INTRA:         -12.549
REMARK INTER:                 -11.056
REMARK INTRA:                  -1.493
REMARK CONF_INDEPENDENT:        2.386
REMARK UNBOUND:                -1.493
REMARK  8 active torsions:
REMARK  status: ('A' for Active; 'I' for Inactive)
REMARK    1  A    between atoms: C_2  and  C_3 
REMARK    2  A    between atoms: C_3  and  C_4 
REMARK    3  A    between atoms: C_4  and  C_5 
REMARK    4  A    between atoms: C_5  and  C_6 
REMARK       I    between atoms: C_6  and  N_8 
REMARK    5  A    between atoms: N_8  and  N_9 
REMARK       I    between atoms: N_9  and  C_10 
REMARK    6  A    between atoms: C_10  and  C_12 
REMARK    7  A    between atoms: C_15  and  N_16 
REMARK       I    between atoms: N_16  and  C_17 
REMARK    8  A    between atoms: C_17  and  C_19 
ROOT
ATOM      1  C   UNL d   1      25.304 -16.943  -1.289  0.00  0.00     0.033 A 
ATOM      2  C   UNL d   1      24.731 -15.991  -2.150  0.00  0.00     0.019 A 
ATOM      3  C   UNL d   1      25.540 -15.182  -2.986  0.00  0.00     0.030 A 
ATOM      4  C   UNL d   1      26.938 -15.280  -2.930  0.00  0.00     0.034 A 
ATOM      5  C   UNL d   1      27.480 -16.251  -2.086  0.00  0.00     0.030 A 
ATOM      6  C   UNL d   1      26.688 -17.066  -1.272  0.00  0.00     0.019 A 
ENDROOT
BRANCH   1   7
ATOM      7  C   UNL d   1      24.467 -17.913  -0.514  0.00  0.00     0.270 C 
ATOM      8  N   UNL d   1      23.173 -18.135  -0.959  0.00  0.00    -0.263 N 
ATOM      9  H   UNL d   1      22.795 -17.755  -1.827  0.00  0.00     0.190 HD
ATOM     10  O   UNL d   1      24.934 -18.452   0.492  0.00  0.00    -0.266 OA
BRANCH   8  11
ATOM     11  N   UNL d   1      22.321 -19.028  -0.254  0.00  0.00    -0.267 N 
ATOM     12  C   UNL d   1      20.955 -18.954  -0.475  0.00  0.00     0.236 C 
ATOM     13  O   UNL d   1      20.476 -18.142  -1.268  0.00  0.00    -0.272 OA
ATOM     14  H   UNL d   1      22.770 -19.675   0.392  0.00  0.00     0.190 HD
BRANCH  12  15
ATOM     15  C   UNL d   1      20.098 -19.940   0.323  0.00  0.00     0.104 C 
BRANCH  15  16
ATOM     16  C   UNL d   1      20.288 -19.750   1.838  0.00  0.00     0.009 C 
BRANCH  16  17
ATOM     17  C   UNL d   1      19.208 -20.449   2.668  0.00  0.00     0.000 C 
BRANCH  17  18
ATOM     18  C   UNL d   1      17.933 -20.668   1.846  0.00  0.00    -0.005 C 
ATOM     19  C   UNL d   1      18.017 -21.952   1.038  0.00  0.00     0.005 C 
ENDBRANCH  17  18
ENDBRANCH  16  17
ENDBRANCH  15  16
ENDBRANCH  12  15
ENDBRANCH   8  11
ENDBRANCH   1   7
BRANCH   4  20
ATOM     20  N   UNL d   1      27.760 -14.392  -3.686  0.00  0.00    -0.327 N 
ATOM     21  C   UNL d   1      27.937 -14.445  -5.067  0.00  0.00     0.226 C 
ATOM     22  O   UNL d   1      27.342 -15.213  -5.825  0.00  0.00    -0.273 OA
ATOM     23  H   UNL d   1      28.313 -13.738  -3.147  0.00  0.00     0.169 HD
BRANCH  21  24
ATOM     24  C   UNL d   1      28.940 -13.486  -5.717  0.00  0.00     0.078 C 
ATOM     25  C   UNL d   1      29.185 -13.689  -7.208  0.00  0.00     0.014 C 
ATOM     26  C   UNL d   1      30.135 -12.644  -7.783  0.00  0.00     0.001 C 
ATOM     27  C   UNL d   1      29.642 -11.229  -7.505  0.00  0.00     0.000 C 
ATOM     28  C   UNL d   1      29.451 -11.005  -6.011  0.00  0.00     0.001 C 
ATOM     29  C   UNL d   1      28.497 -12.037  -5.417  0.00  0.00     0.014 C 
ENDBRANCH  21  24
ENDBRANCH   4  20
TORSDOF 8
ENDMDL
MODEL 6
REMARK VINA RESULT:    -8.373      2.269      3.131
REMARK INTER + INTRA:         -12.484
REMARK INTER:                 -10.759
REMARK INTRA:                  -1.725
REMARK CONF_INDEPENDENT:        2.386
REMARK UNBOUND:                -1.725
REMARK  8 active torsions:
REMARK  status: ('A' for Active; 'I' for Inactive)
REMARK    1  A    between atoms: C_2  and  C_3 
REMARK    2  A    between atoms: C_3  and  C_4 
REMARK    3  A    between atoms: C_4  and  C_5 
REMARK    4  A    between atoms: C_5  and  C_6 
REMARK       I    between atoms: C_6  and  N_8 
REMARK    5  A    between atoms: N_8  and  N_9 
REMARK       I    between atoms: N_9  and  C_10 
REMARK    6  A    between atoms: C_10  and  C_12 
REMARK    7  A    between atoms: C_15  and  N_16 
REMARK       I    between atoms: N_16  and  C_17 
REMARK    8  A    between atoms: C_17  and  C_19 
ROOT
ATOM      1  C   UNL d   1      25.541 -15.980  -1.766  0.00  0.00     0.033 A 
ATOM      2  C   UNL d   1      24.156 -15.740  -1.791  0.00  0.00     0.019 A 
ATOM      3  C   UNL d   1      23.249 -16.628  -1.159  0.00  0.00     0.030 A 
ATOM      4  C   UNL d   1      23.716 -17.796  -0.539  0.00  0.00     0.034 A 
ATOM      5  C   UNL d   1      25.098 -17.996  -0.506  0.00  0.00     0.030 A 
ATOM      6  C   UNL d   1      26.000 -17.117  -1.112  0.00  0.00     0.019 A 
ENDROOT
BRANCH   1   7
ATOM      7  C   UNL d   1      26.526 -14.982  -2.289  0.00  0.00     0.270 C 
ATOM      8  N   UNL d   1      26.035 -13.744  -2.675  0.00  0.00    -0.263 N 
ATOM      9  H   UNL d   1      25.069 -13.444  -2.535  0.00  0.00     0.190 HD
ATOM     10  O   UNL d   1      27.716 -15.293  -2.387  0.00  0.00    -0.266 OA
BRANCH   8  11
ATOM     11  N   UNL d   1      26.915 -12.761  -3.201  0.00  0.00    -0.267 N 
ATOM     12  C   UNL d   1      26.409 -11.502  -3.485  0.00  0.00     0.236 C 
ATOM     13  O   UNL d   1      25.226 -11.225  -3.286  0.00  0.00    -0.272 OA
ATOM     14  H   UNL d   1      27.882 -13.044  -3.350  0.00  0.00     0.190 HD
BRANCH  12  15
ATOM     15  C   UNL d   1      27.413 -10.496  -4.056  0.00  0.00     0.104 C 
BRANCH  15  16
ATOM     16  C   UNL d   1      26.886  -9.849  -5.348  0.00  0.00     0.009 C 
BRANCH  16  17
ATOM     17  C   UNL d   1      26.285 -10.864  -6.323  0.00  0.00     0.000 C 
BRANCH  17  18
ATOM     18  C   UNL d   1      27.368 -11.772  -6.915  0.00  0.00    -0.005 C 
ATOM     19  C   UNL d   1      27.575 -11.484  -8.394  0.00  0.00     0.005 C 
ENDBRANCH  17  18
ENDBRANCH  16  17
ENDBRANCH  15  16
ENDBRANCH  12  15
ENDBRANCH   8  11
ENDBRANCH   1   7
BRANCH   4  20
ATOM     20  N   UNL d   1      22.801 -18.748   0.000  0.00  0.00    -0.327 N 
ATOM     21  C   UNL d   1      21.423 -18.740  -0.206  0.00  0.00     0.226 C 
ATOM     22  O   UNL d   1      20.826 -17.959  -0.949  0.00  0.00    -0.273 OA
ATOM     23  H   UNL d   1      23.195 -19.418   0.648  0.00  0.00     0.169 HD
BRANCH  21  24
ATOM     24  C   UNL d   1      20.563 -19.771   0.533  0.00  0.00     0.078 C 
ATOM     25  C   UNL d   1      20.163 -19.405   1.958  0.00  0.00     0.014 C 
ATOM     26  C   UNL d   1      19.247 -20.451   2.584  0.00  0.00     0.001 C 
ATOM     27  C   UNL d   1      18.015 -20.703   1.724  0.00  0.00     0.000 C 
ATOM     28  C   UNL d   1      18.412 -21.124   0.316  0.00  0.00     0.001 C 
ATOM     29  C   UNL d   1      19.324 -20.086  -0.332  0.00  0.00     0.014 C 
ENDBRANCH  21  24
ENDBRANCH   4  20
TORSDOF 8
ENDMDL
MODEL 7
REMARK VINA RESULT:    -8.207      1.441      2.041
REMARK INTER + INTRA:         -12.483
REMARK INTER:                 -10.594
REMARK INTRA:                  -1.889
REMARK CONF_INDEPENDENT:        2.386
REMARK UNBOUND:                -1.889
REMARK  8 active torsions:
REMARK  status: ('A' for Active; 'I' for Inactive)
REMARK    1  A    between atoms: C_2  and  C_3 
REMARK    2  A    between atoms: C_3  and  C_4 
REMARK    3  A    between atoms: C_4  and  C_5 
REMARK    4  A    between atoms: C_5  and  C_6 
REMARK       I    between atoms: C_6  and  N_8 
REMARK    5  A    between atoms: N_8  and  N_9 
REMARK       I    between atoms: N_9  and  C_10 
REMARK    6  A    between atoms: C_10  and  C_12 
REMARK    7  A    between atoms: C_15  and  N_16 
REMARK       I    between atoms: N_16  and  C_17 
REMARK    8  A    between atoms: C_17  and  C_19 
ROOT
ATOM      1  C   UNL d   1      25.784 -16.511  -1.345  0.00  0.00     0.033 A 
ATOM      2  C   UNL d   1      24.528 -16.049  -1.778  0.00  0.00     0.019 A 
ATOM      3  C   UNL d   1      23.330 -16.537  -1.198  0.00  0.00     0.030 A 
ATOM      4  C   UNL d   1      23.374 -17.533  -0.212  0.00  0.00     0.034 A 
ATOM      5  C   UNL d   1      24.634 -17.955   0.218  0.00  0.00     0.030 A 
ATOM      6  C   UNL d   1      25.821 -17.466  -0.336  0.00  0.00     0.019 A 
ENDROOT
BRANCH   1   7
ATOM      7  C   UNL d   1      27.061 -15.902  -1.830  0.00  0.00     0.270 C 
ATOM      8  N   UNL d   1      27.281 -15.887  -3.199  0.00  0.00    -0.263 N 
ATOM      9  H   UNL d   1      26.589 -16.177  -3.891  0.00  0.00     0.190 HD
ATOM     10  O   UNL d   1      27.877 -15.465  -1.015  0.00  0.00    -0.266 OA
BRANCH   8  11
ATOM     11  N   UNL d   1      28.484 -15.342  -3.722  0.00  0.00    -0.267 N 
ATOM     12  C   UNL d   1      28.538 -15.028  -5.071  0.00  0.00     0.236 C 
ATOM     13  O   UNL d   1      27.570 -15.205  -5.811  0.00  0.00    -0.272 OA
ATOM     14  H   UNL d   1      29.255 -15.220  -3.067  0.00  0.00     0.190 HD
BRANCH  12  15
ATOM     15  C   UNL d   1      29.868 -14.452  -5.566  0.00  0.00     0.104 C 
BRANCH  15  16
ATOM     16  C   UNL d   1      31.046 -14.940  -4.706  0.00  0.00     0.009 C 
BRANCH  16  17
ATOM     17  C   UNL d   1      31.635 -13.840  -3.818  0.00  0.00     0.000 C 
BRANCH  17  18
ATOM     18  C   UNL d   1      32.176 -14.418  -2.507  0.00  0.00    -0.005 C 
ATOM     19  C   UNL d   1      31.074 -15.103  -1.715  0.00  0.00     0.005 C 
ENDBRANCH  17  18
ENDBRANCH  16  17
ENDBRANCH  15  16
ENDBRANCH  12  15
ENDBRANCH   8  11
ENDBRANCH   1   7
BRANCH   4  20
ATOM     20  N   UNL d   1      22.171 -18.107   0.295  0.00  0.00    -0.327 N 
ATOM     21  C   UNL d   1      21.270 -18.867  -0.449  0.00  0.00     0.226 C 
ATOM     22  O   UNL d   1      21.438 -19.212  -1.620  0.00  0.00    -0.273 OA
ATOM     23  H   UNL d   1      21.931 -17.857   1.246  0.00  0.00     0.169 HD
BRANCH  21  24
ATOM     24  C   UNL d   1      19.967 -19.322   0.216  0.00  0.00     0.078 C 
ATOM     25  C   UNL d   1      19.188 -20.407  -0.519  0.00  0.00     0.014 C 
ATOM     26  C   UNL d   1      17.950 -20.850   0.253  0.00  0.00     0.001 C 
ATOM     27  C   UNL d   1      18.304 -21.302   1.664  0.00  0.00     0.000 C 
ATOM     28  C   UNL d   1      19.032 -20.199   2.421  0.00  0.00     0.001 C 
ATOM     29  C   UNL d   1      20.279 -19.747   1.668  0.00  0.00     0.014 C 
ENDBRANCH  21  24
ENDBRANCH   4  20
TORSDOF 8
ENDMDL
MODEL 8
REMARK VINA RESULT:    -7.756      1.484      2.344
REMARK INTER + INTRA:         -11.980
REMARK INTER:                 -10.143
REMARK INTRA:                  -1.838
REMARK CONF_INDEPENDENT:        2.386
REMARK UNBOUND:                -1.838
REMARK  8 active torsions:
REMARK  status: ('A' for Active; 'I' for Inactive)
REMARK    1  A    between atoms: C_2  and  C_3 
REMARK    2  A    between atoms: C_3  and  C_4 
REMARK    3  A    between atoms: C_4  and  C_5 
REMARK    4  A    between atoms: C_5  and  C_6 
REMARK       I    between atoms: C_6  and  N_8 
REMARK    5  A    between atoms: N_8  and  N_9 
REMARK       I    between atoms: N_9  and  C_10 
REMARK    6  A    between atoms: C_10  and  C_12 
REMARK    7  A    between atoms: C_15  and  N_16 
REMARK       I    between atoms: N_16  and  C_17 
REMARK    8  A    between atoms: C_17  and  C_19 
ROOT
ATOM      1  C   UNL d   1      25.714 -16.626  -0.931  0.00  0.00     0.033 A 
ATOM      2  C   UNL d   1      25.802 -17.766  -0.112  0.00  0.00     0.019 A 
ATOM      3  C   UNL d   1      24.644 -18.505   0.238  0.00  0.00     0.030 A 
ATOM      4  C   UNL d   1      23.376 -18.078  -0.184  0.00  0.00     0.034 A 
ATOM      5  C   UNL d   1      23.321 -16.959  -1.017  0.00  0.00     0.030 A 
ATOM      6  C   UNL d   1      24.460 -16.236  -1.383  0.00  0.00     0.019 A 
ENDROOT
BRANCH   1   7
ATOM      7  C   UNL d   1      26.933 -15.924  -1.441  0.00  0.00     0.270 C 
ATOM      8  N   UNL d   1      27.962 -16.710  -1.937  0.00  0.00    -0.263 N 
ATOM      9  H   UNL d   1      27.898 -17.721  -2.062  0.00  0.00     0.190 HD
ATOM     10  O   UNL d   1      26.999 -14.693  -1.380  0.00  0.00    -0.266 OA
BRANCH   8  11
ATOM     11  N   UNL d   1      29.155 -16.104  -2.415  0.00  0.00    -0.267 N 
ATOM     12  C   UNL d   1      30.236 -16.917  -2.718  0.00  0.00     0.236 C 
ATOM     13  O   UNL d   1      30.176 -18.140  -2.587  0.00  0.00    -0.272 OA
ATOM     14  H   UNL d   1      29.152 -15.089  -2.499  0.00  0.00     0.190 HD
BRANCH  12  15
ATOM     15  C   UNL d   1      31.489 -16.196  -3.220  0.00  0.00     0.104 C 
BRANCH  15  16
ATOM     16  C   UNL d   1      31.339 -15.764  -4.689  0.00  0.00     0.009 C 
BRANCH  16  17
ATOM     17  C   UNL d   1      30.319 -14.639  -4.880  0.00  0.00     0.000 C 
BRANCH  17  18
ATOM     18  C   UNL d   1      29.427 -14.901  -6.098  0.00  0.00    -0.005 C 
ATOM     19  C   UNL d   1      27.955 -14.829  -5.725  0.00  0.00     0.005 C 
ENDBRANCH  17  18
ENDBRANCH  16  17
ENDBRANCH  15  16
ENDBRANCH  12  15
ENDBRANCH   8  11
ENDBRANCH   1   7
BRANCH   4  20
ATOM     20  N   UNL d   1      22.199 -18.752   0.257  0.00  0.00    -0.327 N 
ATOM     21  C   UNL d   1      20.926 -18.576  -0.282  0.00  0.00     0.226 C 
ATOM     22  O   UNL d   1      20.667 -17.879  -1.265  0.00  0.00    -0.273 OA
ATOM     23  H   UNL d   1      22.305 -19.330   1.081  0.00  0.00     0.169 HD
BRANCH  21  24
ATOM     24  C   UNL d   1      19.743 -19.294   0.376  0.00  0.00     0.078 C 
ATOM     25  C   UNL d   1      18.965 -20.252  -0.520  0.00  0.00     0.014 C 
ATOM     26  C   UNL d   1      17.858 -20.976   0.238  0.00  0.00     0.001 C 
ATOM     27  C   UNL d   1      18.402 -21.703   1.462  0.00  0.00     0.000 C 
ATOM     28  C   UNL d   1      19.131 -20.738   2.387  0.00  0.00     0.001 C 
ATOM     29  C   UNL d   1      20.248 -20.007   1.649  0.00  0.00     0.014 C 
ENDBRANCH  21  24
ENDBRANCH   4  20
TORSDOF 8
ENDMDL
MODEL 9
REMARK VINA RESULT:    -7.433      2.904      3.753
REMARK INTER + INTRA:         -11.311
REMARK INTER:                  -9.820
REMARK INTRA:                  -1.491
REMARK CONF_INDEPENDENT:        2.386
REMARK UNBOUND:                -1.491
REMARK  8 active torsions:
REMARK  status: ('A' for Active; 'I' for Inactive)
REMARK    1  A    between atoms: C_2  and  C_3 
REMARK    2  A    between atoms: C_3  and  C_4 
REMARK    3  A    between atoms: C_4  and  C_5 
REMARK    4  A    between atoms: C_5  and  C_6 
REMARK       I    between atoms: C_6  and  N_8 
REMARK    5  A    between atoms: N_8  and  N_9 
REMARK       I    between atoms: N_9  and  C_10 
REMARK    6  A    between atoms: C_10  and  C_12 
REMARK    7  A    between atoms: C_15  and  N_16 
REMARK       I    between atoms: N_16  and  C_17 
REMARK    8  A    between atoms: C_17  and  C_19 
ROOT
ATOM      1  C   UNL d   1      25.930 -16.942  -1.070  0.00  0.00     0.033 A 
ATOM      2  C   UNL d   1      25.891 -17.717   0.104  0.00  0.00     0.019 A 
ATOM      3  C   UNL d   1      24.712 -18.405   0.486  0.00  0.00     0.030 A 
ATOM      4  C   UNL d   1      23.541 -18.282  -0.275  0.00  0.00     0.034 A 
ATOM      5  C   UNL d   1      23.614 -17.529  -1.448  0.00  0.00     0.030 A 
ATOM      6  C   UNL d   1      24.778 -16.862  -1.843  0.00  0.00     0.019 A 
ENDROOT
BRANCH   1   7
ATOM      7  C   UNL d   1      27.201 -16.336  -1.575  0.00  0.00     0.270 C 
ATOM      8  N   UNL d   1      28.387 -16.775  -1.006  0.00  0.00    -0.263 N 
ATOM      9  H   UNL d   1      28.449 -17.546  -0.340  0.00  0.00     0.190 HD
ATOM     10  O   UNL d   1      27.157 -15.461  -2.443  0.00  0.00    -0.266 OA
BRANCH   8  11
ATOM     11  N   UNL d   1      29.627 -16.222  -1.426  0.00  0.00    -0.267 N 
ATOM     12  C   UNL d   1      30.740 -17.046  -1.466  0.00  0.00     0.236 C 
ATOM     13  O   UNL d   1      30.671 -18.235  -1.153  0.00  0.00    -0.272 OA
ATOM     14  H   UNL d   1      29.628 -15.232  -1.669  0.00  0.00     0.190 HD
BRANCH  12  15
ATOM     15  C   UNL d   1      32.042 -16.381  -1.921  0.00  0.00     0.104 C 
BRANCH  15  16
ATOM     16  C   UNL d   1      32.878 -15.903  -0.722  0.00  0.00     0.009 C 
BRANCH  16  17
ATOM     17  C   UNL d   1      34.054 -16.830  -0.405  0.00  0.00     0.000 C 
BRANCH  17  18
ATOM     18  C   UNL d   1      33.957 -17.380   1.022  0.00  0.00    -0.005 C 
ATOM     19  C   UNL d   1      32.775 -18.326   1.164  0.00  0.00     0.005 C 
ENDBRANCH  17  18
ENDBRANCH  16  17
ENDBRANCH  15  16
ENDBRANCH  12  15
ENDBRANCH   8  11
ENDBRANCH   1   7
BRANCH   4  20
ATOM     20  N   UNL d   1      22.323 -18.880   0.165  0.00  0.00    -0.327 N 
ATOM     21  C   UNL d   1      21.057 -18.575  -0.331  0.00  0.00     0.226 C 
ATOM     22  O   UNL d   1      20.833 -17.810  -1.271  0.00  0.00    -0.273 OA
ATOM     23  H   UNL d   1      22.400 -19.507   0.955  0.00  0.00     0.169 HD
BRANCH  21  24
ATOM     24  C   UNL d   1      19.835 -19.229   0.323  0.00  0.00     0.078 C 
ATOM     25  C   UNL d   1      19.116 -20.281  -0.514  0.00  0.00     0.014 C 
ATOM     26  C   UNL d   1      17.963 -20.930   0.244  0.00  0.00     0.001 C 
ATOM     27  C   UNL d   1      18.428 -21.520   1.570  0.00  0.00     0.000 C 
ATOM     28  C   UNL d   1      19.095 -20.457   2.432  0.00  0.00     0.001 C 
ATOM     29  C   UNL d   1      20.257 -19.800   1.693  0.00  0.00     0.014 C 
ENDBRANCH  21  24
ENDBRANCH   4  20
TORSDOF 8
ENDMDL
