MODEL 1
REMARK VINA RESULT:   -12.385      0.000      0.000
REMARK INTER + INTRA:         -17.285
REMARK INTER:                 -15.069
REMARK INTRA:                  -2.215
REMARK CONF_INDEPENDENT:        2.685
REMARK UNBOUND:                -2.215
REMARK  9 active torsions:
REMARK  status: ('A' for Active; 'I' for Inactive)
REMARK    1  A    between atoms: C_2  and  N_4 
REMARK    2  A    between atoms: N_4  and  S_5 
REMARK    3  A    between atoms: S_5  and  C_8 
REMARK    4  A    between atoms: C_10  and  N_11 
REMARK    5  A    between atoms: N_11  and  C_12 
REMARK    6  A    between atoms: C_12  and  C_13 
REMARK    7  A    between atoms: C_16  and  C_17 
REMARK    8  A    between atoms: C_25  and  C_26 
REMARK       I    between atoms: C_26  and  N_28 
REMARK    9  A    between atoms: N_28  and  C_29 
ROOT
ATOM      1  C   UNL d   1      25.241 -15.853  -2.108  0.00  0.00     0.077 C 
ATOM      2  C   UNL d   1      26.334 -16.022  -1.239  0.00  0.00     0.054 C 
ATOM      3  C   UNL d   1      26.315 -17.033  -0.274  0.00  0.00     0.030 C 
ATOM      4  C   UNL d   1      25.128 -17.729  -0.112  0.00  0.00     0.046 C 
ATOM      5  C   UNL d   1      24.053 -17.573  -0.998  0.00  0.00     0.035 C 
ATOM      6  C   UNL d   1      24.106 -16.635  -2.006  0.00  0.00     0.042 C 
ENDROOT
BRANCH   3   7
ATOM      7  N   UNL d   1      27.415 -17.260   0.544  0.00  0.00    -0.386 N 
ATOM      8  H   UNL d   1      27.145 -17.567   1.474  0.00  0.00     0.160 HD
BRANCH   7   9
ATOM      9  C   UNL d   1      28.558 -16.332   0.524  0.00  0.00     0.158 C 
BRANCH   9  10
ATOM     10  C   UNL d   1      28.195 -14.967   1.065  0.00  0.00    -0.041 A 
ATOM     11  C   UNL d   1      27.821 -14.781   2.403  0.00  0.00     0.010 A 
ATOM     12  C   UNL d   1      27.378 -13.545   2.860  0.00  0.00     0.015 A 
ATOM     13  C   UNL d   1      27.434 -12.433   2.024  0.00  0.00    -0.002 A 
ATOM     14  C   UNL d   1      27.851 -12.592   0.697  0.00  0.00     0.015 A 
ATOM     15  C   UNL d   1      28.227 -13.850   0.217  0.00  0.00     0.010 A 
BRANCH  13  16
ATOM     16  C   UNL d   1      27.031 -11.130   2.506  0.00  0.00     0.085 A 
ATOM     17  C   UNL d   1      27.485 -10.343   3.537  0.00  0.00     0.040 A 
ATOM     18  C   UNL d   1      26.655  -9.201   3.564  0.00  0.00     0.027 A 
ATOM     19  C   UNL d   1      25.745  -9.362   2.544  0.00  0.00     0.142 A 
ATOM     20  O   UNL d   1      25.975 -10.529   1.882  0.00  0.00    -0.322 OA
ENDBRANCH  13  16
ENDBRANCH   9  10
ENDBRANCH   7   9
ENDBRANCH   3   7
BRANCH   1  21
ATOM     21  S   UNL d   1      25.323 -14.763  -3.485  0.00  0.00     0.241 S 
ATOM     22  O   UNL d   1      24.065 -14.063  -3.543  0.00  0.00    -0.206 OA
ATOM     23  O   UNL d   1      25.826 -15.550  -4.594  0.00  0.00    -0.206 OA
BRANCH  21  24
ATOM     24  N   UNL d   1      26.503 -13.593  -3.036  0.00  0.00    -0.212 NA
ATOM     25  H   UNL d   1      26.811 -13.760  -2.075  0.00  0.00     0.140 HD
BRANCH  24  26
ATOM     26  C   UNL d   1      26.030 -12.175  -3.161  0.00  0.00     0.063 C 
ATOM     27  C   UNL d   1      26.998 -11.226  -2.450  0.00  0.00     0.027 C 
ATOM     28  C   UNL d   1      25.936 -11.768  -4.622  0.00  0.00     0.027 C 
ENDBRANCH  24  26
ENDBRANCH  21  24
ENDBRANCH   1  21
BRANCH   5  29
ATOM     29  C   UNL d   1      22.945 -18.519  -0.855  0.00  0.00     0.252 C 
ATOM     30  O   UNL d   1      22.817 -19.324  -1.771  0.00  0.00    -0.268 OA
ATOM     31  N   UNL d   1      22.134 -18.431   0.254  0.00  0.00    -0.344 N 
ATOM     32  H   UNL d   1      22.213 -17.667   0.912  0.00  0.00     0.163 HD
BRANCH  31  33
ATOM     33  C   UNL d   1      21.008 -19.328   0.507  0.00  0.00     0.177 C 
ATOM     34  C   UNL d   1      20.472 -19.199   1.933  0.00  0.00     0.035 C 
ATOM     35  C   UNL d   1      19.782 -20.434   2.459  0.00  0.00     0.004 C 
ATOM     36  C   UNL d   1      18.450 -20.709   1.799  0.00  0.00     0.020 C 
ATOM     37  C   UNL d   1      18.586 -20.999   0.311  0.00  0.00     0.122 C 
ATOM     38  N   UNL d   1      18.762 -19.798  -0.478  0.00  0.00    -0.359 N 
ATOM     39  C   UNL d   1      19.867 -18.986  -0.485  0.00  0.00     0.240 C 
ATOM     40  H   UNL d   1      18.031 -19.529  -1.127  0.00  0.00     0.162 HD
ATOM     41  O   UNL d   1      19.918 -18.031  -1.263  0.00  0.00    -0.271 OA
ENDBRANCH  31  33
ENDBRANCH   5  29
TORSDOF 9
ENDMDL
MODEL 2
REMARK VINA RESULT:   -12.349      3.496      5.902
REMARK INTER + INTRA:         -17.352
REMARK INTER:                 -15.034
REMARK INTRA:                  -2.319
REMARK CONF_INDEPENDENT:        2.685
REMARK UNBOUND:                -2.319
REMARK  9 active torsions:
REMARK  status: ('A' for Active; 'I' for Inactive)
REMARK    1  A    between atoms: C_2  and  N_4 
REMARK    2  A    between atoms: N_4  and  S_5 
REMARK    3  A    between atoms: S_5  and  C_8 
REMARK    4  A    between atoms: C_10  and  N_11 
REMARK    5  A    between atoms: N_11  and  C_12 
REMARK    6  A    between atoms: C_12  and  C_13 
REMARK    7  A    between atoms: C_16  and  C_17 
REMARK    8  A    between atoms: C_25  and  C_26 
REMARK       I    between atoms: C_26  and  N_28 
REMARK    9  A    between atoms: N_28  and  C_29 
ROOT
ATOM      1  C   UNL d   1      25.203 -15.886  -1.589  0.00  0.00     0.077 C 
ATOM      2  C   UNL d   1      26.512 -16.191  -1.177  0.00  0.00     0.054 C 
ATOM      3  C   UNL d   1      26.777 -17.383  -0.496  0.00  0.00     0.030 C 
ATOM      4  C   UNL d   1      25.685 -18.144  -0.111  0.00  0.00     0.046 C 
ATOM      5  C   UNL d   1      24.386 -17.848  -0.546  0.00  0.00     0.035 C 
ATOM      6  C   UNL d   1      24.138 -16.717  -1.294  0.00  0.00     0.042 C 
ENDROOT
BRANCH   3   7
ATOM      7  N   UNL d   1      28.075 -17.733  -0.146  0.00  0.00    -0.386 N 
ATOM      8  H   UNL d   1      28.130 -18.102   0.799  0.00  0.00     0.160 HD
BRANCH   7   9
ATOM      9  C   UNL d   1      29.204 -16.867  -0.523  0.00  0.00     0.158 C 
BRANCH   9  10
ATOM     10  C   UNL d   1      29.681 -17.132  -1.933  0.00  0.00    -0.041 A 
ATOM     11  C   UNL d   1      29.224 -16.375  -3.020  0.00  0.00     0.010 A 
ATOM     12  C   UNL d   1      29.579 -16.703  -4.325  0.00  0.00     0.015 A 
ATOM     13  C   UNL d   1      30.514 -17.708  -4.560  0.00  0.00    -0.002 A 
ATOM     14  C   UNL d   1      31.018 -18.443  -3.479  0.00  0.00     0.015 A 
ATOM     15  C   UNL d   1      30.605 -18.161  -2.174  0.00  0.00     0.010 A 
BRANCH  13  16
ATOM     16  C   UNL d   1      30.936 -18.018  -5.907  0.00  0.00     0.085 A 
ATOM     17  C   UNL d   1      31.775 -17.375  -6.787  0.00  0.00     0.040 A 
ATOM     18  C   UNL d   1      31.747 -18.123  -7.985  0.00  0.00     0.027 A 
ATOM     19  C   UNL d   1      30.892 -19.178  -7.760  0.00  0.00     0.142 A 
ATOM     20  O   UNL d   1      30.403 -19.132  -6.491  0.00  0.00    -0.322 OA
ENDBRANCH  13  16
ENDBRANCH   9  10
ENDBRANCH   7   9
ENDBRANCH   3   7
BRANCH   1  21
ATOM     21  S   UNL d   1      24.868 -14.527  -2.654  0.00  0.00     0.241 S 
ATOM     22  O   UNL d   1      25.666 -13.421  -2.187  0.00  0.00    -0.206 OA
ATOM     23  O   UNL d   1      23.426 -14.450  -2.769  0.00  0.00    -0.206 OA
BRANCH  21  24
ATOM     24  N   UNL d   1      25.538 -14.996  -4.169  0.00  0.00    -0.212 NA
ATOM     25  H   UNL d   1      25.825 -15.976  -4.135  0.00  0.00     0.140 HD
BRANCH  24  26
ATOM     26  C   UNL d   1      26.705 -14.158  -4.602  0.00  0.00     0.063 C 
ATOM     27  C   UNL d   1      27.431 -14.822  -5.774  0.00  0.00     0.027 C 
ATOM     28  C   UNL d   1      26.240 -12.778  -5.037  0.00  0.00     0.027 C 
ENDBRANCH  24  26
ENDBRANCH  21  24
ENDBRANCH   1  21
BRANCH   5  29
ATOM     29  C   UNL d   1      23.355 -18.846  -0.257  0.00  0.00     0.252 C 
ATOM     30  O   UNL d   1      23.655 -20.005  -0.522  0.00  0.00    -0.268 OA
ATOM     31  N   UNL d   1      22.149 -18.426   0.257  0.00  0.00    -0.344 N 
ATOM     32  H   UNL d   1      21.916 -17.446   0.336  0.00  0.00     0.163 HD
BRANCH  31  33
ATOM     33  C   UNL d   1      21.053 -19.334   0.594  0.00  0.00     0.177 C 
ATOM     34  C   UNL d   1      20.566 -19.147   2.031  0.00  0.00     0.035 C 
ATOM     35  C   UNL d   1      19.924 -20.369   2.641  0.00  0.00     0.004 C 
ATOM     36  C   UNL d   1      18.577 -20.704   2.046  0.00  0.00     0.020 C 
ATOM     37  C   UNL d   1      18.666 -21.065   0.570  0.00  0.00     0.122 C 
ATOM     38  N   UNL d   1      18.785 -19.901  -0.283  0.00  0.00    -0.359 N 
ATOM     39  C   UNL d   1      19.870 -19.067  -0.370  0.00  0.00     0.240 C 
ATOM     40  H   UNL d   1      18.025 -19.679  -0.917  0.00  0.00     0.162 HD
ATOM     41  O   UNL d   1      19.871 -18.149  -1.194  0.00  0.00    -0.271 OA
ENDBRANCH  31  33
ENDBRANCH   5  29
TORSDOF 9
ENDMDL
MODEL 3
REMARK VINA RESULT:   -10.887      4.039      9.028
REMARK INTER + INTRA:         -15.712
REMARK INTER:                 -13.572
REMARK INTRA:                  -2.141
REMARK CONF_INDEPENDENT:        2.685
REMARK UNBOUND:                -2.141
REMARK  9 active torsions:
REMARK  status: ('A' for Active; 'I' for Inactive)
REMARK    1  A    between atoms: C_2  and  N_4 
REMARK    2  A    between atoms: N_4  and  S_5 
REMARK    3  A    between atoms: S_5  and  C_8 
REMARK    4  A    between atoms: C_10  and  N_11 
REMARK    5  A    between atoms: N_11  and  C_12 
REMARK    6  A    between atoms: C_12  and  C_13 
REMARK    7  A    between atoms: C_16  and  C_17 
REMARK    8  A    between atoms: C_25  and  C_26 
REMARK       I    between atoms: C_26  and  N_28 
REMARK    9  A    between atoms: N_28  and  C_29 
ROOT
ATOM      1  C   UNL d   1      26.681 -12.334  -3.312  0.00  0.00     0.077 C 
ATOM      2  C   UNL d   1      26.134 -13.038  -2.225  0.00  0.00     0.054 C 
ATOM      3  C   UNL d   1      26.249 -14.430  -2.158  0.00  0.00     0.030 C 
ATOM      4  C   UNL d   1      26.768 -15.074  -3.270  0.00  0.00     0.046 C 
ATOM      5  C   UNL d   1      27.335 -14.364  -4.338  0.00  0.00     0.035 C 
ATOM      6  C   UNL d   1      27.299 -12.987  -4.362  0.00  0.00     0.042 C 
ENDROOT
BRANCH   3   7
ATOM      7  N   UNL d   1      25.778 -15.134  -1.057  0.00  0.00    -0.386 N 
ATOM      8  H   UNL d   1      26.005 -14.672  -0.181  0.00  0.00     0.160 HD
BRANCH   7   9
ATOM      9  C   UNL d   1      25.889 -16.601  -1.012  0.00  0.00     0.158 C 
BRANCH   9  10
ATOM     10  C   UNL d   1      24.569 -17.264  -0.686  0.00  0.00    -0.041 A 
ATOM     11  C   UNL d   1      24.490 -18.622  -0.348  0.00  0.00     0.010 A 
ATOM     12  C   UNL d   1      23.261 -19.247  -0.166  0.00  0.00     0.015 A 
ATOM     13  C   UNL d   1      22.089 -18.494  -0.178  0.00  0.00    -0.002 A 
ATOM     14  C   UNL d   1      22.155 -17.126  -0.466  0.00  0.00     0.015 A 
ATOM     15  C   UNL d   1      23.384 -16.512  -0.722  0.00  0.00     0.010 A 
BRANCH  13  16
ATOM     16  C   UNL d   1      20.811 -19.122   0.070  0.00  0.00     0.085 A 
ATOM     17  C   UNL d   1      20.088 -19.331   1.221  0.00  0.00     0.040 A 
ATOM     18  C   UNL d   1      18.938 -20.060   0.844  0.00  0.00     0.027 A 
ATOM     19  C   UNL d   1      19.032 -20.251  -0.516  0.00  0.00     0.142 A 
ATOM     20  O   UNL d   1      20.163 -19.669  -1.001  0.00  0.00    -0.322 OA
ENDBRANCH  13  16
ENDBRANCH   9  10
ENDBRANCH   7   9
ENDBRANCH   3   7
BRANCH   1  21
ATOM     21  S   UNL d   1      26.772 -10.578  -3.315  0.00  0.00     0.241 S 
ATOM     22  O   UNL d   1      27.869 -10.215  -4.177  0.00  0.00    -0.206 OA
ATOM     23  O   UNL d   1      26.709 -10.167  -1.926  0.00  0.00    -0.206 OA
BRANCH  21  24
ATOM     24  N   UNL d   1      25.339 -10.075  -4.124  0.00  0.00    -0.212 NA
ATOM     25  H   UNL d   1      24.676 -10.852  -4.174  0.00  0.00     0.140 HD
BRANCH  24  26
ATOM     26  C   UNL d   1      25.577  -9.543  -5.507  0.00  0.00     0.063 C 
ATOM     27  C   UNL d   1      25.665 -10.694  -6.512  0.00  0.00     0.027 C 
ATOM     28  C   UNL d   1      24.448  -8.617  -5.926  0.00  0.00     0.027 C 
ENDBRANCH  24  26
ENDBRANCH  21  24
ENDBRANCH   1  21
BRANCH   5  29
ATOM     29  C   UNL d   1      28.045 -15.154  -5.345  0.00  0.00     0.252 C 
ATOM     30  O   UNL d   1      27.569 -15.119  -6.474  0.00  0.00    -0.268 OA
ATOM     31  N   UNL d   1      29.153 -15.876  -4.963  0.00  0.00    -0.344 N 
ATOM     32  H   UNL d   1      29.423 -15.965  -3.993  0.00  0.00     0.163 HD
BRANCH  31  33
ATOM     33  C   UNL d   1      29.945 -16.690  -5.884  0.00  0.00     0.177 C 
ATOM     34  C   UNL d   1      31.181 -15.950  -6.396  0.00  0.00     0.035 C 
ATOM     35  C   UNL d   1      31.684 -16.420  -7.739  0.00  0.00     0.004 C 
ATOM     36  C   UNL d   1      32.311 -17.794  -7.701  0.00  0.00     0.020 C 
ATOM     37  C   UNL d   1      31.317 -18.878  -7.309  0.00  0.00     0.122 C 
ATOM     38  N   UNL d   1      31.070 -18.919  -5.883  0.00  0.00    -0.359 N 
ATOM     39  C   UNL d   1      30.405 -17.973  -5.147  0.00  0.00     0.240 C 
ATOM     40  H   UNL d   1      31.371 -19.734  -5.359  0.00  0.00     0.162 HD
ATOM     41  O   UNL d   1      30.199 -18.167  -3.946  0.00  0.00    -0.271 OA
ENDBRANCH  31  33
ENDBRANCH   5  29
TORSDOF 9
ENDMDL
MODEL 4
REMARK VINA RESULT:   -10.822      4.079      9.508
REMARK INTER + INTRA:         -15.690
REMARK INTER:                 -13.506
REMARK INTRA:                  -2.184
REMARK CONF_INDEPENDENT:        2.685
REMARK UNBOUND:                -2.184
REMARK  9 active torsions:
REMARK  status: ('A' for Active; 'I' for Inactive)
REMARK    1  A    between atoms: C_2  and  N_4 
REMARK    2  A    between atoms: N_4  and  S_5 
REMARK    3  A    between atoms: S_5  and  C_8 
REMARK    4  A    between atoms: C_10  and  N_11 
REMARK    5  A    between atoms: N_11  and  C_12 
REMARK    6  A    between atoms: C_12  and  C_13 
REMARK    7  A    between atoms: C_16  and  C_17 
REMARK    8  A    between atoms: C_25  and  C_26 
REMARK       I    between atoms: C_26  and  N_28 
REMARK    9  A    between atoms: N_28  and  C_29 
ROOT
ATOM      1  C   UNL d   1      27.546 -12.406   1.983  0.00  0.00     0.077 C 
ATOM      2  C   UNL d   1      27.654 -13.525   1.139  0.00  0.00     0.054 C 
ATOM      3  C   UNL d   1      27.878 -14.795   1.680  0.00  0.00     0.030 C 
ATOM      4  C   UNL d   1      28.149 -14.863   3.038  0.00  0.00     0.046 C 
ATOM      5  C   UNL d   1      28.014 -13.747   3.875  0.00  0.00     0.035 C 
ATOM      6  C   UNL d   1      27.706 -12.511   3.352  0.00  0.00     0.042 C 
ENDROOT
BRANCH   3   7
ATOM      7  N   UNL d   1      27.916 -15.921   0.867  0.00  0.00    -0.386 N 
ATOM      8  H   UNL d   1      28.817 -16.387   0.901  0.00  0.00     0.160 HD
BRANCH   7   9
ATOM      9  C   UNL d   1      27.300 -15.892  -0.470  0.00  0.00     0.158 C 
BRANCH   9  10
ATOM     10  C   UNL d   1      25.964 -16.601  -0.499  0.00  0.00    -0.041 A 
ATOM     11  C   UNL d   1      24.840 -16.029  -1.111  0.00  0.00     0.010 A 
ATOM     12  C   UNL d   1      23.592 -16.636  -1.030  0.00  0.00     0.015 A 
ATOM     13  C   UNL d   1      23.467 -17.899  -0.457  0.00  0.00    -0.002 A 
ATOM     14  C   UNL d   1      24.591 -18.507   0.117  0.00  0.00     0.015 A 
ATOM     15  C   UNL d   1      25.832 -17.863   0.101  0.00  0.00     0.010 A 
BRANCH  13  16
ATOM     16  C   UNL d   1      22.185 -18.566  -0.419  0.00  0.00     0.085 A 
ATOM     17  C   UNL d   1      21.370 -18.951   0.619  0.00  0.00     0.040 A 
ATOM     18  C   UNL d   1      20.273 -19.624   0.039  0.00  0.00     0.027 A 
ATOM     19  C   UNL d   1      20.486 -19.606  -1.321  0.00  0.00     0.142 A 
ATOM     20  O   UNL d   1      21.643 -18.950  -1.613  0.00  0.00    -0.322 OA
ENDBRANCH  13  16
ENDBRANCH   9  10
ENDBRANCH   7   9
ENDBRANCH   3   7
BRANCH   1  21
ATOM     21  S   UNL d   1      27.024 -10.842   1.370  0.00  0.00     0.241 S 
ATOM     22  O   UNL d   1      25.817 -10.494   2.079  0.00  0.00    -0.206 OA
ATOM     23  O   UNL d   1      27.075 -10.937  -0.075  0.00  0.00    -0.206 OA
BRANCH  21  24
ATOM     24  N   UNL d   1      28.233  -9.744   1.913  0.00  0.00    -0.212 NA
ATOM     25  H   UNL d   1      29.020 -10.261   2.311  0.00  0.00     0.140 HD
BRANCH  24  26
ATOM     26  C   UNL d   1      27.740  -8.747   2.920  0.00  0.00     0.063 C 
ATOM     27  C   UNL d   1      26.626  -7.887   2.318  0.00  0.00     0.027 C 
ATOM     28  C   UNL d   1      27.197  -9.454   4.151  0.00  0.00     0.027 C 
ENDBRANCH  24  26
ENDBRANCH  21  24
ENDBRANCH   1  21
BRANCH   5  29
ATOM     29  C   UNL d   1      28.111 -13.995   5.314  0.00  0.00     0.252 C 
ATOM     30  O   UNL d   1      27.780 -15.118   5.680  0.00  0.00    -0.268 OA
ATOM     31  N   UNL d   1      28.534 -12.975   6.137  0.00  0.00    -0.344 N 
ATOM     32  H   UNL d   1      28.672 -12.035   5.793  0.00  0.00     0.163 HD
BRANCH  31  33
ATOM     33  C   UNL d   1      28.680 -13.113   7.586  0.00  0.00     0.177 C 
ATOM     34  C   UNL d   1      30.012 -13.753   7.977  0.00  0.00     0.035 C 
ATOM     35  C   UNL d   1      29.998 -14.472   9.304  0.00  0.00     0.004 C 
ATOM     36  C   UNL d   1      29.899 -13.545  10.492  0.00  0.00     0.020 C 
ATOM     37  C   UNL d   1      28.593 -12.763  10.513  0.00  0.00     0.122 C 
ATOM     38  N   UNL d   1      28.601 -11.639   9.600  0.00  0.00    -0.359 N 
ATOM     39  C   UNL d   1      28.597 -11.706   8.231  0.00  0.00     0.240 C 
ATOM     40  H   UNL d   1      28.565 -10.700   9.981  0.00  0.00     0.162 HD
ATOM     41  O   UNL d   1      28.529 -10.668   7.568  0.00  0.00    -0.271 OA
ENDBRANCH  31  33
ENDBRANCH   5  29
TORSDOF 9
ENDMDL
MODEL 5
REMARK VINA RESULT:   -10.430      3.418      9.296
REMARK INTER + INTRA:         -15.368
REMARK INTER:                 -13.115
REMARK INTRA:                  -2.253
REMARK CONF_INDEPENDENT:        2.685
REMARK UNBOUND:                -2.253
REMARK  9 active torsions:
REMARK  status: ('A' for Active; 'I' for Inactive)
REMARK    1  A    between atoms: C_2  and  N_4 
REMARK    2  A    between atoms: N_4  and  S_5 
REMARK    3  A    between atoms: S_5  and  C_8 
REMARK    4  A    between atoms: C_10  and  N_11 
REMARK    5  A    between atoms: N_11  and  C_12 
REMARK    6  A    between atoms: C_12  and  C_13 
REMARK    7  A    between atoms: C_16  and  C_17 
REMARK    8  A    between atoms: C_25  and  C_26 
REMARK       I    between atoms: C_26  and  N_28 
REMARK    9  A    between atoms: N_28  and  C_29 
ROOT
ATOM      1  C   UNL d   1      27.090 -14.091  -4.201  0.00  0.00     0.077 C 
ATOM      2  C   UNL d   1      26.869 -14.851  -3.039  0.00  0.00     0.054 C 
ATOM      3  C   UNL d   1      26.403 -14.235  -1.874  0.00  0.00     0.030 C 
ATOM      4  C   UNL d   1      26.334 -12.850  -1.876  0.00  0.00     0.046 C 
ATOM      5  C   UNL d   1      26.530 -12.103  -3.046  0.00  0.00     0.035 C 
ATOM      6  C   UNL d   1      26.905 -12.721  -4.218  0.00  0.00     0.042 C 
ENDROOT
BRANCH   3   7
ATOM      7  N   UNL d   1      26.112 -14.981  -0.739  0.00  0.00    -0.386 N 
ATOM      8  H   UNL d   1      26.495 -14.563   0.104  0.00  0.00     0.160 HD
BRANCH   7   9
ATOM      9  C   UNL d   1      26.197 -16.450  -0.775  0.00  0.00     0.158 C 
BRANCH   9  10
ATOM     10  C   UNL d   1      24.851 -17.106  -0.559  0.00  0.00    -0.041 A 
ATOM     11  C   UNL d   1      24.735 -18.472  -0.269  0.00  0.00     0.010 A 
ATOM     12  C   UNL d   1      23.490 -19.087  -0.189  0.00  0.00     0.015 A 
ATOM     13  C   UNL d   1      22.329 -18.319  -0.256  0.00  0.00    -0.002 A 
ATOM     14  C   UNL d   1      22.429 -16.944  -0.497  0.00  0.00     0.015 A 
ATOM     15  C   UNL d   1      23.679 -16.338  -0.651  0.00  0.00     0.010 A 
BRANCH  13  16
ATOM     16  C   UNL d   1      21.031 -18.938  -0.114  0.00  0.00     0.085 A 
ATOM     17  C   UNL d   1      20.351 -19.428   0.977  0.00  0.00     0.040 A 
ATOM     18  C   UNL d   1      19.146 -19.976   0.484  0.00  0.00     0.027 A 
ATOM     19  C   UNL d   1      19.166 -19.786  -0.879  0.00  0.00     0.142 A 
ATOM     20  O   UNL d   1      20.304 -19.140  -1.253  0.00  0.00    -0.322 OA
ENDBRANCH  13  16
ENDBRANCH   9  10
ENDBRANCH   7   9
ENDBRANCH   3   7
BRANCH   1  21
ATOM     21  S   UNL d   1      27.437 -14.856  -5.746  0.00  0.00     0.241 S 
ATOM     22  O   UNL d   1      27.923 -13.824  -6.627  0.00  0.00    -0.206 OA
ATOM     23  O   UNL d   1      26.279 -15.667  -6.065  0.00  0.00    -0.206 OA
BRANCH  21  24
ATOM     24  N   UNL d   1      28.781 -15.883  -5.422  0.00  0.00    -0.212 NA
ATOM     25  H   UNL d   1      28.611 -16.419  -4.569  0.00  0.00     0.140 HD
BRANCH  24  26
ATOM     26  C   UNL d   1      30.085 -15.153  -5.293  0.00  0.00     0.063 C 
ATOM     27  C   UNL d   1      31.006 -15.878  -4.309  0.00  0.00     0.027 C 
ATOM     28  C   UNL d   1      30.785 -15.064  -6.639  0.00  0.00     0.027 C 
ENDBRANCH  24  26
ENDBRANCH  21  24
ENDBRANCH   1  21
BRANCH   5  29
ATOM     29  C   UNL d   1      26.213 -10.676  -2.970  0.00  0.00     0.252 C 
ATOM     30  O   UNL d   1      26.734 -10.069  -2.040  0.00  0.00    -0.268 OA
ATOM     31  N   UNL d   1      25.363 -10.133  -3.907  0.00  0.00    -0.344 N 
ATOM     32  H   UNL d   1      24.867 -10.709  -4.573  0.00  0.00     0.163 HD
BRANCH  31  33
ATOM     33  C   UNL d   1      24.987  -8.720  -3.935  0.00  0.00     0.177 C 
ATOM     34  C   UNL d   1      26.202  -7.795  -3.861  0.00  0.00     0.035 C 
ATOM     35  C   UNL d   1      25.919  -6.430  -3.282  0.00  0.00     0.004 C 
ATOM     36  C   UNL d   1      25.088  -5.550  -4.189  0.00  0.00     0.020 C 
ATOM     37  C   UNL d   1      23.696  -6.115  -4.433  0.00  0.00     0.122 C 
ATOM     38  N   UNL d   1      23.690  -7.181  -5.413  0.00  0.00    -0.359 N 
ATOM     39  C   UNL d   1      24.225  -8.433  -5.253  0.00  0.00     0.240 C 
ATOM     40  H   UNL d   1      23.217  -7.028  -6.297  0.00  0.00     0.162 HD
ATOM     41  O   UNL d   1      24.086  -9.275  -6.144  0.00  0.00    -0.271 OA
ENDBRANCH  31  33
ENDBRANCH   5  29
TORSDOF 9
ENDMDL
MODEL 6
REMARK VINA RESULT:   -10.211      4.036      9.352
REMARK INTER + INTRA:         -15.248
REMARK INTER:                 -12.895
REMARK INTRA:                  -2.353
REMARK CONF_INDEPENDENT:        2.685
REMARK UNBOUND:                -2.353
REMARK  9 active torsions:
REMARK  status: ('A' for Active; 'I' for Inactive)
REMARK    1  A    between atoms: C_2  and  N_4 
REMARK    2  A    between atoms: N_4  and  S_5 
REMARK    3  A    between atoms: S_5  and  C_8 
REMARK    4  A    between atoms: C_10  and  N_11 
REMARK    5  A    between atoms: N_11  and  C_12 
REMARK    6  A    between atoms: C_12  and  C_13 
REMARK    7  A    between atoms: C_16  and  C_17 
REMARK    8  A    between atoms: C_25  and  C_26 
REMARK       I    between atoms: C_26  and  N_28 
REMARK    9  A    between atoms: N_28  and  C_29 
ROOT
ATOM      1  C   UNL d   1      27.736 -12.377   1.965  0.00  0.00     0.077 C 
ATOM      2  C   UNL d   1      27.691 -13.506   1.128  0.00  0.00     0.054 C 
ATOM      3  C   UNL d   1      27.783 -14.790   1.673  0.00  0.00     0.030 C 
ATOM      4  C   UNL d   1      28.082 -14.882   3.024  0.00  0.00     0.046 C 
ATOM      5  C   UNL d   1      28.100 -13.754   3.855  0.00  0.00     0.035 C 
ATOM      6  C   UNL d   1      27.921 -12.493   3.330  0.00  0.00     0.042 C 
ENDROOT
BRANCH   3   7
ATOM      7  N   UNL d   1      27.669 -15.917   0.869  0.00  0.00    -0.386 N 
ATOM      8  H   UNL d   1      28.532 -16.452   0.834  0.00  0.00     0.160 HD
BRANCH   7   9
ATOM      9  C   UNL d   1      26.951 -15.843  -0.414  0.00  0.00     0.158 C 
BRANCH   9  10
ATOM     10  C   UNL d   1      25.628 -16.575  -0.371  0.00  0.00    -0.041 A 
ATOM     11  C   UNL d   1      25.500 -17.831   0.238  0.00  0.00     0.010 A 
ATOM     12  C   UNL d   1      24.308 -18.545   0.169  0.00  0.00     0.015 A 
ATOM     13  C   UNL d   1      23.175 -17.956  -0.388  0.00  0.00    -0.002 A 
ATOM     14  C   UNL d   1      23.274 -16.681  -0.958  0.00  0.00     0.015 A 
ATOM     15  C   UNL d   1      24.491 -15.993  -0.954  0.00  0.00     0.010 A 
BRANCH  13  16
ATOM     16  C   UNL d   1      21.916 -18.665  -0.412  0.00  0.00     0.085 A 
ATOM     17  C   UNL d   1      21.104 -19.147   0.588  0.00  0.00     0.040 A 
ATOM     18  C   UNL d   1      20.034 -19.813  -0.051  0.00  0.00     0.027 A 
ATOM     19  C   UNL d   1      20.260 -19.694  -1.404  0.00  0.00     0.142 A 
ATOM     20  O   UNL d   1      21.397 -18.982  -1.635  0.00  0.00    -0.322 OA
ENDBRANCH  13  16
ENDBRANCH   9  10
ENDBRANCH   7   9
ENDBRANCH   3   7
BRANCH   1  21
ATOM     21  S   UNL d   1      27.381 -10.767   1.353  0.00  0.00     0.241 S 
ATOM     22  O   UNL d   1      28.516  -9.936   1.671  0.00  0.00    -0.206 OA
ATOM     23  O   UNL d   1      26.039 -10.452   1.801  0.00  0.00    -0.206 OA
BRANCH  21  24
ATOM     24  N   UNL d   1      27.383 -10.948  -0.358  0.00  0.00    -0.212 NA
ATOM     25  H   UNL d   1      26.653 -11.607  -0.640  0.00  0.00     0.140 HD
BRANCH  24  26
ATOM     26  C   UNL d   1      28.698 -11.403  -0.919  0.00  0.00     0.063 C 
ATOM     27  C   UNL d   1      28.479 -12.471  -1.993  0.00  0.00     0.027 C 
ATOM     28  C   UNL d   1      29.448 -10.237  -1.539  0.00  0.00     0.027 C 
ENDBRANCH  24  26
ENDBRANCH  21  24
ENDBRANCH   1  21
BRANCH   5  29
ATOM     29  C   UNL d   1      28.208 -14.003   5.293  0.00  0.00     0.252 C 
ATOM     30  O   UNL d   1      28.149 -15.181   5.630  0.00  0.00    -0.268 OA
ATOM     31  N   UNL d   1      28.344 -12.931   6.146  0.00  0.00    -0.344 N 
ATOM     32  H   UNL d   1      28.260 -11.978   5.820  0.00  0.00     0.163 HD
BRANCH  31  33
ATOM     33  C   UNL d   1      28.472 -13.062   7.597  0.00  0.00     0.177 C 
ATOM     34  C   UNL d   1      29.662 -13.935   7.997  0.00  0.00     0.035 C 
ATOM     35  C   UNL d   1      29.521 -14.610   9.340  0.00  0.00     0.004 C 
ATOM     36  C   UNL d   1      29.609 -13.655  10.508  0.00  0.00     0.020 C 
ATOM     37  C   UNL d   1      28.476 -12.639  10.515  0.00  0.00     0.122 C 
ATOM     38  N   UNL d   1      28.691 -11.557   9.577  0.00  0.00    -0.359 N 
ATOM     39  C   UNL d   1      28.664 -11.652   8.209  0.00  0.00     0.240 C 
ATOM     40  H   UNL d   1      28.838 -10.620   9.937  0.00  0.00     0.162 HD
ATOM     41  O   UNL d   1      28.790 -10.634   7.524  0.00  0.00    -0.271 OA
ENDBRANCH  31  33
ENDBRANCH   5  29
TORSDOF 9
ENDMDL
MODEL 7
REMARK VINA RESULT:   -10.138      4.721      9.289
REMARK INTER + INTRA:         -15.418
REMARK INTER:                 -12.823
REMARK INTRA:                  -2.595
REMARK CONF_INDEPENDENT:        2.685
REMARK UNBOUND:                -2.595
REMARK  9 active torsions:
REMARK  status: ('A' for Active; 'I' for Inactive)
REMARK    1  A    between atoms: C_2  and  N_4 
REMARK    2  A    between atoms: N_4  and  S_5 
REMARK    3  A    between atoms: S_5  and  C_8 
REMARK    4  A    between atoms: C_10  and  N_11 
REMARK    5  A    between atoms: N_11  and  C_12 
REMARK    6  A    between atoms: C_12  and  C_13 
REMARK    7  A    between atoms: C_16  and  C_17 
REMARK    8  A    between atoms: C_25  and  C_26 
REMARK       I    between atoms: C_26  and  N_28 
REMARK    9  A    between atoms: N_28  and  C_29 
ROOT
ATOM      1  C   UNL d   1      26.523 -14.306  -4.242  0.00  0.00     0.077 C 
ATOM      2  C   UNL d   1      26.711 -14.973  -3.019  0.00  0.00     0.054 C 
ATOM      3  C   UNL d   1      27.813 -15.815  -2.839  0.00  0.00     0.030 C 
ATOM      4  C   UNL d   1      28.593 -16.080  -3.954  0.00  0.00     0.046 C 
ATOM      5  C   UNL d   1      28.414 -15.392  -5.162  0.00  0.00     0.035 C 
ATOM      6  C   UNL d   1      27.379 -14.495  -5.311  0.00  0.00     0.042 C 
ENDROOT
BRANCH   3   7
ATOM      7  N   UNL d   1      28.054 -16.425  -1.614  0.00  0.00    -0.386 N 
ATOM      8  H   UNL d   1      28.247 -17.417  -1.712  0.00  0.00     0.160 HD
BRANCH   7   9
ATOM      9  C   UNL d   1      27.232 -16.083  -0.442  0.00  0.00     0.158 C 
BRANCH   9  10
ATOM     10  C   UNL d   1      25.872 -16.745  -0.486  0.00  0.00    -0.041 A 
ATOM     11  C   UNL d   1      24.741 -16.072  -0.970  0.00  0.00     0.010 A 
ATOM     12  C   UNL d   1      23.477 -16.648  -0.897  0.00  0.00     0.015 A 
ATOM     13  C   UNL d   1      23.336 -17.965  -0.469  0.00  0.00    -0.002 A 
ATOM     14  C   UNL d   1      24.463 -18.669  -0.027  0.00  0.00     0.015 A 
ATOM     15  C   UNL d   1      25.724 -18.064  -0.031  0.00  0.00     0.010 A 
BRANCH  13  16
ATOM     16  C   UNL d   1      22.034 -18.594  -0.445  0.00  0.00     0.085 A 
ATOM     17  C   UNL d   1      21.203 -18.966   0.586  0.00  0.00     0.040 A 
ATOM     18  C   UNL d   1      20.089 -19.599  -0.007  0.00  0.00     0.027 A 
ATOM     19  C   UNL d   1      20.309 -19.573  -1.365  0.00  0.00     0.142 A 
ATOM     20  O   UNL d   1      21.486 -18.949  -1.644  0.00  0.00    -0.322 OA
ENDBRANCH  13  16
ENDBRANCH   9  10
ENDBRANCH   7   9
ENDBRANCH   3   7
BRANCH   1  21
ATOM     21  S   UNL d   1      25.298 -13.058  -4.428  0.00  0.00     0.241 S 
ATOM     22  O   UNL d   1      24.016 -13.700  -4.270  0.00  0.00    -0.206 OA
ATOM     23  O   UNL d   1      25.652 -12.317  -5.622  0.00  0.00    -0.206 OA
BRANCH  21  24
ATOM     24  N   UNL d   1      25.502 -12.049  -3.048  0.00  0.00    -0.212 NA
ATOM     25  H   UNL d   1      24.853 -11.260  -3.095  0.00  0.00     0.140 HD
BRANCH  24  26
ATOM     26  C   UNL d   1      26.899 -11.527  -2.879  0.00  0.00     0.063 C 
ATOM     27  C   UNL d   1      27.001 -10.096  -3.413  0.00  0.00     0.027 C 
ATOM     28  C   UNL d   1      27.297 -11.529  -1.413  0.00  0.00     0.027 C 
ENDBRANCH  24  26
ENDBRANCH  21  24
ENDBRANCH   1  21
BRANCH   5  29
ATOM     29  C   UNL d   1      29.435 -15.599  -6.190  0.00  0.00     0.252 C 
ATOM     30  O   UNL d   1      29.670 -14.630  -6.903  0.00  0.00    -0.268 OA
ATOM     31  N   UNL d   1      30.029 -16.837  -6.296  0.00  0.00    -0.344 N 
ATOM     32  H   UNL d   1      29.704 -17.631  -5.762  0.00  0.00     0.163 HD
BRANCH  31  33
ATOM     33  C   UNL d   1      31.067 -17.154  -7.276  0.00  0.00     0.177 C 
ATOM     34  C   UNL d   1      32.448 -16.666  -6.837  0.00  0.00     0.035 C 
ATOM     35  C   UNL d   1      33.407 -16.392  -7.970  0.00  0.00     0.004 C 
ATOM     36  C   UNL d   1      33.883 -17.641  -8.674  0.00  0.00     0.020 C 
ATOM     37  C   UNL d   1      32.749 -18.392  -9.359  0.00  0.00     0.122 C 
ATOM     38  N   UNL d   1      31.961 -19.178  -8.433  0.00  0.00    -0.359 N 
ATOM     39  C   UNL d   1      31.121 -18.691  -7.465  0.00  0.00     0.240 C 
ATOM     40  H   UNL d   1      31.982 -20.189  -8.511  0.00  0.00     0.162 HD
ATOM     41  O   UNL d   1      30.449 -19.474  -6.789  0.00  0.00    -0.271 OA
ENDBRANCH  31  33
ENDBRANCH   5  29
TORSDOF 9
ENDMDL
MODEL 8
REMARK VINA RESULT:   -10.122      2.490      8.763
REMARK INTER + INTRA:         -15.352
REMARK INTER:                 -12.807
REMARK INTRA:                  -2.545
REMARK CONF_INDEPENDENT:        2.685
REMARK UNBOUND:                -2.545
REMARK  9 active torsions:
REMARK  status: ('A' for Active; 'I' for Inactive)
REMARK    1  A    between atoms: C_2  and  N_4 
REMARK    2  A    between atoms: N_4  and  S_5 
REMARK    3  A    between atoms: S_5  and  C_8 
REMARK    4  A    between atoms: C_10  and  N_11 
REMARK    5  A    between atoms: N_11  and  C_12 
REMARK    6  A    between atoms: C_12  and  C_13 
REMARK    7  A    between atoms: C_16  and  C_17 
REMARK    8  A    between atoms: C_25  and  C_26 
REMARK       I    between atoms: C_26  and  N_28 
REMARK    9  A    between atoms: N_28  and  C_29 
ROOT
ATOM      1  C   UNL d   1      26.499 -13.519  -2.956  0.00  0.00     0.077 C 
ATOM      2  C   UNL d   1      26.785 -14.674  -2.206  0.00  0.00     0.054 C 
ATOM      3  C   UNL d   1      27.250 -14.563  -0.892  0.00  0.00     0.030 C 
ATOM      4  C   UNL d   1      27.566 -13.291  -0.440  0.00  0.00     0.046 C 
ATOM      5  C   UNL d   1      27.254 -12.144  -1.184  0.00  0.00     0.035 C 
ATOM      6  C   UNL d   1      26.713 -12.252  -2.446  0.00  0.00     0.042 C 
ENDROOT
BRANCH   3   7
ATOM      7  N   UNL d   1      27.469 -15.693  -0.114  0.00  0.00    -0.386 N 
ATOM      8  H   UNL d   1      28.298 -15.603   0.466  0.00  0.00     0.160 HD
BRANCH   7   9
ATOM      9  C   UNL d   1      27.274 -17.036  -0.684  0.00  0.00     0.158 C 
BRANCH   9  10
ATOM     10  C   UNL d   1      25.834 -17.491  -0.591  0.00  0.00    -0.041 A 
ATOM     11  C   UNL d   1      25.314 -18.053   0.583  0.00  0.00     0.010 A 
ATOM     12  C   UNL d   1      24.025 -18.575   0.620  0.00  0.00     0.015 A 
ATOM     13  C   UNL d   1      23.179 -18.418  -0.474  0.00  0.00    -0.002 A 
ATOM     14  C   UNL d   1      23.668 -17.815  -1.640  0.00  0.00     0.015 A 
ATOM     15  C   UNL d   1      24.987 -17.357  -1.702  0.00  0.00     0.010 A 
BRANCH  13  16
ATOM     16  C   UNL d   1      21.818 -18.904  -0.426  0.00  0.00     0.085 A 
ATOM     17  C   UNL d   1      21.007 -19.287   0.616  0.00  0.00     0.040 A 
ATOM     18  C   UNL d   1      19.798 -19.734   0.038  0.00  0.00     0.027 A 
ATOM     19  C   UNL d   1      19.947 -19.594  -1.323  0.00  0.00     0.142 A 
ATOM     20  O   UNL d   1      21.170 -19.074  -1.617  0.00  0.00    -0.322 OA
ENDBRANCH  13  16
ENDBRANCH   9  10
ENDBRANCH   7   9
ENDBRANCH   3   7
BRANCH   1  21
ATOM     21  S   UNL d   1      25.686 -13.614  -4.513  0.00  0.00     0.241 S 
ATOM     22  O   UNL d   1      24.351 -14.095  -4.261  0.00  0.00    -0.206 OA
ATOM     23  O   UNL d   1      26.602 -14.297  -5.405  0.00  0.00    -0.206 OA
BRANCH  21  24
ATOM     24  N   UNL d   1      25.521 -11.975  -5.010  0.00  0.00    -0.212 NA
ATOM     25  H   UNL d   1      24.795 -11.900  -5.726  0.00  0.00     0.140 HD
BRANCH  24  26
ATOM     26  C   UNL d   1      26.790 -11.367  -5.530  0.00  0.00     0.063 C 
ATOM     27  C   UNL d   1      26.764 -11.307  -7.059  0.00  0.00     0.027 C 
ATOM     28  C   UNL d   1      26.969  -9.957  -4.992  0.00  0.00     0.027 C 
ENDBRANCH  24  26
ENDBRANCH  21  24
ENDBRANCH   1  21
BRANCH   5  29
ATOM     29  C   UNL d   1      27.433 -10.859  -0.508  0.00  0.00     0.252 C 
ATOM     30  O   UNL d   1      27.903  -9.961  -1.198  0.00  0.00    -0.268 OA
ATOM     31  N   UNL d   1      27.091 -10.753   0.822  0.00  0.00    -0.344 N 
ATOM     32  H   UNL d   1      26.827 -11.561   1.370  0.00  0.00     0.163 HD
BRANCH  31  33
ATOM     33  C   UNL d   1      27.217  -9.517   1.594  0.00  0.00     0.177 C 
ATOM     34  C   UNL d   1      26.199  -8.460   1.165  0.00  0.00     0.035 C 
ATOM     35  C   UNL d   1      26.623  -7.036   1.431  0.00  0.00     0.004 C 
ATOM     36  C   UNL d   1      26.636  -6.675   2.899  0.00  0.00     0.020 C 
ATOM     37  C   UNL d   1      27.652  -7.488   3.689  0.00  0.00     0.122 C 
ATOM     38  N   UNL d   1      27.183  -8.824   3.992  0.00  0.00    -0.359 N 
ATOM     39  C   UNL d   1      26.994  -9.841   3.093  0.00  0.00     0.240 C 
ATOM     40  H   UNL d   1      27.008  -9.072   4.960  0.00  0.00     0.162 HD
ATOM     41  O   UNL d   1      26.659 -10.958   3.495  0.00  0.00    -0.271 OA
ENDBRANCH  31  33
ENDBRANCH   5  29
TORSDOF 9
ENDMDL
MODEL 9
REMARK VINA RESULT:   -10.006      4.816      9.761
REMARK INTER + INTRA:         -15.122
REMARK INTER:                 -12.690
REMARK INTRA:                  -2.431
REMARK CONF_INDEPENDENT:        2.685
REMARK UNBOUND:                -2.431
REMARK  9 active torsions:
REMARK  status: ('A' for Active; 'I' for Inactive)
REMARK    1  A    between atoms: C_2  and  N_4 
REMARK    2  A    between atoms: N_4  and  S_5 
REMARK    3  A    between atoms: S_5  and  C_8 
REMARK    4  A    between atoms: C_10  and  N_11 
REMARK    5  A    between atoms: N_11  and  C_12 
REMARK    6  A    between atoms: C_12  and  C_13 
REMARK    7  A    between atoms: C_16  and  C_17 
REMARK    8  A    between atoms: C_25  and  C_26 
REMARK       I    between atoms: C_26  and  N_28 
REMARK    9  A    between atoms: N_28  and  C_29 
ROOT
ATOM      1  C   UNL d   1      30.542 -14.243   2.250  0.00  0.00     0.077 C 
ATOM      2  C   UNL d   1      29.529 -14.366   1.283  0.00  0.00     0.054 C 
ATOM      3  C   UNL d   1      28.196 -14.525   1.675  0.00  0.00     0.030 C 
ATOM      4  C   UNL d   1      27.955 -14.720   3.026  0.00  0.00     0.046 C 
ATOM      5  C   UNL d   1      28.966 -14.570   3.986  0.00  0.00     0.035 C 
ATOM      6  C   UNL d   1      30.267 -14.326   3.602  0.00  0.00     0.042 C 
ENDROOT
BRANCH   3   7
ATOM      7  N   UNL d   1      27.175 -14.575   0.734  0.00  0.00    -0.386 N 
ATOM      8  H   UNL d   1      26.263 -14.412   1.150  0.00  0.00     0.160 HD
BRANCH   7   9
ATOM      9  C   UNL d   1      27.184 -15.608  -0.315  0.00  0.00     0.158 C 
BRANCH   9  10
ATOM     10  C   UNL d   1      25.869 -16.352  -0.395  0.00  0.00    -0.041 A 
ATOM     11  C   UNL d   1      24.803 -15.881  -1.174  0.00  0.00     0.010 A 
ATOM     12  C   UNL d   1      23.562 -16.509  -1.148  0.00  0.00     0.015 A 
ATOM     13  C   UNL d   1      23.402 -17.704  -0.453  0.00  0.00    -0.002 A 
ATOM     14  C   UNL d   1      24.472 -18.215   0.292  0.00  0.00     0.015 A 
ATOM     15  C   UNL d   1      25.698 -17.544   0.325  0.00  0.00     0.010 A 
BRANCH  13  16
ATOM     16  C   UNL d   1      22.133 -18.398  -0.467  0.00  0.00     0.085 A 
ATOM     17  C   UNL d   1      21.778 -19.687  -0.146  0.00  0.00     0.040 A 
ATOM     18  C   UNL d   1      20.398 -19.802  -0.423  0.00  0.00     0.027 A 
ATOM     19  C   UNL d   1      19.996 -18.573  -0.896  0.00  0.00     0.142 A 
ATOM     20  O   UNL d   1      21.044 -17.704  -0.912  0.00  0.00    -0.322 OA
ENDBRANCH  13  16
ENDBRANCH   9  10
ENDBRANCH   7   9
ENDBRANCH   3   7
BRANCH   1  21
ATOM     21  S   UNL d   1      32.184 -13.799   1.807  0.00  0.00     0.241 S 
ATOM     22  O   UNL d   1      32.090 -12.932   0.659  0.00  0.00    -0.206 OA
ATOM     23  O   UNL d   1      32.945 -15.032   1.788  0.00  0.00    -0.206 OA
BRANCH  21  24
ATOM     24  N   UNL d   1      32.728 -12.814   3.110  0.00  0.00    -0.212 NA
ATOM     25  H   UNL d   1      32.779 -13.367   3.968  0.00  0.00     0.140 HD
BRANCH  24  26
ATOM     26  C   UNL d   1      31.872 -11.606   3.355  0.00  0.00     0.063 C 
ATOM     27  C   UNL d   1      31.528 -11.490   4.842  0.00  0.00     0.027 C 
ATOM     28  C   UNL d   1      32.596 -10.341   2.924  0.00  0.00     0.027 C 
ENDBRANCH  24  26
ENDBRANCH  21  24
ENDBRANCH   1  21
BRANCH   5  29
ATOM     29  C   UNL d   1      28.544 -14.582   5.387  0.00  0.00     0.252 C 
ATOM     30  O   UNL d   1      27.779 -15.488   5.700  0.00  0.00    -0.268 OA
ATOM     31  N   UNL d   1      29.004 -13.594   6.229  0.00  0.00    -0.344 N 
ATOM     32  H   UNL d   1      29.532 -12.804   5.884  0.00  0.00     0.163 HD
BRANCH  31  33
ATOM     33  C   UNL d   1      28.658 -13.514   7.647  0.00  0.00     0.177 C 
ATOM     34  C   UNL d   1      29.590 -14.354   8.520  0.00  0.00     0.035 C 
ATOM     35  C   UNL d   1      28.983 -14.819   9.821  0.00  0.00     0.004 C 
ATOM     36  C   UNL d   1      28.770 -13.706  10.820  0.00  0.00     0.020 C 
ATOM     37  C   UNL d   1      27.774 -12.665  10.329  0.00  0.00     0.122 C 
ATOM     38  N   UNL d   1      28.355 -11.741   9.378  0.00  0.00    -0.359 N 
ATOM     39  C   UNL d   1      28.753 -12.035   8.100  0.00  0.00     0.240 C 
ATOM     40  H   UNL d   1      28.452 -10.766   9.642  0.00  0.00     0.162 HD
ATOM     41  O   UNL d   1      29.166 -11.134   7.366  0.00  0.00    -0.271 OA
ENDBRANCH  31  33
ENDBRANCH   5  29
TORSDOF 9
ENDMDL
