MODEL 1
REMARK VINA RESULT:   -24.739      0.000      0.000
REMARK INTER + INTRA:         -25.205
REMARK INTER:                 -26.231
REMARK INTRA:                   1.026
REMARK CONF_INDEPENDENT:        1.492
REMARK UNBOUND:                 1.026
REMARK  5 active torsions:
REMARK  status: ('A' for Active; 'I' for Inactive)
REMARK    1  A    between atoms: C_8  and  O_9 
REMARK    2  A    between atoms: O_9  and  C_10 
REMARK    3  A    between atoms: C_13  and  N_14 
REMARK       I    between atoms: N_14  and  C_15 
REMARK    4  A    between atoms: C_15  and  C_17 
REMARK    5  A    between atoms: C_21  and  N_22 
REMARK       I    between atoms: N_22  and  C_23 
REMARK       I    between atoms: C_23  and  N_24 
ROOT
ATOM      1  N   UNL d   1      19.904 -18.575  -1.265  0.00  0.00    -0.191 NA
ATOM      2  C   UNL d   1      21.046 -18.482  -1.024  0.00  0.00     0.102 C 
ATOM      3  C   UNL d   1      22.440 -18.398  -0.725  0.00  0.00     0.078 A 
ATOM      4  C   UNL d   1      23.031 -19.594  -0.295  0.00  0.00     0.025 A 
ATOM      5  C   UNL d   1      24.408 -19.700  -0.146  0.00  0.00     0.002 A 
ATOM      6  C   UNL d   1      25.214 -18.593  -0.395  0.00  0.00     0.003 A 
ATOM      7  C   UNL d   1      24.631 -17.367  -0.746  0.00  0.00     0.039 A 
ATOM      8  C   UNL d   1      23.234 -17.248  -0.905  0.00  0.00     0.096 A 
ENDROOT
BRANCH   8   9
ATOM      9  O   UNL d   1      22.802 -15.990  -1.305  0.00  0.00    -0.309 OA
BRANCH   9  10
ATOM     10  C   UNL d   1      23.629 -15.181  -2.054  0.00  0.00     0.076 A 
ATOM     11  C   UNL d   1      24.989 -15.126  -1.739  0.00  0.00     0.039 A 
ATOM     12  C   UNL d   1      25.873 -14.332  -2.510  0.00  0.00     0.032 A 
ATOM     13  C   UNL d   1      25.424 -13.689  -3.676  0.00  0.00     0.035 A 
ATOM     14  C   UNL d   1      24.058 -13.756  -3.952  0.00  0.00     0.032 A 
ATOM     15  C   UNL d   1      23.159 -14.437  -3.128  0.00  0.00     0.039 A 
BRANCH  13  16
ATOM     16  N   UNL d   1      26.328 -13.006  -4.552  0.00  0.00    -0.323 N 
ATOM     17  C   UNL d   1      27.026 -13.627  -5.607  0.00  0.00     0.256 C 
ATOM     18  O   UNL d   1      27.044 -14.824  -5.875  0.00  0.00    -0.267 OA
ATOM     19  H   UNL d   1      26.456 -12.016  -4.374  0.00  0.00     0.169 HD
BRANCH  17  20
ATOM     20  C   UNL d   1      27.917 -12.816  -6.474  0.00  0.00     0.034 A 
ATOM     21  C   UNL d   1      27.485 -11.686  -7.148  0.00  0.00     0.017 A 
ATOM     22  C   UNL d   1      28.291 -11.139  -8.158  0.00  0.00     0.003 A 
ATOM     23  C   UNL d   1      29.550 -11.698  -8.466  0.00  0.00     0.029 A 
ATOM     24  C   UNL d   1      29.974 -12.852  -7.796  0.00  0.00     0.037 A 
ATOM     25  C   UNL d   1      29.148 -13.338  -6.794  0.00  0.00     0.046 A 
BRANCH  24  26
ATOM     26  N   UNL d   1      31.175 -13.520  -8.132  0.00  0.00    -0.309 N 
ATOM     27  C   UNL d   1      32.415 -13.525  -7.549  0.00  0.00     0.318 C 
ATOM     28  N   UNL d   1      32.697 -12.744  -6.477  0.00  0.00    -0.352 N 
ATOM     29  O   UNL d   1      33.322 -14.205  -8.025  0.00  0.00    -0.247 OA
ATOM     30  H   UNL d   1      32.054 -12.567  -5.729  0.00  0.00     0.160 HD
ATOM     31  H   UNL d   1      33.620 -12.857  -6.081  0.00  0.00     0.160 HD
ATOM     32  H   UNL d   1      31.143 -14.139  -8.938  0.00  0.00     0.170 HD
ENDBRANCH  24  26
ENDBRANCH  17  20
ENDBRANCH  13  16
ENDBRANCH   9  10
ENDBRANCH   8   9
TORSDOF 5
ENDMDL
MODEL 2
REMARK VINA RESULT:   -23.892      2.135      2.456
REMARK INTER + INTRA:         -24.532
REMARK INTER:                 -25.384
REMARK INTRA:                   0.852
REMARK CONF_INDEPENDENT:        1.492
REMARK UNBOUND:                 0.852
REMARK  5 active torsions:
REMARK  status: ('A' for Active; 'I' for Inactive)
REMARK    1  A    between atoms: C_8  and  O_9 
REMARK    2  A    between atoms: O_9  and  C_10 
REMARK    3  A    between atoms: C_13  and  N_14 
REMARK       I    between atoms: N_14  and  C_15 
REMARK    4  A    between atoms: C_15  and  C_17 
REMARK    5  A    between atoms: C_21  and  N_22 
REMARK       I    between atoms: N_22  and  C_23 
REMARK       I    between atoms: C_23  and  N_24 
ROOT
ATOM      1  N   UNL d   1      19.904 -18.575  -1.266  0.00  0.00    -0.191 NA
ATOM      2  C   UNL d   1      21.045 -18.482  -1.020  0.00  0.00     0.102 C 
ATOM      3  C   UNL d   1      22.438 -18.397  -0.716  0.00  0.00     0.078 A 
ATOM      4  C   UNL d   1      23.031 -19.596  -0.297  0.00  0.00     0.025 A 
ATOM      5  C   UNL d   1      24.408 -19.700  -0.145  0.00  0.00     0.002 A 
ATOM      6  C   UNL d   1      25.212 -18.589  -0.381  0.00  0.00     0.003 A 
ATOM      7  C   UNL d   1      24.626 -17.361  -0.720  0.00  0.00     0.039 A 
ATOM      8  C   UNL d   1      23.229 -17.244  -0.882  0.00  0.00     0.096 A 
ENDROOT
BRANCH   8   9
ATOM      9  O   UNL d   1      22.795 -15.982  -1.271  0.00  0.00    -0.309 OA
BRANCH   9  10
ATOM     10  C   UNL d   1      23.616 -15.171  -2.024  0.00  0.00     0.076 A 
ATOM     11  C   UNL d   1      24.972 -15.091  -1.699  0.00  0.00     0.039 A 
ATOM     12  C   UNL d   1      25.850 -14.293  -2.474  0.00  0.00     0.032 A 
ATOM     13  C   UNL d   1      25.401 -13.673  -3.652  0.00  0.00     0.035 A 
ATOM     14  C   UNL d   1      24.038 -13.765  -3.937  0.00  0.00     0.032 A 
ATOM     15  C   UNL d   1      23.143 -14.449  -3.112  0.00  0.00     0.039 A 
BRANCH  13  16
ATOM     16  N   UNL d   1      26.301 -12.988  -4.529  0.00  0.00    -0.323 N 
ATOM     17  C   UNL d   1      27.033 -13.615  -5.557  0.00  0.00     0.256 C 
ATOM     18  O   UNL d   1      27.087 -14.818  -5.795  0.00  0.00    -0.267 OA
ATOM     19  H   UNL d   1      26.400 -11.991  -4.374  0.00  0.00     0.169 HD
BRANCH  17  20
ATOM     20  C   UNL d   1      27.917 -12.803  -6.429  0.00  0.00     0.034 A 
ATOM     21  C   UNL d   1      28.850 -13.363  -7.285  0.00  0.00     0.017 A 
ATOM     22  C   UNL d   1      29.832 -12.544  -7.862  0.00  0.00     0.003 A 
ATOM     23  C   UNL d   1      29.856 -11.154  -7.616  0.00  0.00     0.029 A 
ATOM     24  C   UNL d   1      28.924 -10.594  -6.734  0.00  0.00     0.037 A 
ATOM     25  C   UNL d   1      27.964 -11.446  -6.209  0.00  0.00     0.046 A 
BRANCH  24  26
ATOM     26  N   UNL d   1      28.962  -9.230  -6.364  0.00  0.00    -0.309 N 
ATOM     27  C   UNL d   1      29.934  -8.469  -5.768  0.00  0.00     0.318 C 
ATOM     28  N   UNL d   1      31.104  -9.014  -5.351  0.00  0.00    -0.352 N 
ATOM     29  O   UNL d   1      29.740  -7.276  -5.547  0.00  0.00    -0.247 OA
ATOM     30  H   UNL d   1      31.598  -9.729  -5.850  0.00  0.00     0.160 HD
ATOM     31  H   UNL d   1      31.782  -8.365  -4.975  0.00  0.00     0.160 HD
ATOM     32  H   UNL d   1      28.142  -8.673  -6.587  0.00  0.00     0.170 HD
ENDBRANCH  24  26
ENDBRANCH  17  20
ENDBRANCH  13  16
ENDBRANCH   9  10
ENDBRANCH   8   9
TORSDOF 5
ENDMDL
