MODEL 1
REMARK VINA RESULT:    -9.496      0.000      0.000
REMARK INTER + INTRA:         -12.512
REMARK INTER:                 -10.988
REMARK INTRA:                  -1.524
REMARK CONF_INDEPENDENT:        1.492
REMARK UNBOUND:                -1.524
REMARK  5 active torsions:
REMARK  status: ('A' for Active; 'I' for Inactive)
REMARK    1  A    between atoms: C_6  and  N_7 
REMARK       I    between atoms: N_7  and  C_8 
REMARK       I    between atoms: C_8  and  N_10 
REMARK    2  A    between atoms: N_10  and  C_11 
REMARK    3  A    between atoms: C_13  and  N_14 
REMARK       I    between atoms: N_14  and  C_15 
REMARK    4  A    between atoms: C_15  and  C_17 
REMARK    5  A    between atoms: C_26  and  N_27 
ROOT
ATOM      1  C   UNL d   1      26.890 -15.616  -1.278  0.00  0.00     0.065 A 
ATOM      2  C   UNL d   1      27.705 -14.962  -2.243  0.00  0.00     0.061 A 
ATOM      3  C   UNL d   1      27.250 -14.791  -3.572  0.00  0.00     0.037 A 
ATOM      4  C   UNL d   1      26.057 -15.400  -3.939  0.00  0.00     0.032 A 
ATOM      5  C   UNL d   1      25.259 -16.037  -3.006  0.00  0.00     0.034 A 
ATOM      6  C   UNL d   1      25.635 -16.149  -1.667  0.00  0.00     0.057 A 
ENDROOT
BRANCH   1   7
ATOM      7  N   UNL d   1      27.312 -15.725   0.094  0.00  0.00    -0.306 N 
ATOM      8  C   UNL d   1      27.069 -14.669   0.966  0.00  0.00     0.325 C 
ATOM      9  N   UNL d   1      27.777 -14.705   2.161  0.00  0.00    -0.308 N 
ATOM     10  O   UNL d   1      26.280 -13.767   0.670  0.00  0.00    -0.247 OA
ATOM     11  H   UNL d   1      28.188 -15.586   2.424  0.00  0.00     0.170 HD
ATOM     12  H   UNL d   1      27.479 -16.645   0.468  0.00  0.00     0.170 HD
BRANCH   9  13
ATOM     13  C   UNL d   1      27.818 -13.621   3.112  0.00  0.00     0.042 A 
ATOM     14  C   UNL d   1      27.685 -12.290   2.675  0.00  0.00     0.030 A 
ATOM     15  C   UNL d   1      27.669 -11.199   3.539  0.00  0.00     0.003 A 
ATOM     16  C   UNL d   1      27.837 -11.401   4.891  0.00  0.00     0.007 A 
ATOM     17  C   UNL d   1      28.020 -12.701   5.386  0.00  0.00    -0.054 A 
ATOM     18  C   UNL d   1      28.225 -12.841   6.873  0.00  0.00     0.049 C 
ATOM     19  C   UNL d   1      28.003 -13.830   4.501  0.00  0.00    -0.029 A 
ATOM     20  C   UNL d   1      28.156 -15.200   5.109  0.00  0.00     0.051 C 
ENDBRANCH   9  13
ENDBRANCH   1   7
BRANCH   6  21
ATOM     21  N   UNL d   1      24.711 -16.731  -0.824  0.00  0.00    -0.379 N 
ATOM     22  C   UNL d   1      25.140 -17.817   0.051  0.00  0.00     0.123 C 
ATOM     23  C   UNL d   1      24.165 -18.970  -0.145  0.00  0.00     0.020 C 
ATOM     24  C   UNL d   1      22.720 -18.500   0.073  0.00  0.00     0.003 C 
ATOM     25  C   UNL d   1      22.384 -17.244  -0.745  0.00  0.00     0.020 C 
ATOM     26  C   UNL d   1      23.421 -16.148  -0.520  0.00  0.00     0.123 C 
ENDBRANCH   6  21
BRANCH   3  27
ATOM     27  N   UNL d   1      27.947 -13.970  -4.506  0.00  0.00    -0.323 N 
ATOM     28  C   UNL d   1      28.050 -14.233  -5.875  0.00  0.00     0.257 C 
ATOM     29  O   UNL d   1      27.584 -15.200  -6.480  0.00  0.00    -0.267 OA
ATOM     30  H   UNL d   1      28.333 -13.101  -4.161  0.00  0.00     0.169 HD
BRANCH  28  31
ATOM     31  C   UNL d   1      28.760 -13.270  -6.746  0.00  0.00     0.054 A 
ATOM     32  C   UNL d   1      28.020 -12.146  -7.180  0.00  0.00     0.019 A 
ATOM     33  C   UNL d   1      28.515 -11.309  -8.180  0.00  0.00     0.001 A 
ATOM     34  C   UNL d   1      29.779 -11.549  -8.708  0.00  0.00     0.002 A 
ATOM     35  C   UNL d   1      30.522 -12.647  -8.270  0.00  0.00     0.025 A 
ATOM     36  C   UNL d   1      30.017 -13.515  -7.297  0.00  0.00     0.049 A 
ATOM     37 CL   UNL d   1      30.990 -14.878  -6.876  0.00  0.00    -0.083 Cl
ENDBRANCH  28  31
ENDBRANCH   3  27
TORSDOF 5
ENDMDL
MODEL 2
REMARK VINA RESULT:    -9.378      3.968      9.838
REMARK INTER + INTRA:         -13.032
REMARK INTER:                 -10.869
REMARK INTRA:                  -2.162
REMARK CONF_INDEPENDENT:        1.492
REMARK UNBOUND:                -2.162
REMARK  5 active torsions:
REMARK  status: ('A' for Active; 'I' for Inactive)
REMARK    1  A    between atoms: C_6  and  N_7 
REMARK       I    between atoms: N_7  and  C_8 
REMARK       I    between atoms: C_8  and  N_10 
REMARK    2  A    between atoms: N_10  and  C_11 
REMARK    3  A    between atoms: C_13  and  N_14 
REMARK       I    between atoms: N_14  and  C_15 
REMARK    4  A    between atoms: C_15  and  C_17 
REMARK    5  A    between atoms: C_26  and  N_27 
ROOT
ATOM      1  C   UNL d   1      24.528 -16.248  -1.428  0.00  0.00     0.065 A 
ATOM      2  C   UNL d   1      23.439 -17.139  -1.216  0.00  0.00     0.061 A 
ATOM      3  C   UNL d   1      23.543 -18.193  -0.278  0.00  0.00     0.037 A 
ATOM      4  C   UNL d   1      24.776 -18.417   0.320  0.00  0.00     0.032 A 
ATOM      5  C   UNL d   1      25.840 -17.556   0.120  0.00  0.00     0.034 A 
ATOM      6  C   UNL d   1      25.746 -16.455  -0.732  0.00  0.00     0.057 A 
ENDROOT
BRANCH   1   7
ATOM      7  N   UNL d   1      24.404 -15.128  -2.322  0.00  0.00    -0.306 N 
ATOM      8  C   UNL d   1      25.315 -14.985  -3.363  0.00  0.00     0.325 C 
ATOM      9  N   UNL d   1      25.335 -13.737  -3.973  0.00  0.00    -0.308 N 
ATOM     10  O   UNL d   1      26.053 -15.917  -3.697  0.00  0.00    -0.247 OA
ATOM     11  H   UNL d   1      24.542 -13.137  -3.816  0.00  0.00     0.170 HD
ATOM     12  H   UNL d   1      23.512 -14.662  -2.380  0.00  0.00     0.170 HD
BRANCH   9  13
ATOM     13  C   UNL d   1      26.328 -13.320  -4.934  0.00  0.00     0.042 A 
ATOM     14  C   UNL d   1      27.131 -14.277  -5.584  0.00  0.00     0.030 A 
ATOM     15  C   UNL d   1      28.074 -13.952  -6.553  0.00  0.00     0.003 A 
ATOM     16  C   UNL d   1      28.285 -12.630  -6.879  0.00  0.00     0.007 A 
ATOM     17  C   UNL d   1      27.549 -11.625  -6.235  0.00  0.00    -0.054 A 
ATOM     18  C   UNL d   1      27.855 -10.200  -6.625  0.00  0.00     0.049 C 
ATOM     19  C   UNL d   1      26.552 -11.960  -5.260  0.00  0.00    -0.029 A 
ATOM     20  C   UNL d   1      25.765 -10.831  -4.645  0.00  0.00     0.051 C 
ENDBRANCH   9  13
ENDBRANCH   1   7
BRANCH   6  21
ATOM     21  N   UNL d   1      26.849 -15.628  -0.777  0.00  0.00    -0.379 N 
ATOM     22  C   UNL d   1      26.821 -14.373  -0.033  0.00  0.00     0.123 C 
ATOM     23  C   UNL d   1      27.228 -13.265  -0.996  0.00  0.00     0.020 C 
ATOM     24  C   UNL d   1      28.573 -13.591  -1.658  0.00  0.00     0.003 C 
ATOM     25  C   UNL d   1      28.598 -14.999  -2.271  0.00  0.00     0.020 C 
ATOM     26  C   UNL d   1      28.149 -16.047  -1.257  0.00  0.00     0.123 C 
ENDBRANCH   6  21
BRANCH   3  27
ATOM     27  N   UNL d   1      22.414 -18.974   0.104  0.00  0.00    -0.323 N 
ATOM     28  C   UNL d   1      21.090 -18.684  -0.239  0.00  0.00     0.257 C 
ATOM     29  O   UNL d   1      20.691 -17.720  -0.894  0.00  0.00    -0.267 OA
ATOM     30  H   UNL d   1      22.595 -19.839   0.600  0.00  0.00     0.169 HD
BRANCH  28  31
ATOM     31  C   UNL d   1      20.014 -19.608   0.179  0.00  0.00     0.054 A 
ATOM     32  C   UNL d   1      19.152 -20.076  -0.839  0.00  0.00     0.019 A 
ATOM     33  C   UNL d   1      17.978 -20.758  -0.523  0.00  0.00     0.001 A 
ATOM     34  C   UNL d   1      17.685 -21.035   0.808  0.00  0.00     0.002 A 
ATOM     35  C   UNL d   1      18.542 -20.591   1.818  0.00  0.00     0.025 A 
ATOM     36  C   UNL d   1      19.701 -19.871   1.512  0.00  0.00     0.049 A 
ATOM     37 CL   UNL d   1      20.654 -19.312   2.839  0.00  0.00    -0.083 Cl
ENDBRANCH  28  31
ENDBRANCH   3  27
TORSDOF 5
ENDMDL
MODEL 3
REMARK VINA RESULT:    -8.888      4.014      7.622
REMARK INTER + INTRA:         -11.835
REMARK INTER:                 -10.380
REMARK INTRA:                  -1.455
REMARK CONF_INDEPENDENT:        1.492
REMARK UNBOUND:                -1.455
REMARK  5 active torsions:
REMARK  status: ('A' for Active; 'I' for Inactive)
REMARK    1  A    between atoms: C_6  and  N_7 
REMARK       I    between atoms: N_7  and  C_8 
REMARK       I    between atoms: C_8  and  N_10 
REMARK    2  A    between atoms: N_10  and  C_11 
REMARK    3  A    between atoms: C_13  and  N_14 
REMARK       I    between atoms: N_14  and  C_15 
REMARK    4  A    between atoms: C_15  and  C_17 
REMARK    5  A    between atoms: C_26  and  N_27 
ROOT
ATOM      1  C   UNL d   1      27.077 -14.970  -3.480  0.00  0.00     0.065 A 
ATOM      2  C   UNL d   1      26.840 -13.803  -4.258  0.00  0.00     0.061 A 
ATOM      3  C   UNL d   1      25.602 -13.123  -4.177  0.00  0.00     0.037 A 
ATOM      4  C   UNL d   1      24.584 -13.703  -3.431  0.00  0.00     0.032 A 
ATOM      5  C   UNL d   1      24.807 -14.838  -2.671  0.00  0.00     0.034 A 
ATOM      6  C   UNL d   1      26.043 -15.486  -2.659  0.00  0.00     0.057 A 
ENDROOT
BRANCH   1   7
ATOM      7  N   UNL d   1      28.360 -15.622  -3.498  0.00  0.00    -0.306 N 
ATOM      8  C   UNL d   1      28.910 -16.006  -4.717  0.00  0.00     0.325 C 
ATOM      9  N   UNL d   1      29.969 -16.902  -4.639  0.00  0.00    -0.308 N 
ATOM     10  O   UNL d   1      28.462 -15.574  -5.783  0.00  0.00    -0.247 OA
ATOM     11  H   UNL d   1      30.425 -16.996  -3.746  0.00  0.00     0.170 HD
ATOM     12  H   UNL d   1      28.963 -15.508  -2.699  0.00  0.00     0.170 HD
BRANCH   9  13
ATOM     13  C   UNL d   1      30.551 -17.570  -5.778  0.00  0.00     0.042 A 
ATOM     14  C   UNL d   1      30.929 -16.832  -6.915  0.00  0.00     0.030 A 
ATOM     15  C   UNL d   1      31.538 -17.402  -8.029  0.00  0.00     0.003 A 
ATOM     16  C   UNL d   1      31.749 -18.763  -8.065  0.00  0.00     0.007 A 
ATOM     17  C   UNL d   1      31.354 -19.561  -6.981  0.00  0.00    -0.054 A 
ATOM     18  C   UNL d   1      31.593 -21.045  -7.105  0.00  0.00     0.049 C 
ATOM     19  C   UNL d   1      30.758 -18.971  -5.818  0.00  0.00    -0.029 A 
ATOM     20  C   UNL d   1      30.403 -19.884  -4.672  0.00  0.00     0.051 C 
ENDBRANCH   9  13
ENDBRANCH   1   7
BRANCH   6  21
ATOM     21  N   UNL d   1      26.158 -16.555  -1.794  0.00  0.00    -0.379 N 
ATOM     22  C   UNL d   1      25.019 -17.450  -1.624  0.00  0.00     0.123 C 
ATOM     23  C   UNL d   1      24.767 -17.584  -0.128  0.00  0.00     0.020 C 
ATOM     24  C   UNL d   1      26.046 -18.023   0.599  0.00  0.00     0.003 C 
ATOM     25  C   UNL d   1      27.253 -17.144   0.240  0.00  0.00     0.020 C 
ATOM     26  C   UNL d   1      27.421 -17.033  -1.272  0.00  0.00     0.123 C 
ENDBRANCH   6  21
BRANCH   3  27
ATOM     27  N   UNL d   1      25.402 -11.848  -4.783  0.00  0.00    -0.323 N 
ATOM     28  C   UNL d   1      25.902 -10.642  -4.284  0.00  0.00     0.257 C 
ATOM     29  O   UNL d   1      26.563 -10.483  -3.257  0.00  0.00    -0.267 OA
ATOM     30  H   UNL d   1      24.923 -11.829  -5.674  0.00  0.00     0.169 HD
BRANCH  28  31
ATOM     31  C   UNL d   1      25.665  -9.392  -5.040  0.00  0.00     0.054 A 
ATOM     32  C   UNL d   1      24.781  -8.457  -4.454  0.00  0.00     0.019 A 
ATOM     33  C   UNL d   1      24.312  -7.364  -5.182  0.00  0.00     0.001 A 
ATOM     34  C   UNL d   1      24.771  -7.159  -6.478  0.00  0.00     0.002 A 
ATOM     35  C   UNL d   1      25.658  -8.070  -7.057  0.00  0.00     0.025 A 
ATOM     36  C   UNL d   1      26.102  -9.191  -6.349  0.00  0.00     0.049 A 
ATOM     37 CL   UNL d   1      27.144 -10.286  -7.181  0.00  0.00    -0.083 Cl
ENDBRANCH  28  31
ENDBRANCH   3  27
TORSDOF 5
ENDMDL
MODEL 4
REMARK VINA RESULT:    -8.834      3.190      3.767
REMARK INTER + INTRA:         -11.973
REMARK INTER:                 -10.326
REMARK INTRA:                  -1.647
REMARK CONF_INDEPENDENT:        1.492
REMARK UNBOUND:                -1.647
REMARK  5 active torsions:
REMARK  status: ('A' for Active; 'I' for Inactive)
REMARK    1  A    between atoms: C_6  and  N_7 
REMARK       I    between atoms: N_7  and  C_8 
REMARK       I    between atoms: C_8  and  N_10 
REMARK    2  A    between atoms: N_10  and  C_11 
REMARK    3  A    between atoms: C_13  and  N_14 
REMARK       I    between atoms: N_14  and  C_15 
REMARK    4  A    between atoms: C_15  and  C_17 
REMARK    5  A    between atoms: C_26  and  N_27 
ROOT
ATOM      1  C   UNL d   1      26.639 -14.227  -1.355  0.00  0.00     0.065 A 
ATOM      2  C   UNL d   1      26.577 -12.961  -2.000  0.00  0.00     0.061 A 
ATOM      3  C   UNL d   1      25.749 -12.769  -3.132  0.00  0.00     0.037 A 
ATOM      4  C   UNL d   1      25.117 -13.879  -3.675  0.00  0.00     0.032 A 
ATOM      5  C   UNL d   1      25.173 -15.114  -3.054  0.00  0.00     0.034 A 
ATOM      6  C   UNL d   1      25.909 -15.320  -1.886  0.00  0.00     0.057 A 
ENDROOT
BRANCH   1   7
ATOM      7  N   UNL d   1      27.417 -14.410  -0.158  0.00  0.00    -0.306 N 
ATOM      8  C   UNL d   1      27.079 -13.697   0.988  0.00  0.00     0.325 C 
ATOM      9  N   UNL d   1      28.047 -13.674   1.984  0.00  0.00    -0.308 N 
ATOM     10  O   UNL d   1      25.990 -13.124   1.084  0.00  0.00    -0.247 OA
ATOM     11  H   UNL d   1      28.777 -14.365   1.931  0.00  0.00     0.170 HD
ATOM     12  H   UNL d   1      27.968 -15.249  -0.072  0.00  0.00     0.170 HD
BRANCH   9  13
ATOM     13  C   UNL d   1      27.979 -12.842   3.161  0.00  0.00     0.042 A 
ATOM     14  C   UNL d   1      27.792 -11.453   3.036  0.00  0.00     0.030 A 
ATOM     15  C   UNL d   1      27.671 -10.596   4.126  0.00  0.00     0.003 A 
ATOM     16  C   UNL d   1      27.782 -11.102   5.402  0.00  0.00     0.007 A 
ATOM     17  C   UNL d   1      28.014 -12.472   5.594  0.00  0.00    -0.054 A 
ATOM     18  C   UNL d   1      28.152 -12.947   7.019  0.00  0.00     0.049 C 
ATOM     19  C   UNL d   1      28.106 -13.362   4.473  0.00  0.00    -0.029 A 
ATOM     20  C   UNL d   1      28.306 -14.828   4.756  0.00  0.00     0.051 C 
ENDBRANCH   9  13
ENDBRANCH   1   7
BRANCH   6  21
ATOM     21  N   UNL d   1      25.811 -16.575  -1.322  0.00  0.00    -0.379 N 
ATOM     22  C   UNL d   1      24.585 -17.342  -1.515  0.00  0.00     0.123 C 
ATOM     23  C   UNL d   1      24.122 -17.809  -0.141  0.00  0.00     0.020 C 
ATOM     24  C   UNL d   1      25.247 -18.564   0.582  0.00  0.00     0.003 C 
ATOM     25  C   UNL d   1      26.564 -17.775   0.596  0.00  0.00     0.020 C 
ATOM     26  C   UNL d   1      26.945 -17.315  -0.808  0.00  0.00     0.123 C 
ENDBRANCH   6  21
BRANCH   3  27
ATOM     27  N   UNL d   1      25.508 -11.474  -3.677  0.00  0.00    -0.323 N 
ATOM     28  C   UNL d   1      26.259 -10.333  -3.383  0.00  0.00     0.257 C 
ATOM     29  O   UNL d   1      27.215 -10.256  -2.609  0.00  0.00    -0.267 OA
ATOM     30  H   UNL d   1      24.785 -11.396  -4.381  0.00  0.00     0.169 HD
BRANCH  28  31
ATOM     31  C   UNL d   1      25.935  -9.058  -4.059  0.00  0.00     0.054 A 
ATOM     32  C   UNL d   1      25.717  -7.938  -3.224  0.00  0.00     0.019 A 
ATOM     33  C   UNL d   1      25.183  -6.757  -3.739  0.00  0.00     0.001 A 
ATOM     34  C   UNL d   1      24.923  -6.662  -5.102  0.00  0.00     0.002 A 
ATOM     35  C   UNL d   1      25.152  -7.759  -5.935  0.00  0.00     0.025 A 
ATOM     36  C   UNL d   1      25.650  -8.961  -5.420  0.00  0.00     0.049 A 
ATOM     37 CL   UNL d   1      25.834 -10.274  -6.525  0.00  0.00    -0.083 Cl
ENDBRANCH  28  31
ENDBRANCH   3  27
TORSDOF 5
ENDMDL
MODEL 5
REMARK VINA RESULT:    -8.786      4.074      7.615
REMARK INTER + INTRA:         -11.629
REMARK INTER:                 -10.277
REMARK INTRA:                  -1.351
REMARK CONF_INDEPENDENT:        1.492
REMARK UNBOUND:                -1.351
REMARK  5 active torsions:
REMARK  status: ('A' for Active; 'I' for Inactive)
REMARK    1  A    between atoms: C_6  and  N_7 
REMARK       I    between atoms: N_7  and  C_8 
REMARK       I    between atoms: C_8  and  N_10 
REMARK    2  A    between atoms: N_10  and  C_11 
REMARK    3  A    between atoms: C_13  and  N_14 
REMARK       I    between atoms: N_14  and  C_15 
REMARK    4  A    between atoms: C_15  and  C_17 
REMARK    5  A    between atoms: C_26  and  N_27 
ROOT
ATOM      1  C   UNL d   1      27.045 -15.111  -3.744  0.00  0.00     0.065 A 
ATOM      2  C   UNL d   1      26.865 -14.003  -4.618  0.00  0.00     0.061 A 
ATOM      3  C   UNL d   1      25.664 -13.254  -4.593  0.00  0.00     0.037 A 
ATOM      4  C   UNL d   1      24.622 -13.715  -3.800  0.00  0.00     0.032 A 
ATOM      5  C   UNL d   1      24.788 -14.792  -2.948  0.00  0.00     0.034 A 
ATOM      6  C   UNL d   1      25.989 -15.501  -2.882  0.00  0.00     0.057 A 
ENDROOT
BRANCH   1   7
ATOM      7  N   UNL d   1      28.291 -15.830  -3.709  0.00  0.00    -0.306 N 
ATOM      8  C   UNL d   1      28.937 -16.129  -4.904  0.00  0.00     0.325 C 
ATOM      9  N   UNL d   1      29.941 -17.086  -4.817  0.00  0.00    -0.308 N 
ATOM     10  O   UNL d   1      28.615 -15.575  -5.959  0.00  0.00    -0.247 OA
ATOM     11  H   UNL d   1      30.304 -17.288  -3.900  0.00  0.00     0.170 HD
ATOM     12  H   UNL d   1      28.819 -15.824  -2.851  0.00  0.00     0.170 HD
BRANCH   9  13
ATOM     13  C   UNL d   1      30.598 -17.677  -5.957  0.00  0.00     0.042 A 
ATOM     14  C   UNL d   1      31.148 -16.858  -6.961  0.00  0.00     0.030 A 
ATOM     15  C   UNL d   1      31.836 -17.356  -8.064  0.00  0.00     0.003 A 
ATOM     16  C   UNL d   1      31.957 -18.719  -8.228  0.00  0.00     0.007 A 
ATOM     17  C   UNL d   1      31.392 -19.590  -7.286  0.00  0.00    -0.054 A 
ATOM     18  C   UNL d   1      31.543 -21.068  -7.548  0.00  0.00     0.049 C 
ATOM     19  C   UNL d   1      30.713 -19.078  -6.132  0.00  0.00    -0.029 A 
ATOM     20  C   UNL d   1      30.174 -20.073  -5.136  0.00  0.00     0.051 C 
ENDBRANCH   9  13
ENDBRANCH   1   7
BRANCH   6  21
ATOM     21  N   UNL d   1      26.053 -16.498  -1.930  0.00  0.00    -0.379 N 
ATOM     22  C   UNL d   1      24.940 -17.435  -1.814  0.00  0.00     0.123 C 
ATOM     23  C   UNL d   1      24.531 -17.473  -0.348  0.00  0.00     0.020 C 
ATOM     24  C   UNL d   1      25.739 -17.794   0.543  0.00  0.00     0.003 C 
ATOM     25  C   UNL d   1      26.941 -16.885   0.248  0.00  0.00     0.020 C 
ATOM     26  C   UNL d   1      27.269 -16.875  -1.241  0.00  0.00     0.123 C 
ENDBRANCH   6  21
BRANCH   3  27
ATOM     27  N   UNL d   1      25.528 -12.026  -5.304  0.00  0.00    -0.323 N 
ATOM     28  C   UNL d   1      26.594 -11.224  -5.721  0.00  0.00     0.257 C 
ATOM     29  O   UNL d   1      27.794 -11.431  -5.531  0.00  0.00    -0.267 OA
ATOM     30  H   UNL d   1      24.594 -11.756  -5.586  0.00  0.00     0.169 HD
BRANCH  28  31
ATOM     31  C   UNL d   1      26.316  -9.997  -6.498  0.00  0.00     0.054 A 
ATOM     32  C   UNL d   1      26.846  -9.946  -7.809  0.00  0.00     0.019 A 
ATOM     33  C   UNL d   1      26.841  -8.755  -8.534  0.00  0.00     0.001 A 
ATOM     34  C   UNL d   1      26.251  -7.622  -7.985  0.00  0.00     0.002 A 
ATOM     35  C   UNL d   1      25.710  -7.671  -6.698  0.00  0.00     0.025 A 
ATOM     36  C   UNL d   1      25.747  -8.850  -5.947  0.00  0.00     0.049 A 
ATOM     37 CL   UNL d   1      25.110  -8.782  -4.344  0.00  0.00    -0.083 Cl
ENDBRANCH  28  31
ENDBRANCH   3  27
TORSDOF 5
ENDMDL
MODEL 6
REMARK VINA RESULT:    -8.623      3.729      9.486
REMARK INTER + INTRA:         -11.836
REMARK INTER:                 -10.115
REMARK INTRA:                  -1.721
REMARK CONF_INDEPENDENT:        1.492
REMARK UNBOUND:                -1.721
REMARK  5 active torsions:
REMARK  status: ('A' for Active; 'I' for Inactive)
REMARK    1  A    between atoms: C_6  and  N_7 
REMARK       I    between atoms: N_7  and  C_8 
REMARK       I    between atoms: C_8  and  N_10 
REMARK    2  A    between atoms: N_10  and  C_11 
REMARK    3  A    between atoms: C_13  and  N_14 
REMARK       I    between atoms: N_14  and  C_15 
REMARK    4  A    between atoms: C_15  and  C_17 
REMARK    5  A    between atoms: C_26  and  N_27 
ROOT
ATOM      1  C   UNL d   1      25.756 -16.037  -0.848  0.00  0.00     0.065 A 
ATOM      2  C   UNL d   1      24.536 -16.734  -0.628  0.00  0.00     0.061 A 
ATOM      3  C   UNL d   1      24.541 -18.042  -0.087  0.00  0.00     0.037 A 
ATOM      4  C   UNL d   1      25.767 -18.673   0.087  0.00  0.00     0.032 A 
ATOM      5  C   UNL d   1      26.957 -18.001  -0.125  0.00  0.00     0.034 A 
ATOM      6  C   UNL d   1      26.989 -16.680  -0.575  0.00  0.00     0.057 A 
ENDROOT
BRANCH   1   7
ATOM      7  N   UNL d   1      25.755 -14.679  -1.324  0.00  0.00    -0.306 N 
ATOM      8  C   UNL d   1      25.867 -14.438  -2.690  0.00  0.00     0.325 C 
ATOM      9  N   UNL d   1      26.183 -13.131  -3.042  0.00  0.00    -0.308 N 
ATOM     10  O   UNL d   1      25.702 -15.343  -3.513  0.00  0.00    -0.247 OA
ATOM     11  H   UNL d   1      26.046 -12.421  -2.341  0.00  0.00     0.170 HD
ATOM     12  H   UNL d   1      25.367 -13.966  -0.728  0.00  0.00     0.170 HD
BRANCH   9  13
ATOM     13  C   UNL d   1      26.532 -12.714  -4.378  0.00  0.00     0.042 A 
ATOM     14  C   UNL d   1      25.904 -11.596  -4.958  0.00  0.00     0.030 A 
ATOM     15  C   UNL d   1      26.223 -11.110  -6.222  0.00  0.00     0.003 A 
ATOM     16  C   UNL d   1      27.166 -11.765  -6.984  0.00  0.00     0.007 A 
ATOM     17  C   UNL d   1      27.797 -12.912  -6.480  0.00  0.00    -0.054 A 
ATOM     18  C   UNL d   1      28.797 -13.591  -7.382  0.00  0.00     0.049 C 
ATOM     19  C   UNL d   1      27.494 -13.395  -5.165  0.00  0.00    -0.029 A 
ATOM     20  C   UNL d   1      28.246 -14.604  -4.671  0.00  0.00     0.051 C 
ENDBRANCH   9  13
ENDBRANCH   1   7
BRANCH   6  21
ATOM     21  N   UNL d   1      28.237 -16.100  -0.662  0.00  0.00    -0.379 N 
ATOM     22  C   UNL d   1      28.999 -16.249  -1.897  0.00  0.00     0.123 C 
ATOM     23  C   UNL d   1      30.387 -16.750  -1.517  0.00  0.00     0.020 C 
ATOM     24  C   UNL d   1      31.028 -15.826  -0.472  0.00  0.00     0.003 C 
ATOM     25  C   UNL d   1      30.101 -15.566   0.725  0.00  0.00     0.020 C 
ATOM     26  C   UNL d   1      28.725 -15.098   0.263  0.00  0.00     0.123 C 
ENDBRANCH   6  21
BRANCH   3  27
ATOM     27  N   UNL d   1      23.342 -18.689   0.332  0.00  0.00    -0.323 N 
ATOM     28  C   UNL d   1      22.054 -18.187   0.129  0.00  0.00     0.257 C 
ATOM     29  O   UNL d   1      21.751 -17.122  -0.413  0.00  0.00    -0.267 OA
ATOM     30  H   UNL d   1      23.432 -19.610   0.742  0.00  0.00     0.169 HD
BRANCH  28  31
ATOM     31  C   UNL d   1      20.888 -18.985   0.569  0.00  0.00     0.054 A 
ATOM     32  C   UNL d   1      20.704 -19.118   1.965  0.00  0.00     0.019 A 
ATOM     33  C   UNL d   1      19.784 -20.030   2.479  0.00  0.00     0.001 A 
ATOM     34  C   UNL d   1      18.994 -20.771   1.606  0.00  0.00     0.002 A 
ATOM     35  C   UNL d   1      19.158 -20.630   0.226  0.00  0.00     0.025 A 
ATOM     36  C   UNL d   1      20.107 -19.747  -0.299  0.00  0.00     0.049 A 
ATOM     37 CL   UNL d   1      20.274 -19.700  -2.016  0.00  0.00    -0.083 Cl
ENDBRANCH  28  31
ENDBRANCH   3  27
TORSDOF 5
ENDMDL
MODEL 7
REMARK VINA RESULT:    -8.588      3.431      6.652
REMARK INTER + INTRA:         -11.410
REMARK INTER:                 -10.079
REMARK INTRA:                  -1.331
REMARK CONF_INDEPENDENT:        1.492
REMARK UNBOUND:                -1.331
REMARK  5 active torsions:
REMARK  status: ('A' for Active; 'I' for Inactive)
REMARK    1  A    between atoms: C_6  and  N_7 
REMARK       I    between atoms: N_7  and  C_8 
REMARK       I    between atoms: C_8  and  N_10 
REMARK    2  A    between atoms: N_10  and  C_11 
REMARK    3  A    between atoms: C_13  and  N_14 
REMARK       I    between atoms: N_14  and  C_15 
REMARK    4  A    between atoms: C_15  and  C_17 
REMARK    5  A    between atoms: C_26  and  N_27 
ROOT
ATOM      1  C   UNL d   1      26.481 -13.197  -4.961  0.00  0.00     0.065 A 
ATOM      2  C   UNL d   1      27.260 -14.233  -5.546  0.00  0.00     0.061 A 
ATOM      3  C   UNL d   1      28.189 -13.943  -6.574  0.00  0.00     0.037 A 
ATOM      4  C   UNL d   1      28.214 -12.653  -7.088  0.00  0.00     0.032 A 
ATOM      5  C   UNL d   1      27.459 -11.640  -6.525  0.00  0.00     0.034 A 
ATOM      6  C   UNL d   1      26.597 -11.872  -5.453  0.00  0.00     0.057 A 
ENDROOT
BRANCH   1   7
ATOM      7  N   UNL d   1      25.591 -13.471  -3.864  0.00  0.00    -0.306 N 
ATOM      8  C   UNL d   1      25.821 -14.585  -3.064  0.00  0.00     0.325 C 
ATOM      9  N   UNL d   1      24.763 -14.964  -2.247  0.00  0.00    -0.308 N 
ATOM     10  O   UNL d   1      26.899 -15.187  -3.104  0.00  0.00    -0.247 OA
ATOM     11  H   UNL d   1      24.038 -14.283  -2.091  0.00  0.00     0.170 HD
ATOM     12  H   UNL d   1      25.031 -12.714  -3.505  0.00  0.00     0.170 HD
BRANCH   9  13
ATOM     13  C   UNL d   1      24.722 -16.191  -1.491  0.00  0.00     0.042 A 
ATOM     14  C   UNL d   1      23.644 -17.083  -1.645  0.00  0.00     0.030 A 
ATOM     15  C   UNL d   1      23.561 -18.305  -0.984  0.00  0.00     0.003 A 
ATOM     16  C   UNL d   1      24.549 -18.662  -0.092  0.00  0.00     0.007 A 
ATOM     17  C   UNL d   1      25.628 -17.797   0.140  0.00  0.00    -0.054 A 
ATOM     18  C   UNL d   1      26.655 -18.244   1.150  0.00  0.00     0.049 C 
ATOM     19  C   UNL d   1      25.732 -16.553  -0.565  0.00  0.00    -0.029 A 
ATOM     20  C   UNL d   1      26.944 -15.696  -0.302  0.00  0.00     0.051 C 
ENDBRANCH   9  13
ENDBRANCH   1   7
BRANCH   6  21
ATOM     21  N   UNL d   1      25.968 -10.761  -4.929  0.00  0.00    -0.379 N 
ATOM     22  C   UNL d   1      25.156  -9.930  -5.811  0.00  0.00     0.123 C 
ATOM     23  C   UNL d   1      25.615  -8.489  -5.627  0.00  0.00     0.020 C 
ATOM     24  C   UNL d   1      25.570  -8.092  -4.145  0.00  0.00     0.003 C 
ATOM     25  C   UNL d   1      26.295  -9.105  -3.246  0.00  0.00     0.020 C 
ATOM     26  C   UNL d   1      25.803 -10.525  -3.511  0.00  0.00     0.123 C 
ENDBRANCH   6  21
BRANCH   3  27
ATOM     27  N   UNL d   1      29.123 -14.913  -7.040  0.00  0.00    -0.323 N 
ATOM     28  C   UNL d   1      29.686 -15.921  -6.251  0.00  0.00     0.257 C 
ATOM     29  O   UNL d   1      29.488 -16.118  -5.051  0.00  0.00    -0.267 OA
ATOM     30  H   UNL d   1      29.337 -14.912  -8.029  0.00  0.00     0.169 HD
BRANCH  28  31
ATOM     31  C   UNL d   1      30.607 -16.898  -6.873  0.00  0.00     0.054 A 
ATOM     32  C   UNL d   1      30.405 -18.257  -6.537  0.00  0.00     0.019 A 
ATOM     33  C   UNL d   1      31.350 -19.224  -6.879  0.00  0.00     0.001 A 
ATOM     34  C   UNL d   1      32.471 -18.854  -7.614  0.00  0.00     0.002 A 
ATOM     35  C   UNL d   1      32.666 -17.517  -7.965  0.00  0.00     0.025 A 
ATOM     36  C   UNL d   1      31.744 -16.533  -7.591  0.00  0.00     0.049 A 
ATOM     37 CL   UNL d   1      32.116 -14.903  -8.018  0.00  0.00    -0.083 Cl
ENDBRANCH  28  31
ENDBRANCH   3  27
TORSDOF 5
ENDMDL
MODEL 8
REMARK VINA RESULT:    -8.570      3.121      3.936
REMARK INTER + INTRA:         -11.881
REMARK INTER:                 -10.061
REMARK INTRA:                  -1.820
REMARK CONF_INDEPENDENT:        1.492
REMARK UNBOUND:                -1.820
REMARK  5 active torsions:
REMARK  status: ('A' for Active; 'I' for Inactive)
REMARK    1  A    between atoms: C_6  and  N_7 
REMARK       I    between atoms: N_7  and  C_8 
REMARK       I    between atoms: C_8  and  N_10 
REMARK    2  A    between atoms: N_10  and  C_11 
REMARK    3  A    between atoms: C_13  and  N_14 
REMARK       I    between atoms: N_14  and  C_15 
REMARK    4  A    between atoms: C_15  and  C_17 
REMARK    5  A    between atoms: C_26  and  N_27 
ROOT
ATOM      1  C   UNL d   1      26.951 -14.092  -1.875  0.00  0.00     0.065 A 
ATOM      2  C   UNL d   1      26.825 -12.875  -2.600  0.00  0.00     0.061 A 
ATOM      3  C   UNL d   1      25.813 -12.720  -3.577  0.00  0.00     0.037 A 
ATOM      4  C   UNL d   1      25.046 -13.830  -3.905  0.00  0.00     0.032 A 
ATOM      5  C   UNL d   1      25.163 -15.018  -3.206  0.00  0.00     0.034 A 
ATOM      6  C   UNL d   1      26.091 -15.178  -2.176  0.00  0.00     0.057 A 
ENDROOT
BRANCH   1   7
ATOM      7  N   UNL d   1      27.927 -14.230  -0.826  0.00  0.00    -0.306 N 
ATOM      8  C   UNL d   1      27.509 -14.196   0.500  0.00  0.00     0.325 C 
ATOM      9  N   UNL d   1      28.515 -14.010   1.439  0.00  0.00    -0.308 N 
ATOM     10  O   UNL d   1      26.316 -14.316   0.795  0.00  0.00    -0.247 OA
ATOM     11  H   UNL d   1      29.461 -14.179   1.138  0.00  0.00     0.170 HD
ATOM     12  H   UNL d   1      28.813 -14.654  -1.053  0.00  0.00     0.170 HD
BRANCH   9  13
ATOM     13  C   UNL d   1      28.280 -13.753   2.840  0.00  0.00     0.042 A 
ATOM     14  C   UNL d   1      28.149 -14.824   3.744  0.00  0.00     0.030 A 
ATOM     15  C   UNL d   1      27.967 -14.652   5.112  0.00  0.00     0.003 A 
ATOM     16  C   UNL d   1      27.860 -13.379   5.628  0.00  0.00     0.007 A 
ATOM     17  C   UNL d   1      27.937 -12.269   4.773  0.00  0.00    -0.054 A 
ATOM     18  C   UNL d   1      27.783 -10.909   5.406  0.00  0.00     0.049 C 
ATOM     19  C   UNL d   1      28.158 -12.444   3.367  0.00  0.00    -0.029 A 
ATOM     20  C   UNL d   1      28.279 -11.206   2.517  0.00  0.00     0.051 C 
ENDBRANCH   9  13
ENDBRANCH   1   7
BRANCH   6  21
ATOM     21  N   UNL d   1      26.046 -16.381  -1.502  0.00  0.00    -0.379 N 
ATOM     22  C   UNL d   1      24.818 -17.167  -1.542  0.00  0.00     0.123 C 
ATOM     23  C   UNL d   1      24.457 -17.519  -0.105  0.00  0.00     0.020 C 
ATOM     24  C   UNL d   1      25.637 -18.204   0.597  0.00  0.00     0.003 C 
ATOM     25  C   UNL d   1      26.945 -17.411   0.452  0.00  0.00     0.020 C 
ATOM     26  C   UNL d   1      27.221 -17.070  -1.010  0.00  0.00     0.123 C 
ENDBRANCH   6  21
BRANCH   3  27
ATOM     27  N   UNL d   1      25.530 -11.457  -4.174  0.00  0.00    -0.323 N 
ATOM     28  C   UNL d   1      26.167 -10.258  -3.843  0.00  0.00     0.257 C 
ATOM     29  O   UNL d   1      27.041 -10.096  -2.989  0.00  0.00    -0.267 OA
ATOM     30  H   UNL d   1      24.870 -11.446  -4.942  0.00  0.00     0.169 HD
BRANCH  28  31
ATOM     31  C   UNL d   1      25.815  -9.024  -4.578  0.00  0.00     0.054 A 
ATOM     32  C   UNL d   1      25.331  -7.944  -3.803  0.00  0.00     0.019 A 
ATOM     33  C   UNL d   1      24.758  -6.829  -4.413  0.00  0.00     0.001 A 
ATOM     34  C   UNL d   1      24.720  -6.752  -5.801  0.00  0.00     0.002 A 
ATOM     35  C   UNL d   1      25.213  -7.808  -6.572  0.00  0.00     0.025 A 
ATOM     36  C   UNL d   1      25.753  -8.948  -5.968  0.00  0.00     0.049 A 
ATOM     37 CL   UNL d   1      26.272 -10.221  -7.013  0.00  0.00    -0.083 Cl
ENDBRANCH  28  31
ENDBRANCH   3  27
TORSDOF 5
ENDMDL
MODEL 9
REMARK VINA RESULT:    -8.229      2.500      2.973
REMARK INTER + INTRA:         -11.196
REMARK INTER:                  -9.720
REMARK INTRA:                  -1.476
REMARK CONF_INDEPENDENT:        1.492
REMARK UNBOUND:                -1.476
REMARK  5 active torsions:
REMARK  status: ('A' for Active; 'I' for Inactive)
REMARK    1  A    between atoms: C_6  and  N_7 
REMARK       I    between atoms: N_7  and  C_8 
REMARK       I    between atoms: C_8  and  N_10 
REMARK    2  A    between atoms: N_10  and  C_11 
REMARK    3  A    between atoms: C_13  and  N_14 
REMARK       I    between atoms: N_14  and  C_15 
REMARK    4  A    between atoms: C_15  and  C_17 
REMARK    5  A    between atoms: C_26  and  N_27 
ROOT
ATOM      1  C   UNL d   1      26.694 -13.981  -1.637  0.00  0.00     0.065 A 
ATOM      2  C   UNL d   1      26.732 -12.958  -2.625  0.00  0.00     0.061 A 
ATOM      3  C   UNL d   1      25.753 -12.907  -3.646  0.00  0.00     0.037 A 
ATOM      4  C   UNL d   1      24.848 -13.956  -3.738  0.00  0.00     0.032 A 
ATOM      5  C   UNL d   1      24.804 -14.955  -2.781  0.00  0.00     0.034 A 
ATOM      6  C   UNL d   1      25.699 -14.988  -1.710  0.00  0.00     0.057 A 
ENDROOT
BRANCH   1   7
ATOM      7  N   UNL d   1      27.638 -13.995  -0.551  0.00  0.00    -0.306 N 
ATOM      8  C   UNL d   1      27.260 -13.483   0.685  0.00  0.00     0.325 C 
ATOM      9  N   UNL d   1      28.300 -13.233   1.572  0.00  0.00    -0.308 N 
ATOM     10  O   UNL d   1      26.074 -13.265   0.949  0.00  0.00    -0.247 OA
ATOM     11  H   UNL d   1      29.184 -13.673   1.377  0.00  0.00     0.170 HD
ATOM     12  H   UNL d   1      28.413 -14.637  -0.603  0.00  0.00     0.170 HD
BRANCH   9  13
ATOM     13  C   UNL d   1      28.147 -12.529   2.822  0.00  0.00     0.042 A 
ATOM     14  C   UNL d   1      27.911 -11.142   2.830  0.00  0.00     0.030 A 
ATOM     15  C   UNL d   1      27.708 -10.407   3.994  0.00  0.00     0.003 A 
ATOM     16  C   UNL d   1      27.783 -11.037   5.216  0.00  0.00     0.007 A 
ATOM     17  C   UNL d   1      28.060 -12.410   5.279  0.00  0.00    -0.054 A 
ATOM     18  C   UNL d   1      28.154 -13.024   6.654  0.00  0.00     0.049 C 
ATOM     19  C   UNL d   1      28.236 -13.176   4.080  0.00  0.00    -0.029 A 
ATOM     20  C   UNL d   1      28.482 -14.656   4.222  0.00  0.00     0.051 C 
ENDBRANCH   9  13
ENDBRANCH   1   7
BRANCH   6  21
ATOM     21  N   UNL d   1      25.494 -15.987  -0.780  0.00  0.00    -0.379 N 
ATOM     22  C   UNL d   1      26.637 -16.506  -0.038  0.00  0.00     0.123 C 
ATOM     23  C   UNL d   1      26.607 -18.024  -0.161  0.00  0.00     0.020 C 
ATOM     24  C   UNL d   1      25.246 -18.575   0.285  0.00  0.00     0.003 C 
ATOM     25  C   UNL d   1      24.072 -17.863  -0.404  0.00  0.00     0.020 C 
ATOM     26  C   UNL d   1      24.190 -16.349  -0.265  0.00  0.00     0.123 C 
ENDBRANCH   6  21
BRANCH   3  27
ATOM     27  N   UNL d   1      25.642 -11.792  -4.527  0.00  0.00    -0.323 N 
ATOM     28  C   UNL d   1      26.593 -11.437  -5.487  0.00  0.00     0.257 C 
ATOM     29  O   UNL d   1      27.664 -12.002  -5.712  0.00  0.00    -0.267 OA
ATOM     30  H   UNL d   1      24.778 -11.265  -4.499  0.00  0.00     0.169 HD
BRANCH  28  31
ATOM     31  C   UNL d   1      26.330 -10.283  -6.375  0.00  0.00     0.054 A 
ATOM     32  C   UNL d   1      26.779 -10.399  -7.711  0.00  0.00     0.019 A 
ATOM     33  C   UNL d   1      26.790  -9.292  -8.559  0.00  0.00     0.001 A 
ATOM     34  C   UNL d   1      26.293  -8.076  -8.101  0.00  0.00     0.002 A 
ATOM     35  C   UNL d   1      25.831  -7.960  -6.789  0.00  0.00     0.025 A 
ATOM     36  C   UNL d   1      25.854  -9.055  -5.919  0.00  0.00     0.049 A 
ATOM     37 CL   UNL d   1      25.322  -8.785  -4.299  0.00  0.00    -0.083 Cl
ENDBRANCH  28  31
ENDBRANCH   3  27
TORSDOF 5
ENDMDL
