MODEL 1
REMARK VINA RESULT:    -8.247      0.000      0.000
REMARK INTER + INTRA:         -12.544
REMARK INTER:                 -10.932
REMARK INTRA:                  -1.612
REMARK CONF_INDEPENDENT:        2.685
REMARK UNBOUND:                -1.612
REMARK  9 active torsions:
REMARK  status: ('A' for Active; 'I' for Inactive)
REMARK    1  A    between atoms: C_2  and  C_3 
REMARK    2  A    between atoms: C_3  and  C_4 
REMARK    3  A    between atoms: C_4  and  N_5 
REMARK       I    between atoms: N_5  and  C_6 
REMARK       I    between atoms: C_6  and  N_8 
REMARK    4  A    between atoms: N_8  and  N_9 
REMARK       I    between atoms: N_9  and  C_10 
REMARK    5  A    between atoms: C_10  and  C_12 
REMARK    6  A    between atoms: C_12  and  O_13 
REMARK    7  A    between atoms: O_13  and  C_14 
REMARK    8  A    between atoms: C_17  and  C_18 
REMARK    9  A    between atoms: C_18  and  C_20 
ROOT
ATOM      1  N   UNL d   1      25.720 -13.461  -2.748  0.00  0.00    -0.264 N 
ATOM      2  C   UNL d   1      25.641 -14.764  -3.243  0.00  0.00     0.260 C 
ATOM      3  O   UNL d   1      25.156 -14.985  -4.356  0.00  0.00    -0.269 OA
ATOM      4  H   UNL d   1      26.106 -13.207  -1.840  0.00  0.00     0.190 HD
ENDROOT
BRANCH   2   5
ATOM      5  C   UNL d   1      26.178 -15.901  -2.313  0.00  0.00     0.280 C 
BRANCH   5   6
ATOM      6  O   UNL d   1      25.432 -15.973  -1.086  0.00  0.00    -0.342 OA
BRANCH   6   7
ATOM      7  C   UNL d   1      24.391 -16.861  -0.986  0.00  0.00     0.069 A 
ATOM      8  C   UNL d   1      23.103 -16.319  -1.088  0.00  0.00     0.038 A 
ATOM      9  C   UNL d   1      21.964 -17.115  -0.888  0.00  0.00     0.018 A 
ATOM     10  C   UNL d   1      22.095 -18.487  -0.642  0.00  0.00     0.010 A 
ATOM     11  C   UNL d   1      23.381 -19.025  -0.514  0.00  0.00     0.018 A 
ATOM     12  C   UNL d   1      24.520 -18.214  -0.678  0.00  0.00     0.038 A 
BRANCH  10  13
ATOM     13  C   UNL d   1      20.860 -19.332  -0.583  0.00  0.00     0.159 C 
ATOM     14  O   UNL d   1      20.335 -19.701  -1.636  0.00  0.00    -0.292 OA
BRANCH  13  15
ATOM     15  C   UNL d   1      20.319 -19.752   0.776  0.00  0.00     0.079 C 
ATOM     16  C   UNL d   1      18.930 -20.359   0.665  0.00  0.00     0.013 C 
ENDBRANCH  13  15
ENDBRANCH  10  13
ENDBRANCH   6   7
ENDBRANCH   5   6
ENDBRANCH   2   5
BRANCH   1  17
ATOM     17  N   UNL d   1      25.248 -12.360  -3.553  0.00  0.00    -0.249 N 
ATOM     18  C   UNL d   1      25.680 -11.071  -3.278  0.00  0.00     0.334 C 
ATOM     19  N   UNL d   1      25.174 -10.089  -4.110  0.00  0.00    -0.342 N 
ATOM     20  O   UNL d   1      26.459 -10.829  -2.353  0.00  0.00    -0.246 OA
ATOM     21  H   UNL d   1      24.539 -10.340  -4.855  0.00  0.00     0.164 HD
ATOM     22  H   UNL d   1      24.612 -12.600  -4.307  0.00  0.00     0.192 HD
BRANCH  19  23
ATOM     23  C   UNL d   1      25.538  -8.676  -3.943  0.00  0.00     0.124 C 
BRANCH  23  24
ATOM     24  C   UNL d   1      26.003  -7.981  -5.234  0.00  0.00     0.019 C 
BRANCH  24  25
ATOM     25  C   UNL d   1      24.974  -8.106  -6.369  0.00  0.00    -0.003 C 
ATOM     26  C   UNL d   1      23.567  -7.752  -5.897  0.00  0.00     0.005 C 
ENDBRANCH  24  25
ENDBRANCH  23  24
ENDBRANCH  19  23
ENDBRANCH   1  17
TORSDOF 9
ENDMDL
MODEL 2
REMARK VINA RESULT:    -7.897      3.908      9.800
REMARK INTER + INTRA:         -12.604
REMARK INTER:                 -10.582
REMARK INTRA:                  -2.022
REMARK CONF_INDEPENDENT:        2.685
REMARK UNBOUND:                -2.022
REMARK  9 active torsions:
REMARK  status: ('A' for Active; 'I' for Inactive)
REMARK    1  A    between atoms: C_2  and  C_3 
REMARK    2  A    between atoms: C_3  and  C_4 
REMARK    3  A    between atoms: C_4  and  N_5 
REMARK       I    between atoms: N_5  and  C_6 
REMARK       I    between atoms: C_6  and  N_8 
REMARK    4  A    between atoms: N_8  and  N_9 
REMARK       I    between atoms: N_9  and  C_10 
REMARK    5  A    between atoms: C_10  and  C_12 
REMARK    6  A    between atoms: C_12  and  O_13 
REMARK    7  A    between atoms: O_13  and  C_14 
REMARK    8  A    between atoms: C_17  and  C_18 
REMARK    9  A    between atoms: C_18  and  C_20 
ROOT
ATOM      1  N   UNL d   1      23.688 -17.632  -0.277  0.00  0.00    -0.264 N 
ATOM      2  C   UNL d   1      25.032 -17.617   0.102  0.00  0.00     0.260 C 
ATOM      3  O   UNL d   1      25.511 -18.547   0.756  0.00  0.00    -0.269 OA
ATOM      4  H   UNL d   1      23.227 -16.900  -0.815  0.00  0.00     0.190 HD
ENDROOT
BRANCH   2   5
ATOM      5  C   UNL d   1      25.868 -16.370  -0.334  0.00  0.00     0.280 C 
BRANCH   5   6
ATOM      6  O   UNL d   1      25.130 -15.531  -1.239  0.00  0.00    -0.342 OA
BRANCH   6   7
ATOM      7  C   UNL d   1      25.679 -15.208  -2.453  0.00  0.00     0.069 A 
ATOM      8  C   UNL d   1      27.013 -15.590  -2.650  0.00  0.00     0.038 A 
ATOM      9  C   UNL d   1      27.710 -15.213  -3.809  0.00  0.00     0.018 A 
ATOM     10  C   UNL d   1      27.063 -14.497  -4.822  0.00  0.00     0.010 A 
ATOM     11  C   UNL d   1      25.739 -14.091  -4.616  0.00  0.00     0.018 A 
ATOM     12  C   UNL d   1      25.056 -14.440  -3.435  0.00  0.00     0.038 A 
BRANCH  10  13
ATOM     13  C   UNL d   1      27.791 -14.242  -6.106  0.00  0.00     0.159 C 
ATOM     14  O   UNL d   1      28.151 -15.200  -6.791  0.00  0.00    -0.292 OA
BRANCH  13  15
ATOM     15  C   UNL d   1      28.020 -12.804  -6.550  0.00  0.00     0.079 C 
ATOM     16  C   UNL d   1      29.256 -12.676  -7.426  0.00  0.00     0.013 C 
ENDBRANCH  13  15
ENDBRANCH  10  13
ENDBRANCH   6   7
ENDBRANCH   5   6
ENDBRANCH   2   5
BRANCH   1  17
ATOM     17  N   UNL d   1      22.856 -18.754   0.086  0.00  0.00    -0.249 N 
ATOM     18  C   UNL d   1      21.526 -18.781  -0.310  0.00  0.00     0.334 C 
ATOM     19  N   UNL d   1      20.817 -19.902   0.083  0.00  0.00    -0.342 N 
ATOM     20  O   UNL d   1      21.023 -17.865  -0.964  0.00  0.00    -0.246 OA
ATOM     21  H   UNL d   1      21.277 -20.626   0.617  0.00  0.00     0.164 HD
ATOM     22  H   UNL d   1      23.308 -19.490   0.621  0.00  0.00     0.192 HD
BRANCH  19  23
ATOM     23  C   UNL d   1      19.399 -20.074  -0.260  0.00  0.00     0.124 C 
BRANCH  23  24
ATOM     24  C   UNL d   1      18.621 -20.996   0.694  0.00  0.00     0.019 C 
BRANCH  24  25
ATOM     25  C   UNL d   1      18.484 -20.398   2.104  0.00  0.00    -0.003 C 
ATOM     26  C   UNL d   1      19.802 -20.450   2.869  0.00  0.00     0.005 C 
ENDBRANCH  24  25
ENDBRANCH  23  24
ENDBRANCH  19  23
ENDBRANCH   1  17
TORSDOF 9
ENDMDL
MODEL 3
REMARK VINA RESULT:    -7.858      1.901      2.454
REMARK INTER + INTRA:         -11.771
REMARK INTER:                 -10.543
REMARK INTRA:                  -1.228
REMARK CONF_INDEPENDENT:        2.685
REMARK UNBOUND:                -1.228
REMARK  9 active torsions:
REMARK  status: ('A' for Active; 'I' for Inactive)
REMARK    1  A    between atoms: C_2  and  C_3 
REMARK    2  A    between atoms: C_3  and  C_4 
REMARK    3  A    between atoms: C_4  and  N_5 
REMARK       I    between atoms: N_5  and  C_6 
REMARK       I    between atoms: C_6  and  N_8 
REMARK    4  A    between atoms: N_8  and  N_9 
REMARK       I    between atoms: N_9  and  C_10 
REMARK    5  A    between atoms: C_10  and  C_12 
REMARK    6  A    between atoms: C_12  and  O_13 
REMARK    7  A    between atoms: O_13  and  C_14 
REMARK    8  A    between atoms: C_17  and  C_18 
REMARK    9  A    between atoms: C_18  and  C_20 
ROOT
ATOM      1  N   UNL d   1      25.835 -14.011  -2.423  0.00  0.00    -0.264 N 
ATOM      2  C   UNL d   1      25.884 -15.354  -2.801  0.00  0.00     0.260 C 
ATOM      3  O   UNL d   1      25.532 -15.702  -3.932  0.00  0.00    -0.269 OA
ATOM      4  H   UNL d   1      26.108 -13.654  -1.509  0.00  0.00     0.190 HD
ENDROOT
BRANCH   2   5
ATOM      5  C   UNL d   1      26.387 -16.368  -1.722  0.00  0.00     0.280 C 
BRANCH   5   6
ATOM      6  O   UNL d   1      25.554 -16.346  -0.550  0.00  0.00    -0.342 OA
BRANCH   6   7
ATOM      7  C   UNL d   1      24.338 -16.978  -0.580  0.00  0.00     0.069 A 
ATOM      8  C   UNL d   1      24.365 -18.377  -0.506  0.00  0.00     0.038 A 
ATOM      9  C   UNL d   1      23.190 -19.133  -0.642  0.00  0.00     0.018 A 
ATOM     10  C   UNL d   1      21.953 -18.496  -0.794  0.00  0.00     0.010 A 
ATOM     11  C   UNL d   1      21.926 -17.100  -0.895  0.00  0.00     0.018 A 
ATOM     12  C   UNL d   1      23.113 -16.349  -0.796  0.00  0.00     0.038 A 
BRANCH  10  13
ATOM     13  C   UNL d   1      20.706 -19.326  -0.785  0.00  0.00     0.159 C 
ATOM     14  O   UNL d   1      20.266 -19.757  -1.852  0.00  0.00    -0.292 OA
BRANCH  13  15
ATOM     15  C   UNL d   1      20.048 -19.652   0.548  0.00  0.00     0.079 C 
ATOM     16  C   UNL d   1      18.808 -20.513   0.368  0.00  0.00     0.013 C 
ENDBRANCH  13  15
ENDBRANCH  10  13
ENDBRANCH   6   7
ENDBRANCH   5   6
ENDBRANCH   2   5
BRANCH   1  17
ATOM     17  N   UNL d   1      25.386 -13.019  -3.369  0.00  0.00    -0.249 N 
ATOM     18  C   UNL d   1      26.316 -12.292  -4.098  0.00  0.00     0.334 C 
ATOM     19  N   UNL d   1      25.782 -11.370  -4.981  0.00  0.00    -0.342 N 
ATOM     20  O   UNL d   1      27.529 -12.464  -3.960  0.00  0.00    -0.246 OA
ATOM     21  H   UNL d   1      24.780 -11.269  -5.058  0.00  0.00     0.164 HD
ATOM     22  H   UNL d   1      24.379 -12.910  -3.458  0.00  0.00     0.192 HD
BRANCH  19  23
ATOM     23  C   UNL d   1      26.641 -10.525  -5.822  0.00  0.00     0.124 C 
BRANCH  23  24
ATOM     24  C   UNL d   1      26.861 -11.060  -7.247  0.00  0.00     0.019 C 
BRANCH  24  25
ATOM     25  C   UNL d   1      28.246 -11.706  -7.422  0.00  0.00    -0.003 C 
ATOM     26  C   UNL d   1      28.253 -13.160  -6.959  0.00  0.00     0.005 C 
ENDBRANCH  24  25
ENDBRANCH  23  24
ENDBRANCH  19  23
ENDBRANCH   1  17
TORSDOF 9
ENDMDL
MODEL 4
REMARK VINA RESULT:    -7.846      4.701      6.294
REMARK INTER + INTRA:         -12.493
REMARK INTER:                 -10.530
REMARK INTRA:                  -1.962
REMARK CONF_INDEPENDENT:        2.685
REMARK UNBOUND:                -1.962
REMARK  9 active torsions:
REMARK  status: ('A' for Active; 'I' for Inactive)
REMARK    1  A    between atoms: C_2  and  C_3 
REMARK    2  A    between atoms: C_3  and  C_4 
REMARK    3  A    between atoms: C_4  and  N_5 
REMARK       I    between atoms: N_5  and  C_6 
REMARK       I    between atoms: C_6  and  N_8 
REMARK    4  A    between atoms: N_8  and  N_9 
REMARK       I    between atoms: N_9  and  C_10 
REMARK    5  A    between atoms: C_10  and  C_12 
REMARK    6  A    between atoms: C_12  and  O_13 
REMARK    7  A    between atoms: O_13  and  C_14 
REMARK    8  A    between atoms: C_17  and  C_18 
REMARK    9  A    between atoms: C_18  and  C_20 
ROOT
ATOM      1  N   UNL d   1      27.444 -15.442   0.425  0.00  0.00    -0.264 N 
ATOM      2  C   UNL d   1      27.646 -16.278  -0.675  0.00  0.00     0.260 C 
ATOM      3  O   UNL d   1      28.675 -16.953  -0.772  0.00  0.00    -0.269 OA
ATOM      4  H   UNL d   1      26.622 -14.858   0.568  0.00  0.00     0.190 HD
ENDROOT
BRANCH   2   5
ATOM      5  C   UNL d   1      26.519 -16.293  -1.760  0.00  0.00     0.280 C 
BRANCH   5   6
ATOM      6  O   UNL d   1      25.258 -15.872  -1.213  0.00  0.00    -0.342 OA
BRANCH   6   7
ATOM      7  C   UNL d   1      24.240 -16.783  -1.097  0.00  0.00     0.069 A 
ATOM      8  C   UNL d   1      22.938 -16.263  -1.117  0.00  0.00     0.038 A 
ATOM      9  C   UNL d   1      21.825 -17.089  -0.893  0.00  0.00     0.018 A 
ATOM     10  C   UNL d   1      21.993 -18.466  -0.705  0.00  0.00     0.010 A 
ATOM     11  C   UNL d   1      23.293 -18.983  -0.658  0.00  0.00     0.018 A 
ATOM     12  C   UNL d   1      24.408 -18.143  -0.846  0.00  0.00     0.038 A 
BRANCH  10  13
ATOM     13  C   UNL d   1      20.778 -19.337  -0.619  0.00  0.00     0.159 C 
ATOM     14  O   UNL d   1      20.225 -19.700  -1.659  0.00  0.00    -0.292 OA
BRANCH  13  15
ATOM     15  C   UNL d   1      20.291 -19.789   0.750  0.00  0.00     0.079 C 
ATOM     16  C   UNL d   1      18.805 -20.108   0.742  0.00  0.00     0.013 C 
ENDBRANCH  13  15
ENDBRANCH  10  13
ENDBRANCH   6   7
ENDBRANCH   5   6
ENDBRANCH   2   5
BRANCH   1  17
ATOM     17  N   UNL d   1      28.439 -15.380   1.467  0.00  0.00    -0.249 N 
ATOM     18  C   UNL d   1      28.275 -14.498   2.526  0.00  0.00     0.334 C 
ATOM     19  N   UNL d   1      29.281 -14.521   3.474  0.00  0.00    -0.342 N 
ATOM     20  O   UNL d   1      27.296 -13.751   2.604  0.00  0.00    -0.246 OA
ATOM     21  H   UNL d   1      30.061 -15.153   3.364  0.00  0.00     0.164 HD
ATOM     22  H   UNL d   1      29.228 -16.014   1.370  0.00  0.00     0.192 HD
BRANCH  19  23
ATOM     23  C   UNL d   1      29.248 -13.643   4.652  0.00  0.00     0.124 C 
BRANCH  23  24
ATOM     24  C   UNL d   1      27.937 -13.705   5.455  0.00  0.00     0.019 C 
BRANCH  24  25
ATOM     25  C   UNL d   1      27.786 -12.516   6.419  0.00  0.00    -0.003 C 
ATOM     26  C   UNL d   1      28.369 -11.235   5.832  0.00  0.00     0.005 C 
ENDBRANCH  24  25
ENDBRANCH  23  24
ENDBRANCH  19  23
ENDBRANCH   1  17
TORSDOF 9
ENDMDL
MODEL 5
REMARK VINA RESULT:    -7.639      4.265      9.669
REMARK INTER + INTRA:         -12.326
REMARK INTER:                 -10.324
REMARK INTRA:                  -2.002
REMARK CONF_INDEPENDENT:        2.685
REMARK UNBOUND:                -2.002
REMARK  9 active torsions:
REMARK  status: ('A' for Active; 'I' for Inactive)
REMARK    1  A    between atoms: C_2  and  C_3 
REMARK    2  A    between atoms: C_3  and  C_4 
REMARK    3  A    between atoms: C_4  and  N_5 
REMARK       I    between atoms: N_5  and  C_6 
REMARK       I    between atoms: C_6  and  N_8 
REMARK    4  A    between atoms: N_8  and  N_9 
REMARK       I    between atoms: N_9  and  C_10 
REMARK    5  A    between atoms: C_10  and  C_12 
REMARK    6  A    between atoms: C_12  and  O_13 
REMARK    7  A    between atoms: O_13  and  C_14 
REMARK    8  A    between atoms: C_17  and  C_18 
REMARK    9  A    between atoms: C_18  and  C_20 
ROOT
ATOM      1  N   UNL d   1      24.071 -17.603  -0.254  0.00  0.00    -0.264 N 
ATOM      2  C   UNL d   1      25.381 -17.651   0.228  0.00  0.00     0.260 C 
ATOM      3  O   UNL d   1      25.748 -18.574   0.961  0.00  0.00    -0.269 OA
ATOM      4  H   UNL d   1      23.701 -16.873  -0.860  0.00  0.00     0.190 HD
ENDROOT
BRANCH   2   5
ATOM      5  C   UNL d   1      26.327 -16.481  -0.198  0.00  0.00     0.280 C 
BRANCH   5   6
ATOM      6  O   UNL d   1      25.728 -15.666  -1.220  0.00  0.00    -0.342 OA
BRANCH   6   7
ATOM      7  C   UNL d   1      26.353 -15.545  -2.434  0.00  0.00     0.069 A 
ATOM      8  C   UNL d   1      27.724 -15.835  -2.455  0.00  0.00     0.038 A 
ATOM      9  C   UNL d   1      28.488 -15.636  -3.617  0.00  0.00     0.018 A 
ATOM     10  C   UNL d   1      27.878 -15.202  -4.799  0.00  0.00     0.010 A 
ATOM     11  C   UNL d   1      26.514 -14.887  -4.773  0.00  0.00     0.018 A 
ATOM     12  C   UNL d   1      25.761 -15.051  -3.595  0.00  0.00     0.038 A 
BRANCH  10  13
ATOM     13  C   UNL d   1      28.692 -15.145  -6.055  0.00  0.00     0.159 C 
ATOM     14  O   UNL d   1      28.154 -14.782  -7.102  0.00  0.00    -0.292 OA
BRANCH  13  15
ATOM     15  C   UNL d   1      30.172 -15.491  -5.989  0.00  0.00     0.079 C 
ATOM     16  C   UNL d   1      30.407 -16.988  -6.113  0.00  0.00     0.013 C 
ENDBRANCH  13  15
ENDBRANCH  10  13
ENDBRANCH   6   7
ENDBRANCH   5   6
ENDBRANCH   2   5
BRANCH   1  17
ATOM     17  N   UNL d   1      23.144 -18.652   0.094  0.00  0.00    -0.249 N 
ATOM     18  C   UNL d   1      21.811 -18.544  -0.276  0.00  0.00     0.334 C 
ATOM     19  N   UNL d   1      21.006 -19.604   0.100  0.00  0.00    -0.342 N 
ATOM     20  O   UNL d   1      21.385 -17.566  -0.895  0.00  0.00    -0.246 OA
ATOM     21  H   UNL d   1      21.405 -20.383   0.605  0.00  0.00     0.164 HD
ATOM     22  H   UNL d   1      23.533 -19.443   0.600  0.00  0.00     0.192 HD
BRANCH  19  23
ATOM     23  C   UNL d   1      19.572 -19.632  -0.219  0.00  0.00     0.124 C 
BRANCH  23  24
ATOM     24  C   UNL d   1      18.841 -20.902   0.248  0.00  0.00     0.019 C 
BRANCH  24  25
ATOM     25  C   UNL d   1      18.427 -20.828   1.727  0.00  0.00    -0.003 C 
ATOM     26  C   UNL d   1      19.599 -20.437   2.622  0.00  0.00     0.005 C 
ENDBRANCH  24  25
ENDBRANCH  23  24
ENDBRANCH  19  23
ENDBRANCH   1  17
TORSDOF 9
ENDMDL
MODEL 6
REMARK VINA RESULT:    -7.611      1.100      2.029
REMARK INTER + INTRA:         -11.940
REMARK INTER:                 -10.296
REMARK INTRA:                  -1.644
REMARK CONF_INDEPENDENT:        2.685
REMARK UNBOUND:                -1.644
REMARK  9 active torsions:
REMARK  status: ('A' for Active; 'I' for Inactive)
REMARK    1  A    between atoms: C_2  and  C_3 
REMARK    2  A    between atoms: C_3  and  C_4 
REMARK    3  A    between atoms: C_4  and  N_5 
REMARK       I    between atoms: N_5  and  C_6 
REMARK       I    between atoms: C_6  and  N_8 
REMARK    4  A    between atoms: N_8  and  N_9 
REMARK       I    between atoms: N_9  and  C_10 
REMARK    5  A    between atoms: C_10  and  C_12 
REMARK    6  A    between atoms: C_12  and  O_13 
REMARK    7  A    between atoms: O_13  and  C_14 
REMARK    8  A    between atoms: C_17  and  C_18 
REMARK    9  A    between atoms: C_18  and  C_20 
ROOT
ATOM      1  N   UNL d   1      25.890 -13.178  -2.900  0.00  0.00    -0.264 N 
ATOM      2  C   UNL d   1      25.213 -14.397  -2.953  0.00  0.00     0.260 C 
ATOM      3  O   UNL d   1      24.115 -14.484  -3.510  0.00  0.00    -0.269 OA
ATOM      4  H   UNL d   1      26.795 -13.034  -2.457  0.00  0.00     0.190 HD
ENDROOT
BRANCH   2   5
ATOM      5  C   UNL d   1      25.910 -15.615  -2.262  0.00  0.00     0.280 C 
BRANCH   5   6
ATOM      6  O   UNL d   1      25.349 -15.877  -0.965  0.00  0.00    -0.342 OA
BRANCH   6   7
ATOM      7  C   UNL d   1      24.209 -16.632  -0.868  0.00  0.00     0.069 A 
ATOM      8  C   UNL d   1      24.386 -18.022  -0.839  0.00  0.00     0.038 A 
ATOM      9  C   UNL d   1      23.286 -18.894  -0.856  0.00  0.00     0.018 A 
ATOM     10  C   UNL d   1      21.982 -18.386  -0.839  0.00  0.00     0.010 A 
ATOM     11  C   UNL d   1      21.801 -16.999  -0.894  0.00  0.00     0.018 A 
ATOM     12  C   UNL d   1      22.909 -16.130  -0.915  0.00  0.00     0.038 A 
BRANCH  10  13
ATOM     13  C   UNL d   1      20.835 -19.341  -0.705  0.00  0.00     0.159 C 
ATOM     14  O   UNL d   1      20.264 -19.738  -1.722  0.00  0.00    -0.292 OA
BRANCH  13  15
ATOM     15  C   UNL d   1      20.443 -19.831   0.682  0.00  0.00     0.079 C 
ATOM     16  C   UNL d   1      18.948 -20.087   0.786  0.00  0.00     0.013 C 
ENDBRANCH  13  15
ENDBRANCH  10  13
ENDBRANCH   6   7
ENDBRANCH   5   6
ENDBRANCH   2   5
BRANCH   1  17
ATOM     17  N   UNL d   1      25.309 -12.011  -3.520  0.00  0.00    -0.249 N 
ATOM     18  C   UNL d   1      25.986 -10.801  -3.481  0.00  0.00     0.334 C 
ATOM     19  N   UNL d   1      25.347  -9.747  -4.109  0.00  0.00    -0.342 N 
ATOM     20  O   UNL d   1      27.079 -10.685  -2.923  0.00  0.00    -0.246 OA
ATOM     21  H   UNL d   1      24.452  -9.895  -4.554  0.00  0.00     0.164 HD
ATOM     22  H   UNL d   1      24.410 -12.148  -3.974  0.00  0.00     0.192 HD
BRANCH  19  23
ATOM     23  C   UNL d   1      25.939  -8.403  -4.150  0.00  0.00     0.124 C 
BRANCH  23  24
ATOM     24  C   UNL d   1      26.527  -7.925  -2.812  0.00  0.00     0.019 C 
BRANCH  24  25
ATOM     25  C   UNL d   1      25.525  -8.055  -1.654  0.00  0.00    -0.003 C 
ATOM     26  C   UNL d   1      26.185  -7.791  -0.304  0.00  0.00     0.005 C 
ENDBRANCH  24  25
ENDBRANCH  23  24
ENDBRANCH  19  23
ENDBRANCH   1  17
TORSDOF 9
ENDMDL
MODEL 7
REMARK VINA RESULT:    -7.429      3.535      9.856
REMARK INTER + INTRA:         -12.134
REMARK INTER:                 -10.113
REMARK INTRA:                  -2.021
REMARK CONF_INDEPENDENT:        2.685
REMARK UNBOUND:                -2.021
REMARK  9 active torsions:
REMARK  status: ('A' for Active; 'I' for Inactive)
REMARK    1  A    between atoms: C_2  and  C_3 
REMARK    2  A    between atoms: C_3  and  C_4 
REMARK    3  A    between atoms: C_4  and  N_5 
REMARK       I    between atoms: N_5  and  C_6 
REMARK       I    between atoms: C_6  and  N_8 
REMARK    4  A    between atoms: N_8  and  N_9 
REMARK       I    between atoms: N_9  and  C_10 
REMARK    5  A    between atoms: C_10  and  C_12 
REMARK    6  A    between atoms: C_12  and  O_13 
REMARK    7  A    between atoms: O_13  and  C_14 
REMARK    8  A    between atoms: C_17  and  C_18 
REMARK    9  A    between atoms: C_18  and  C_20 
ROOT
ATOM      1  N   UNL d   1      23.451 -17.822  -0.697  0.00  0.00    -0.264 N 
ATOM      2  C   UNL d   1      24.805 -17.727  -0.368  0.00  0.00     0.260 C 
ATOM      3  O   UNL d   1      25.325 -18.543   0.397  0.00  0.00    -0.269 OA
ATOM      4  H   UNL d   1      22.958 -17.184  -1.319  0.00  0.00     0.190 HD
ENDROOT
BRANCH   2   5
ATOM      5  C   UNL d   1      25.599 -16.541  -1.007  0.00  0.00     0.280 C 
BRANCH   5   6
ATOM      6  O   UNL d   1      24.768 -15.766  -1.889  0.00  0.00    -0.342 OA
BRANCH   6   7
ATOM      7  C   UNL d   1      25.354 -15.018  -2.877  0.00  0.00     0.069 A 
ATOM      8  C   UNL d   1      25.219 -13.628  -2.766  0.00  0.00     0.038 A 
ATOM      9  C   UNL d   1      25.681 -12.772  -3.778  0.00  0.00     0.018 A 
ATOM     10  C   UNL d   1      26.344 -13.291  -4.895  0.00  0.00     0.010 A 
ATOM     11  C   UNL d   1      26.457 -14.680  -5.022  0.00  0.00     0.018 A 
ATOM     12  C   UNL d   1      25.958 -15.537  -4.022  0.00  0.00     0.038 A 
BRANCH  10  13
ATOM     13  C   UNL d   1      26.955 -12.342  -5.880  0.00  0.00     0.159 C 
ATOM     14  O   UNL d   1      26.259 -11.444  -6.358  0.00  0.00    -0.292 OA
BRANCH  13  15
ATOM     15  C   UNL d   1      28.430 -12.485  -6.222  0.00  0.00     0.079 C 
ATOM     16  C   UNL d   1      28.675 -13.633  -7.189  0.00  0.00     0.013 C 
ENDBRANCH  13  15
ENDBRANCH  10  13
ENDBRANCH   6   7
ENDBRANCH   5   6
ENDBRANCH   2   5
BRANCH   1  17
ATOM     17  N   UNL d   1      22.657 -18.895  -0.149  0.00  0.00    -0.249 N 
ATOM     18  C   UNL d   1      21.311 -18.988  -0.471  0.00  0.00     0.334 C 
ATOM     19  N   UNL d   1      20.640 -20.055   0.101  0.00  0.00    -0.342 N 
ATOM     20  O   UNL d   1      20.761 -18.172  -1.214  0.00  0.00    -0.246 OA
ATOM     21  H   UNL d   1      21.138 -20.697   0.702  0.00  0.00     0.164 HD
ATOM     22  H   UNL d   1      23.146 -19.549   0.455  0.00  0.00     0.192 HD
BRANCH  19  23
ATOM     23  C   UNL d   1      19.211 -20.286  -0.145  0.00  0.00     0.124 C 
BRANCH  23  24
ATOM     24  C   UNL d   1      18.456 -20.920   1.035  0.00  0.00     0.019 C 
BRANCH  24  25
ATOM     25  C   UNL d   1      18.593 -20.098   2.327  0.00  0.00    -0.003 C 
ATOM     26  C   UNL d   1      19.867 -20.450   3.088  0.00  0.00     0.005 C 
ENDBRANCH  24  25
ENDBRANCH  23  24
ENDBRANCH  19  23
ENDBRANCH   1  17
TORSDOF 9
ENDMDL
MODEL 8
REMARK VINA RESULT:    -7.090      3.547      9.265
REMARK INTER + INTRA:         -11.958
REMARK INTER:                  -9.775
REMARK INTRA:                  -2.183
REMARK CONF_INDEPENDENT:        2.685
REMARK UNBOUND:                -2.183
REMARK  9 active torsions:
REMARK  status: ('A' for Active; 'I' for Inactive)
REMARK    1  A    between atoms: C_2  and  C_3 
REMARK    2  A    between atoms: C_3  and  C_4 
REMARK    3  A    between atoms: C_4  and  N_5 
REMARK       I    between atoms: N_5  and  C_6 
REMARK       I    between atoms: C_6  and  N_8 
REMARK    4  A    between atoms: N_8  and  N_9 
REMARK       I    between atoms: N_9  and  C_10 
REMARK    5  A    between atoms: C_10  and  C_12 
REMARK    6  A    between atoms: C_12  and  O_13 
REMARK    7  A    between atoms: O_13  and  C_14 
REMARK    8  A    between atoms: C_17  and  C_18 
REMARK    9  A    between atoms: C_18  and  C_20 
ROOT
ATOM      1  N   UNL d   1      24.885 -17.450   0.131  0.00  0.00    -0.264 N 
ATOM      2  C   UNL d   1      26.186 -17.674   0.586  0.00  0.00     0.260 C 
ATOM      3  O   UNL d   1      26.507 -18.768   1.058  0.00  0.00    -0.269 OA
ATOM      4  H   UNL d   1      24.551 -16.574  -0.269  0.00  0.00     0.190 HD
ENDROOT
BRANCH   2   5
ATOM      5  C   UNL d   1      27.183 -16.474   0.474  0.00  0.00     0.280 C 
BRANCH   5   6
ATOM      6  O   UNL d   1      26.556 -15.322  -0.115  0.00  0.00    -0.342 OA
BRANCH   6   7
ATOM      7  C   UNL d   1      26.678 -15.110  -1.464  0.00  0.00     0.069 A 
ATOM      8  C   UNL d   1      27.956 -14.762  -1.924  0.00  0.00     0.038 A 
ATOM      9  C   UNL d   1      28.173 -14.412  -3.266  0.00  0.00     0.018 A 
ATOM     10  C   UNL d   1      27.122 -14.463  -4.189  0.00  0.00     0.010 A 
ATOM     11  C   UNL d   1      25.840 -14.784  -3.727  0.00  0.00     0.018 A 
ATOM     12  C   UNL d   1      25.620 -15.098  -2.372  0.00  0.00     0.038 A 
BRANCH  10  13
ATOM     13  C   UNL d   1      27.419 -14.230  -5.638  0.00  0.00     0.159 C 
ATOM     14  O   UNL d   1      27.622 -15.198  -6.372  0.00  0.00    -0.292 OA
BRANCH  13  15
ATOM     15  C   UNL d   1      27.413 -12.804  -6.170  0.00  0.00     0.079 C 
ATOM     16  C   UNL d   1      26.966 -11.810  -5.110  0.00  0.00     0.013 C 
ENDBRANCH  13  15
ENDBRANCH  10  13
ENDBRANCH   6   7
ENDBRANCH   5   6
ENDBRANCH   2   5
BRANCH   1  17
ATOM     17  N   UNL d   1      23.912 -18.513   0.197  0.00  0.00    -0.249 N 
ATOM     18  C   UNL d   1      22.616 -18.290  -0.247  0.00  0.00     0.334 C 
ATOM     19  N   UNL d   1      21.763 -19.374  -0.145  0.00  0.00    -0.342 N 
ATOM     20  O   UNL d   1      22.262 -17.198  -0.697  0.00  0.00    -0.246 OA
ATOM     21  H   UNL d   1      22.104 -20.248   0.230  0.00  0.00     0.164 HD
ATOM     22  H   UNL d   1      24.243 -19.398   0.570  0.00  0.00     0.192 HD
BRANCH  19  23
ATOM     23  C   UNL d   1      20.360 -19.291  -0.574  0.00  0.00     0.124 C 
BRANCH  23  24
ATOM     24  C   UNL d   1      19.339 -19.363   0.573  0.00  0.00     0.019 C 
BRANCH  24  25
ATOM     25  C   UNL d   1      19.245 -20.770   1.186  0.00  0.00    -0.003 C 
ATOM     26  C   UNL d   1      18.006 -21.516   0.701  0.00  0.00     0.005 C 
ENDBRANCH  24  25
ENDBRANCH  23  24
ENDBRANCH  19  23
ENDBRANCH   1  17
TORSDOF 9
ENDMDL
MODEL 9
REMARK VINA RESULT:    -6.952      3.440      4.114
REMARK INTER + INTRA:         -11.675
REMARK INTER:                  -9.637
REMARK INTRA:                  -2.038
REMARK CONF_INDEPENDENT:        2.685
REMARK UNBOUND:                -2.038
REMARK  9 active torsions:
REMARK  status: ('A' for Active; 'I' for Inactive)
REMARK    1  A    between atoms: C_2  and  C_3 
REMARK    2  A    between atoms: C_3  and  C_4 
REMARK    3  A    between atoms: C_4  and  N_5 
REMARK       I    between atoms: N_5  and  C_6 
REMARK       I    between atoms: C_6  and  N_8 
REMARK    4  A    between atoms: N_8  and  N_9 
REMARK       I    between atoms: N_9  and  C_10 
REMARK    5  A    between atoms: C_10  and  C_12 
REMARK    6  A    between atoms: C_12  and  O_13 
REMARK    7  A    between atoms: O_13  and  C_14 
REMARK    8  A    between atoms: C_17  and  C_18 
REMARK    9  A    between atoms: C_18  and  C_20 
ROOT
ATOM      1  N   UNL d   1      27.542 -16.120  -2.406  0.00  0.00    -0.264 N 
ATOM      2  C   UNL d   1      27.843 -16.398  -1.071  0.00  0.00     0.260 C 
ATOM      3  O   UNL d   1      29.013 -16.404  -0.678  0.00  0.00    -0.269 OA
ATOM      4  H   UNL d   1      26.603 -16.100  -2.798  0.00  0.00     0.190 HD
ENDROOT
BRANCH   2   5
ATOM      5  C   UNL d   1      26.633 -16.710  -0.131  0.00  0.00     0.280 C 
BRANCH   5   6
ATOM      6  O   UNL d   1      25.388 -16.293  -0.720  0.00  0.00    -0.342 OA
BRANCH   6   7
ATOM      7  C   UNL d   1      24.332 -17.167  -0.743  0.00  0.00     0.069 A 
ATOM      8  C   UNL d   1      23.060 -16.597  -0.882  0.00  0.00     0.038 A 
ATOM      9  C   UNL d   1      21.900 -17.385  -0.805  0.00  0.00     0.018 A 
ATOM     10  C   UNL d   1      21.998 -18.772  -0.647  0.00  0.00     0.010 A 
ATOM     11  C   UNL d   1      23.266 -19.340  -0.481  0.00  0.00     0.018 A 
ATOM     12  C   UNL d   1      24.424 -18.540  -0.521  0.00  0.00     0.038 A 
BRANCH  10  13
ATOM     13  C   UNL d   1      20.750 -19.598  -0.719  0.00  0.00     0.159 C 
ATOM     14  O   UNL d   1      20.168 -19.712  -1.799  0.00  0.00    -0.292 OA
BRANCH  13  15
ATOM     15  C   UNL d   1      20.267 -20.312   0.534  0.00  0.00     0.079 C 
ATOM     16  C   UNL d   1      19.229 -19.492   1.284  0.00  0.00     0.013 C 
ENDBRANCH  13  15
ENDBRANCH  10  13
ENDBRANCH   6   7
ENDBRANCH   5   6
ENDBRANCH   2   5
BRANCH   1  17
ATOM     17  N   UNL d   1      28.609 -15.819  -3.330  0.00  0.00    -0.249 N 
ATOM     18  C   UNL d   1      28.313 -15.552  -4.659  0.00  0.00     0.334 C 
ATOM     19  N   UNL d   1      29.404 -15.269  -5.461  0.00  0.00    -0.342 N 
ATOM     20  O   UNL d   1      27.156 -15.569  -5.084  0.00  0.00    -0.246 OA
ATOM     21  H   UNL d   1      30.333 -15.266  -5.063  0.00  0.00     0.164 HD
ATOM     22  H   UNL d   1      29.547 -15.810  -2.941  0.00  0.00     0.192 HD
BRANCH  19  23
ATOM     23  C   UNL d   1      29.251 -14.967  -6.891  0.00  0.00     0.124 C 
BRANCH  23  24
ATOM     24  C   UNL d   1      30.063 -13.755  -7.376  0.00  0.00     0.019 C 
BRANCH  24  25
ATOM     25  C   UNL d   1      29.260 -12.445  -7.300  0.00  0.00    -0.003 C 
ATOM     26  C   UNL d   1      28.185 -12.504  -6.220  0.00  0.00     0.005 C 
ENDBRANCH  24  25
ENDBRANCH  23  24
ENDBRANCH  19  23
ENDBRANCH   1  17
TORSDOF 9
ENDMDL
