MODEL 1
REMARK VINA RESULT:    -8.010      0.000      0.000
REMARK INTER + INTRA:         -11.264
REMARK INTER:                 -10.098
REMARK INTRA:                  -1.166
REMARK CONF_INDEPENDENT:        2.088
REMARK UNBOUND:                -1.166
REMARK  7 active torsions:
REMARK  status: ('A' for Active; 'I' for Inactive)
REMARK    1  A    between atoms: O_2  and  C_3 
REMARK    2  A    between atoms: C_6  and  N_7 
REMARK    3  A    between atoms: C_12  and  C_13 
REMARK       I    between atoms: C_13  and  N_14 
REMARK    4  A    between atoms: C_17  and  C_18 
REMARK    5  A    between atoms: C_18  and  C_19 
REMARK    6  A    between atoms: C_19  and  C_20 
REMARK    7  A    between atoms: C_29  and  O_30 
ROOT
ATOM      1  N   UNL d   1      27.079 -13.558  -0.016  0.00  0.00    -0.246 N 
ATOM      2  C   UNL d   1      27.405 -12.523  -0.901  0.00  0.00     0.333 A 
ATOM      3  O   UNL d   1      28.056 -11.496  -0.718  0.00  0.00    -0.246 OA
ATOM      4  N   UNL d   1      26.879 -12.856  -2.137  0.00  0.00    -0.303 N 
ATOM      5  C   UNL d   1      26.226 -14.082  -2.034  0.00  0.00     0.118 A 
ATOM      6  C   UNL d   1      25.502 -14.837  -2.914  0.00  0.00     0.156 A 
ATOM      7  N   UNL d   1      24.941 -16.004  -2.500  0.00  0.00    -0.226 NA
ATOM      8  C   UNL d   1      25.115 -16.396  -1.211  0.00  0.00     0.129 A 
ATOM      9  N   UNL d   1      25.823 -15.699  -0.285  0.00  0.00    -0.213 NA
ATOM     10  C   UNL d   1      26.364 -14.555  -0.730  0.00  0.00     0.170 A 
ATOM     11  H   UNL d   1      27.022 -12.229  -2.900  0.00  0.00     0.171 HD
ENDROOT
BRANCH   1  12
ATOM     12  C   UNL d   1      27.451 -13.559   1.336  0.00  0.00     0.048 A 
ATOM     13  C   UNL d   1      27.766 -14.765   1.969  0.00  0.00     0.033 A 
ATOM     14  C   UNL d   1      27.952 -14.825   3.363  0.00  0.00     0.042 A 
ATOM     15  C   UNL d   1      27.847 -13.681   4.178  0.00  0.00     0.101 A 
ATOM     16  C   UNL d   1      27.532 -12.460   3.532  0.00  0.00     0.103 A 
ATOM     17  C   UNL d   1      27.337 -12.422   2.126  0.00  0.00     0.069 A 
BRANCH  15  18
ATOM     18  O   UNL d   1      28.315 -13.896   5.458  0.00  0.00    -0.353 OA
ATOM     19  C   UNL d   1      28.091 -12.963   6.515  0.00  0.00     0.210 C 
ENDBRANCH  15  18
BRANCH  16  20
ATOM     20  O   UNL d   1      27.402 -11.180   4.022  0.00  0.00    -0.353 OA
ATOM     21  C   UNL d   1      26.958 -10.226   3.102  0.00  0.00     0.210 C 
ENDBRANCH  16  20
ENDBRANCH   1  12
BRANCH   8  22
ATOM     22  C   UNL d   1      24.472 -17.701  -0.777  0.00  0.00     0.085 C 
BRANCH  22  23
ATOM     23  C   UNL d   1      23.419 -17.540   0.336  0.00  0.00     0.046 C 
BRANCH  23  24
ATOM     24  C   UNL d   1      22.157 -18.318   0.044  0.00  0.00    -0.058 A 
ATOM     25  C   UNL d   1      21.420 -18.896   1.085  0.00  0.00     0.007 A 
ATOM     26  C   UNL d   1      20.345 -19.742   0.801  0.00  0.00     0.001 A 
ATOM     27  C   UNL d   1      19.939 -19.938  -0.517  0.00  0.00     0.000 A 
ATOM     28  C   UNL d   1      20.635 -19.325  -1.557  0.00  0.00     0.001 A 
ATOM     29  C   UNL d   1      21.742 -18.523  -1.279  0.00  0.00     0.007 A 
ENDBRANCH  23  24
ENDBRANCH  22  23
ENDBRANCH   8  22
BRANCH   6  30
ATOM     30  C   UNL d   1      25.244 -14.467  -4.355  0.00  0.00     0.270 C 
ATOM     31  N   UNL d   1      24.686 -13.248  -4.661  0.00  0.00    -0.365 N 
ATOM     32  H   UNL d   1      24.407 -12.545  -4.012  0.00  0.00     0.159 HD
ATOM     33  H   UNL d   1      24.531 -13.035  -5.639  0.00  0.00     0.159 HD
ATOM     34  O   UNL d   1      25.517 -15.221  -5.285  0.00  0.00    -0.266 OA
ENDBRANCH   6  30
TORSDOF 7
ENDMDL
MODEL 2
REMARK VINA RESULT:    -7.761      2.143      6.411
REMARK INTER + INTRA:         -11.875
REMARK INTER:                  -9.849
REMARK INTRA:                  -2.026
REMARK CONF_INDEPENDENT:        2.088
REMARK UNBOUND:                -2.026
REMARK  7 active torsions:
REMARK  status: ('A' for Active; 'I' for Inactive)
REMARK    1  A    between atoms: O_2  and  C_3 
REMARK    2  A    between atoms: C_6  and  N_7 
REMARK    3  A    between atoms: C_12  and  C_13 
REMARK       I    between atoms: C_13  and  N_14 
REMARK    4  A    between atoms: C_17  and  C_18 
REMARK    5  A    between atoms: C_18  and  C_19 
REMARK    6  A    between atoms: C_19  and  C_20 
REMARK    7  A    between atoms: C_29  and  O_30 
ROOT
ATOM      1  N   UNL d   1      27.080 -12.413  -0.584  0.00  0.00    -0.246 N 
ATOM      2  C   UNL d   1      27.305 -11.290   0.220  0.00  0.00     0.333 A 
ATOM      3  O   UNL d   1      27.234 -10.092  -0.049  0.00  0.00    -0.246 OA
ATOM      4  N   UNL d   1      27.613 -11.747   1.490  0.00  0.00    -0.303 N 
ATOM      5  C   UNL d   1      27.587 -13.140   1.486  0.00  0.00     0.118 A 
ATOM      6  C   UNL d   1      27.860 -14.086   2.434  0.00  0.00     0.156 A 
ATOM      7  N   UNL d   1      27.780 -15.404   2.114  0.00  0.00    -0.226 NA
ATOM      8  C   UNL d   1      27.427 -15.754   0.850  0.00  0.00     0.129 A 
ATOM      9  N   UNL d   1      27.139 -14.869  -0.139  0.00  0.00    -0.213 NA
ATOM     10  C   UNL d   1      27.226 -13.578   0.214  0.00  0.00     0.170 A 
ATOM     11  H   UNL d   1      27.799 -11.077   2.205  0.00  0.00     0.171 HD
ENDROOT
BRANCH   1  12
ATOM     12  C   UNL d   1      26.743 -12.331  -1.944  0.00  0.00     0.048 A 
ATOM     13  C   UNL d   1      26.869 -11.114  -2.618  0.00  0.00     0.033 A 
ATOM     14  C   UNL d   1      26.359 -10.949  -3.920  0.00  0.00     0.042 A 
ATOM     15  C   UNL d   1      25.719 -12.000  -4.606  0.00  0.00     0.101 A 
ATOM     16  C   UNL d   1      25.597 -13.234  -3.921  0.00  0.00     0.103 A 
ATOM     17  C   UNL d   1      26.108 -13.376  -2.603  0.00  0.00     0.069 A 
BRANCH  15  18
ATOM     18  O   UNL d   1      25.529 -11.722  -5.945  0.00  0.00    -0.353 OA
ATOM     19  C   UNL d   1      25.931 -10.481  -6.526  0.00  0.00     0.210 C 
ENDBRANCH  15  18
BRANCH  16  20
ATOM     20  O   UNL d   1      25.075 -14.445  -4.315  0.00  0.00    -0.353 OA
ATOM     21  C   UNL d   1      25.905 -15.552  -4.115  0.00  0.00     0.210 C 
ENDBRANCH  16  20
ENDBRANCH   1  12
BRANCH   8  22
ATOM     22  C   UNL d   1      27.351 -17.235   0.522  0.00  0.00     0.085 C 
BRANCH  22  23
ATOM     23  C   UNL d   1      26.603 -17.547  -0.789  0.00  0.00     0.046 C 
BRANCH  23  24
ATOM     24  C   UNL d   1      25.103 -17.496  -0.614  0.00  0.00    -0.058 A 
ATOM     25  C   UNL d   1      24.400 -18.620  -0.163  0.00  0.00     0.007 A 
ATOM     26  C   UNL d   1      23.003 -18.619  -0.152  0.00  0.00     0.001 A 
ATOM     27  C   UNL d   1      22.302 -17.465  -0.495  0.00  0.00     0.000 A 
ATOM     28  C   UNL d   1      22.995 -16.324  -0.895  0.00  0.00     0.001 A 
ATOM     29  C   UNL d   1      24.389 -16.341  -0.960  0.00  0.00     0.007 A 
ENDBRANCH  23  24
ENDBRANCH  22  23
ENDBRANCH   8  22
BRANCH   6  30
ATOM     30  C   UNL d   1      28.277 -13.785   3.854  0.00  0.00     0.270 C 
ATOM     31  N   UNL d   1      28.838 -14.773   4.629  0.00  0.00    -0.365 N 
ATOM     32  H   UNL d   1      29.003 -15.718   4.356  0.00  0.00     0.159 HD
ATOM     33  H   UNL d   1      29.107 -14.532   5.575  0.00  0.00     0.159 HD
ATOM     34  O   UNL d   1      28.135 -12.674   4.358  0.00  0.00    -0.266 OA
ENDBRANCH   6  30
TORSDOF 7
ENDMDL
MODEL 3
REMARK VINA RESULT:    -7.736      5.181      8.186
REMARK INTER + INTRA:         -11.320
REMARK INTER:                  -9.825
REMARK INTRA:                  -1.496
REMARK CONF_INDEPENDENT:        2.088
REMARK UNBOUND:                -1.496
REMARK  7 active torsions:
REMARK  status: ('A' for Active; 'I' for Inactive)
REMARK    1  A    between atoms: O_2  and  C_3 
REMARK    2  A    between atoms: C_6  and  N_7 
REMARK    3  A    between atoms: C_12  and  C_13 
REMARK       I    between atoms: C_13  and  N_14 
REMARK    4  A    between atoms: C_17  and  C_18 
REMARK    5  A    between atoms: C_18  and  C_19 
REMARK    6  A    between atoms: C_19  and  C_20 
REMARK    7  A    between atoms: C_29  and  O_30 
ROOT
ATOM      1  N   UNL d   1      29.595 -15.481  -6.423  0.00  0.00    -0.246 N 
ATOM      2  C   UNL d   1      30.182 -14.468  -7.189  0.00  0.00     0.333 A 
ATOM      3  O   UNL d   1      31.188 -14.487  -7.897  0.00  0.00    -0.246 OA
ATOM      4  N   UNL d   1      29.386 -13.342  -7.064  0.00  0.00    -0.303 N 
ATOM      5  C   UNL d   1      28.314 -13.639  -6.225  0.00  0.00     0.118 A 
ATOM      6  C   UNL d   1      27.278 -12.898  -5.728  0.00  0.00     0.156 A 
ATOM      7  N   UNL d   1      26.384 -13.473  -4.881  0.00  0.00    -0.226 NA
ATOM      8  C   UNL d   1      26.542 -14.780  -4.546  0.00  0.00     0.129 A 
ATOM      9  N   UNL d   1      27.543 -15.575  -5.004  0.00  0.00    -0.213 NA
ATOM     10  C   UNL d   1      28.404 -14.975  -5.839  0.00  0.00     0.170 A 
ATOM     11  H   UNL d   1      29.651 -12.513  -7.554  0.00  0.00     0.171 HD
ENDROOT
BRANCH   1  12
ATOM     12  C   UNL d   1      30.134 -16.772  -6.313  0.00  0.00     0.048 A 
ATOM     13  C   UNL d   1      30.185 -17.398  -5.065  0.00  0.00     0.033 A 
ATOM     14  C   UNL d   1      30.891 -18.604  -4.887  0.00  0.00     0.042 A 
ATOM     15  C   UNL d   1      31.558 -19.238  -5.953  0.00  0.00     0.101 A 
ATOM     16  C   UNL d   1      31.499 -18.603  -7.217  0.00  0.00     0.103 A 
ATOM     17  C   UNL d   1      30.792 -17.381  -7.373  0.00  0.00     0.069 A 
BRANCH  15  18
ATOM     18  O   UNL d   1      31.961 -20.521  -5.638  0.00  0.00    -0.353 OA
ATOM     19  C   UNL d   1      31.164 -21.390  -4.832  0.00  0.00     0.210 C 
ENDBRANCH  15  18
BRANCH  16  20
ATOM     20  O   UNL d   1      31.997 -18.974  -8.445  0.00  0.00    -0.353 OA
ATOM     21  C   UNL d   1      31.123 -19.709  -9.251  0.00  0.00     0.210 C 
ENDBRANCH  16  20
ENDBRANCH   1  12
BRANCH   8  22
ATOM     22  C   UNL d   1      25.530 -15.392  -3.593  0.00  0.00     0.085 C 
BRANCH  22  23
ATOM     23  C   UNL d   1      25.895 -15.230  -2.105  0.00  0.00     0.046 C 
BRANCH  23  24
ATOM     24  C   UNL d   1      25.237 -16.280  -1.240  0.00  0.00    -0.058 A 
ATOM     25  C   UNL d   1      26.012 -17.134  -0.444  0.00  0.00     0.007 A 
ATOM     26  C   UNL d   1      25.415 -18.200   0.232  0.00  0.00     0.001 A 
ATOM     27  C   UNL d   1      24.031 -18.363   0.198  0.00  0.00     0.000 A 
ATOM     28  C   UNL d   1      23.247 -17.486  -0.549  0.00  0.00     0.001 A 
ATOM     29  C   UNL d   1      23.847 -16.453  -1.270  0.00  0.00     0.007 A 
ENDBRANCH  23  24
ENDBRANCH  22  23
ENDBRANCH   8  22
BRANCH   6  30
ATOM     30  C   UNL d   1      27.040 -11.439  -6.034  0.00  0.00     0.270 C 
ATOM     31  N   UNL d   1      25.893 -10.823  -5.591  0.00  0.00    -0.365 N 
ATOM     32  H   UNL d   1      25.155 -11.248  -5.072  0.00  0.00     0.159 HD
ATOM     33  H   UNL d   1      25.771  -9.843  -5.814  0.00  0.00     0.159 HD
ATOM     34  O   UNL d   1      27.842 -10.763  -6.674  0.00  0.00    -0.266 OA
ENDBRANCH   6  30
TORSDOF 7
ENDMDL
MODEL 4
REMARK VINA RESULT:    -7.726      3.178      6.598
REMARK INTER + INTRA:         -11.360
REMARK INTER:                  -9.815
REMARK INTRA:                  -1.545
REMARK CONF_INDEPENDENT:        2.088
REMARK UNBOUND:                -1.545
REMARK  7 active torsions:
REMARK  status: ('A' for Active; 'I' for Inactive)
REMARK    1  A    between atoms: O_2  and  C_3 
REMARK    2  A    between atoms: C_6  and  N_7 
REMARK    3  A    between atoms: C_12  and  C_13 
REMARK       I    between atoms: C_13  and  N_14 
REMARK    4  A    between atoms: C_17  and  C_18 
REMARK    5  A    between atoms: C_18  and  C_19 
REMARK    6  A    between atoms: C_19  and  C_20 
REMARK    7  A    between atoms: C_29  and  O_30 
ROOT
ATOM      1  N   UNL d   1      26.952 -10.447   2.307  0.00  0.00    -0.246 N 
ATOM      2  C   UNL d   1      27.089  -9.970   3.616  0.00  0.00     0.333 A 
ATOM      3  O   UNL d   1      26.942  -8.835   4.068  0.00  0.00    -0.246 OA
ATOM      4  N   UNL d   1      27.406 -11.052   4.419  0.00  0.00    -0.303 N 
ATOM      5  C   UNL d   1      27.474 -12.196   3.627  0.00  0.00     0.118 A 
ATOM      6  C   UNL d   1      27.795 -13.499   3.887  0.00  0.00     0.156 A 
ATOM      7  N   UNL d   1      27.808 -14.405   2.874  0.00  0.00    -0.226 NA
ATOM      8  C   UNL d   1      27.500 -13.992   1.618  0.00  0.00     0.129 A 
ATOM      9  N   UNL d   1      27.169 -12.716   1.288  0.00  0.00    -0.213 NA
ATOM     10  C   UNL d   1      27.164 -11.851   2.313  0.00  0.00     0.170 A 
ATOM     11  H   UNL d   1      27.536 -10.898   5.397  0.00  0.00     0.171 HD
ENDROOT
BRANCH   1  12
ATOM     12  C   UNL d   1      26.633  -9.624   1.217  0.00  0.00     0.048 A 
ATOM     13  C   UNL d   1      27.275  -9.815  -0.009  0.00  0.00     0.033 A 
ATOM     14  C   UNL d   1      27.122  -8.890  -1.060  0.00  0.00     0.042 A 
ATOM     15  C   UNL d   1      26.309  -7.747  -0.931  0.00  0.00     0.101 A 
ATOM     16  C   UNL d   1      25.656  -7.559   0.311  0.00  0.00     0.103 A 
ATOM     17  C   UNL d   1      25.832  -8.498   1.363  0.00  0.00     0.069 A 
BRANCH  15  18
ATOM     18  O   UNL d   1      26.086  -7.116  -2.139  0.00  0.00    -0.353 OA
ATOM     19  C   UNL d   1      25.940  -7.844  -3.359  0.00  0.00     0.210 C 
ENDBRANCH  15  18
BRANCH  16  20
ATOM     20  O   UNL d   1      24.777  -6.590   0.740  0.00  0.00    -0.353 OA
ATOM     21  C   UNL d   1      25.028  -5.299   0.267  0.00  0.00     0.210 C 
ENDBRANCH  16  20
ENDBRANCH   1  12
BRANCH   8  22
ATOM     22  C   UNL d   1      27.528 -15.026   0.506  0.00  0.00     0.085 C 
BRANCH  22  23
ATOM     23  C   UNL d   1      26.315 -14.960  -0.441  0.00  0.00     0.046 C 
BRANCH  23  24
ATOM     24  C   UNL d   1      25.535 -16.254  -0.458  0.00  0.00    -0.058 A 
ATOM     25  C   UNL d   1      24.255 -16.307  -1.025  0.00  0.00     0.007 A 
ATOM     26  C   UNL d   1      23.477 -17.460  -0.901  0.00  0.00     0.001 A 
ATOM     27  C   UNL d   1      24.007 -18.599  -0.300  0.00  0.00     0.000 A 
ATOM     28  C   UNL d   1      25.300 -18.574   0.220  0.00  0.00     0.001 A 
ATOM     29  C   UNL d   1      26.058 -17.405   0.147  0.00  0.00     0.007 A 
ENDBRANCH  23  24
ENDBRANCH  22  23
ENDBRANCH   8  22
BRANCH   6  30
ATOM     30  C   UNL d   1      28.167 -14.038   5.248  0.00  0.00     0.270 C 
ATOM     31  N   UNL d   1      28.690 -15.305   5.364  0.00  0.00    -0.365 N 
ATOM     32  H   UNL d   1      28.854 -15.949   4.621  0.00  0.00     0.159 HD
ATOM     33  H   UNL d   1      28.930 -15.629   6.293  0.00  0.00     0.159 HD
ATOM     34  O   UNL d   1      28.021 -13.382   6.276  0.00  0.00    -0.266 OA
ENDBRANCH   6  30
TORSDOF 7
ENDMDL
MODEL 5
REMARK VINA RESULT:    -7.665      5.033      7.564
REMARK INTER + INTRA:         -11.295
REMARK INTER:                  -9.753
REMARK INTRA:                  -1.542
REMARK CONF_INDEPENDENT:        2.088
REMARK UNBOUND:                -1.542
REMARK  7 active torsions:
REMARK  status: ('A' for Active; 'I' for Inactive)
REMARK    1  A    between atoms: O_2  and  C_3 
REMARK    2  A    between atoms: C_6  and  N_7 
REMARK    3  A    between atoms: C_12  and  C_13 
REMARK       I    between atoms: C_13  and  N_14 
REMARK    4  A    between atoms: C_17  and  C_18 
REMARK    5  A    between atoms: C_18  and  C_19 
REMARK    6  A    between atoms: C_19  and  C_20 
REMARK    7  A    between atoms: C_29  and  O_30 
ROOT
ATOM      1  N   UNL d   1      26.431 -14.495  -3.834  0.00  0.00    -0.246 N 
ATOM      2  C   UNL d   1      25.717 -13.326  -4.122  0.00  0.00     0.333 A 
ATOM      3  O   UNL d   1      24.778 -12.800  -3.526  0.00  0.00    -0.246 OA
ATOM      4  N   UNL d   1      26.282 -12.766  -5.255  0.00  0.00    -0.303 N 
ATOM      5  C   UNL d   1      27.336 -13.573  -5.678  0.00  0.00     0.118 A 
ATOM      6  C   UNL d   1      28.185 -13.522  -6.749  0.00  0.00     0.156 A 
ATOM      7  N   UNL d   1      29.114 -14.499  -6.919  0.00  0.00    -0.226 NA
ATOM      8  C   UNL d   1      29.179 -15.510  -6.015  0.00  0.00     0.129 A 
ATOM      9  N   UNL d   1      28.372 -15.621  -4.928  0.00  0.00    -0.213 NA
ATOM     10  C   UNL d   1      27.469 -14.639  -4.791  0.00  0.00     0.170 A 
ATOM     11  H   UNL d   1      25.901 -11.913  -5.606  0.00  0.00     0.171 HD
ENDROOT
BRANCH   1  12
ATOM     12  C   UNL d   1      26.133 -15.329  -2.746  0.00  0.00     0.048 A 
ATOM     13  C   UNL d   1      27.151 -16.073  -2.143  0.00  0.00     0.033 A 
ATOM     14  C   UNL d   1      26.856 -17.060  -1.183  0.00  0.00     0.042 A 
ATOM     15  C   UNL d   1      25.535 -17.332  -0.778  0.00  0.00     0.101 A 
ATOM     16  C   UNL d   1      24.506 -16.573  -1.388  0.00  0.00     0.103 A 
ATOM     17  C   UNL d   1      24.824 -15.589  -2.362  0.00  0.00     0.069 A 
BRANCH  15  18
ATOM     18  O   UNL d   1      25.479 -18.136   0.343  0.00  0.00    -0.353 OA
ATOM     19  C   UNL d   1      26.656 -18.577   1.020  0.00  0.00     0.210 C 
ENDBRANCH  15  18
BRANCH  16  20
ATOM     20  O   UNL d   1      23.145 -16.561  -1.189  0.00  0.00    -0.353 OA
ATOM     21  C   UNL d   1      22.624 -17.675  -0.525  0.00  0.00     0.210 C 
ENDBRANCH  16  20
ENDBRANCH   1  12
BRANCH   8  22
ATOM     22  C   UNL d   1      30.225 -16.589  -6.235  0.00  0.00     0.085 C 
BRANCH  22  23
ATOM     23  C   UNL d   1      30.162 -17.738  -5.211  0.00  0.00     0.046 C 
BRANCH  23  24
ATOM     24  C   UNL d   1      30.600 -19.056  -5.806  0.00  0.00    -0.058 A 
ATOM     25  C   UNL d   1      30.961 -20.127  -4.977  0.00  0.00     0.007 A 
ATOM     26  C   UNL d   1      31.512 -21.287  -5.526  0.00  0.00     0.001 A 
ATOM     27  C   UNL d   1      31.615 -21.425  -6.909  0.00  0.00     0.000 A 
ATOM     28  C   UNL d   1      31.210 -20.386  -7.744  0.00  0.00     0.001 A 
ATOM     29  C   UNL d   1      30.710 -19.204  -7.195  0.00  0.00     0.007 A 
ENDBRANCH  23  24
ENDBRANCH  22  23
ENDBRANCH   8  22
BRANCH   6  30
ATOM     30  C   UNL d   1      28.169 -12.447  -7.809  0.00  0.00     0.270 C 
ATOM     31  N   UNL d   1      28.959 -12.574  -8.927  0.00  0.00    -0.365 N 
ATOM     32  H   UNL d   1      29.582 -13.325  -9.130  0.00  0.00     0.159 HD
ATOM     33  H   UNL d   1      28.919 -11.833  -9.617  0.00  0.00     0.159 HD
ATOM     34  O   UNL d   1      27.467 -11.443  -7.715  0.00  0.00    -0.266 OA
ENDBRANCH   6  30
TORSDOF 7
ENDMDL
MODEL 6
REMARK VINA RESULT:    -7.636      4.957      7.626
REMARK INTER + INTRA:         -11.324
REMARK INTER:                  -9.724
REMARK INTRA:                  -1.600
REMARK CONF_INDEPENDENT:        2.088
REMARK UNBOUND:                -1.600
REMARK  7 active torsions:
REMARK  status: ('A' for Active; 'I' for Inactive)
REMARK    1  A    between atoms: O_2  and  C_3 
REMARK    2  A    between atoms: C_6  and  N_7 
REMARK    3  A    between atoms: C_12  and  C_13 
REMARK       I    between atoms: C_13  and  N_14 
REMARK    4  A    between atoms: C_17  and  C_18 
REMARK    5  A    between atoms: C_18  and  C_19 
REMARK    6  A    between atoms: C_19  and  C_20 
REMARK    7  A    between atoms: C_29  and  O_30 
ROOT
ATOM      1  N   UNL d   1      29.698 -15.335  -6.344  0.00  0.00    -0.246 N 
ATOM      2  C   UNL d   1      30.235 -14.286  -7.100  0.00  0.00     0.333 A 
ATOM      3  O   UNL d   1      31.266 -14.234  -7.768  0.00  0.00    -0.246 OA
ATOM      4  N   UNL d   1      29.350 -13.224  -7.018  0.00  0.00    -0.303 N 
ATOM      5  C   UNL d   1      28.272 -13.596  -6.218  0.00  0.00     0.118 A 
ATOM      6  C   UNL d   1      27.163 -12.934  -5.770  0.00  0.00     0.156 A 
ATOM      7  N   UNL d   1      26.284 -13.568  -4.951  0.00  0.00    -0.226 NA
ATOM      8  C   UNL d   1      26.528 -14.856  -4.594  0.00  0.00     0.129 A 
ATOM      9  N   UNL d   1      27.605 -15.575  -5.004  0.00  0.00    -0.213 NA
ATOM     10  C   UNL d   1      28.450 -14.917  -5.812  0.00  0.00     0.170 A 
ATOM     11  H   UNL d   1      29.570 -12.382  -7.507  0.00  0.00     0.171 HD
ENDROOT
BRANCH   1  12
ATOM     12  C   UNL d   1      30.329 -16.579  -6.198  0.00  0.00     0.048 A 
ATOM     13  C   UNL d   1      30.780 -17.266  -7.328  0.00  0.00     0.033 A 
ATOM     14  C   UNL d   1      31.238 -18.595  -7.235  0.00  0.00     0.042 A 
ATOM     15  C   UNL d   1      31.280 -19.282  -6.005  0.00  0.00     0.101 A 
ATOM     16  C   UNL d   1      30.827 -18.580  -4.861  0.00  0.00     0.103 A 
ATOM     17  C   UNL d   1      30.358 -17.245  -4.979  0.00  0.00     0.069 A 
BRANCH  15  18
ATOM     18  O   UNL d   1      31.995 -20.460  -6.081  0.00  0.00    -0.353 OA
ATOM     19  C   UNL d   1      32.003 -21.412  -5.016  0.00  0.00     0.210 C 
ENDBRANCH  15  18
BRANCH  16  20
ATOM     20  O   UNL d   1      30.779 -18.941  -3.534  0.00  0.00    -0.353 OA
ATOM     21  C   UNL d   1      30.844 -17.885  -2.621  0.00  0.00     0.210 C 
ENDBRANCH  16  20
ENDBRANCH   1  12
BRANCH   8  22
ATOM     22  C   UNL d   1      25.530 -15.536  -3.674  0.00  0.00     0.085 C 
BRANCH  22  23
ATOM     23  C   UNL d   1      25.881 -15.422  -2.178  0.00  0.00     0.046 C 
BRANCH  23  24
ATOM     24  C   UNL d   1      25.109 -16.410  -1.335  0.00  0.00    -0.058 A 
ATOM     25  C   UNL d   1      25.773 -17.444  -0.662  0.00  0.00     0.007 A 
ATOM     26  C   UNL d   1      25.045 -18.443  -0.013  0.00  0.00     0.001 A 
ATOM     27  C   UNL d   1      23.656 -18.366   0.052  0.00  0.00     0.000 A 
ATOM     28  C   UNL d   1      22.988 -17.313  -0.571  0.00  0.00     0.001 A 
ATOM     29  C   UNL d   1      23.711 -16.342  -1.266  0.00  0.00     0.007 A 
ENDBRANCH  23  24
ENDBRANCH  22  23
ENDBRANCH   8  22
BRANCH   6  30
ATOM     30  C   UNL d   1      26.826 -11.500  -6.102  0.00  0.00     0.270 C 
ATOM     31  N   UNL d   1      25.631 -10.962  -5.686  0.00  0.00    -0.365 N 
ATOM     32  H   UNL d   1      24.917 -11.432  -5.172  0.00  0.00     0.159 HD
ATOM     33  H   UNL d   1      25.442  -9.996  -5.925  0.00  0.00     0.159 HD
ATOM     34  O   UNL d   1      27.587 -10.777  -6.740  0.00  0.00    -0.266 OA
ENDBRANCH   6  30
TORSDOF 7
ENDMDL
MODEL 7
REMARK VINA RESULT:    -7.626      4.289      6.793
REMARK INTER + INTRA:         -11.539
REMARK INTER:                  -9.714
REMARK INTRA:                  -1.825
REMARK CONF_INDEPENDENT:        2.088
REMARK UNBOUND:                -1.825
REMARK  7 active torsions:
REMARK  status: ('A' for Active; 'I' for Inactive)
REMARK    1  A    between atoms: O_2  and  C_3 
REMARK    2  A    between atoms: C_6  and  N_7 
REMARK    3  A    between atoms: C_12  and  C_13 
REMARK       I    between atoms: C_13  and  N_14 
REMARK    4  A    between atoms: C_17  and  C_18 
REMARK    5  A    between atoms: C_18  and  C_19 
REMARK    6  A    between atoms: C_19  and  C_20 
REMARK    7  A    between atoms: C_29  and  O_30 
ROOT
ATOM      1  N   UNL d   1      28.871 -15.556  -4.199  0.00  0.00    -0.246 N 
ATOM      2  C   UNL d   1      29.976 -16.019  -4.924  0.00  0.00     0.333 A 
ATOM      3  O   UNL d   1      30.386 -15.699  -6.038  0.00  0.00    -0.246 OA
ATOM      4  N   UNL d   1      30.629 -16.948  -4.133  0.00  0.00    -0.303 N 
ATOM      5  C   UNL d   1      29.944 -17.073  -2.926  0.00  0.00     0.118 A 
ATOM      6  C   UNL d   1      30.116 -17.869  -1.828  0.00  0.00     0.156 A 
ATOM      7  N   UNL d   1      29.240 -17.787  -0.792  0.00  0.00    -0.226 NA
ATOM      8  C   UNL d   1      28.208 -16.908  -0.872  0.00  0.00     0.129 A 
ATOM      9  N   UNL d   1      27.978 -16.086  -1.928  0.00  0.00    -0.213 NA
ATOM     10  C   UNL d   1      28.864 -16.193  -2.931  0.00  0.00     0.170 A 
ATOM     11  H   UNL d   1      31.454 -17.382  -4.490  0.00  0.00     0.171 HD
ENDROOT
BRANCH   1  12
ATOM     12  C   UNL d   1      27.972 -14.600  -4.694  0.00  0.00     0.048 A 
ATOM     13  C   UNL d   1      28.454 -13.488  -5.391  0.00  0.00     0.033 A 
ATOM     14  C   UNL d   1      27.603 -12.419  -5.728  0.00  0.00     0.042 A 
ATOM     15  C   UNL d   1      26.234 -12.426  -5.397  0.00  0.00     0.101 A 
ATOM     16  C   UNL d   1      25.748 -13.556  -4.696  0.00  0.00     0.103 A 
ATOM     17  C   UNL d   1      26.625 -14.619  -4.354  0.00  0.00     0.069 A 
BRANCH  15  18
ATOM     18  O   UNL d   1      25.529 -11.425  -6.036  0.00  0.00    -0.353 OA
ATOM     19  C   UNL d   1      25.685 -10.048  -5.690  0.00  0.00     0.210 C 
ENDBRANCH  15  18
BRANCH  16  20
ATOM     20  O   UNL d   1      24.481 -13.887  -4.271  0.00  0.00    -0.353 OA
ATOM     21  C   UNL d   1      24.403 -14.448  -2.993  0.00  0.00     0.210 C 
ENDBRANCH  16  20
ENDBRANCH   1  12
BRANCH   8  22
ATOM     22  C   UNL d   1      27.243 -16.843   0.299  0.00  0.00     0.085 C 
BRANCH  22  23
ATOM     23  C   UNL d   1      26.362 -18.097   0.454  0.00  0.00     0.046 C 
BRANCH  23  24
ATOM     24  C   UNL d   1      24.965 -17.882  -0.079  0.00  0.00    -0.058 A 
ATOM     25  C   UNL d   1      24.536 -16.602  -0.456  0.00  0.00     0.007 A 
ATOM     26  C   UNL d   1      23.201 -16.380  -0.800  0.00  0.00     0.001 A 
ATOM     27  C   UNL d   1      22.309 -17.449  -0.865  0.00  0.00     0.000 A 
ATOM     28  C   UNL d   1      22.740 -18.734  -0.544  0.00  0.00     0.001 A 
ATOM     29  C   UNL d   1      24.060 -18.949  -0.146  0.00  0.00     0.007 A 
ENDBRANCH  23  24
ENDBRANCH  22  23
ENDBRANCH   8  22
BRANCH   6  30
ATOM     30  C   UNL d   1      31.223 -18.883  -1.665  0.00  0.00     0.270 C 
ATOM     31  N   UNL d   1      31.304 -19.632  -0.515  0.00  0.00    -0.365 N 
ATOM     32  H   UNL d   1      30.693 -19.578   0.271  0.00  0.00     0.159 HD
ATOM     33  H   UNL d   1      32.059 -20.304  -0.445  0.00  0.00     0.159 HD
ATOM     34  O   UNL d   1      32.072 -19.072  -2.533  0.00  0.00    -0.266 OA
ENDBRANCH   6  30
TORSDOF 7
ENDMDL
MODEL 8
REMARK VINA RESULT:    -7.620      4.784      7.595
REMARK INTER + INTRA:         -11.162
REMARK INTER:                  -9.708
REMARK INTRA:                  -1.454
REMARK CONF_INDEPENDENT:        2.088
REMARK UNBOUND:                -1.454
REMARK  7 active torsions:
REMARK  status: ('A' for Active; 'I' for Inactive)
REMARK    1  A    between atoms: O_2  and  C_3 
REMARK    2  A    between atoms: C_6  and  N_7 
REMARK    3  A    between atoms: C_12  and  C_13 
REMARK       I    between atoms: C_13  and  N_14 
REMARK    4  A    between atoms: C_17  and  C_18 
REMARK    5  A    between atoms: C_18  and  C_19 
REMARK    6  A    between atoms: C_19  and  C_20 
REMARK    7  A    between atoms: C_29  and  O_30 
ROOT
ATOM      1  N   UNL d   1      25.930 -15.177  -3.445  0.00  0.00    -0.246 N 
ATOM      2  C   UNL d   1      25.169 -14.187  -4.077  0.00  0.00     0.333 A 
ATOM      3  O   UNL d   1      24.009 -13.828  -3.878  0.00  0.00    -0.246 OA
ATOM      4  N   UNL d   1      25.979 -13.583  -5.023  0.00  0.00    -0.303 N 
ATOM      5  C   UNL d   1      27.234 -14.187  -4.992  0.00  0.00     0.118 A 
ATOM      6  C   UNL d   1      28.373 -14.023  -5.731  0.00  0.00     0.156 A 
ATOM      7  N   UNL d   1      29.456 -14.804  -5.482  0.00  0.00    -0.226 NA
ATOM      8  C   UNL d   1      29.383 -15.737  -4.497  0.00  0.00     0.129 A 
ATOM      9  N   UNL d   1      28.288 -15.951  -3.723  0.00  0.00    -0.213 NA
ATOM     10  C   UNL d   1      27.239 -15.160  -3.995  0.00  0.00     0.170 A 
ATOM     11  H   UNL d   1      25.599 -12.841  -5.572  0.00  0.00     0.171 HD
ENDROOT
BRANCH   1  12
ATOM     12  C   UNL d   1      25.430 -15.999  -2.425  0.00  0.00     0.048 A 
ATOM     13  C   UNL d   1      24.098 -15.870  -2.020  0.00  0.00     0.033 A 
ATOM     14  C   UNL d   1      23.621 -16.538  -0.876  0.00  0.00     0.042 A 
ATOM     15  C   UNL d   1      24.450 -17.373  -0.102  0.00  0.00     0.101 A 
ATOM     16  C   UNL d   1      25.797 -17.505  -0.518  0.00  0.00     0.103 A 
ATOM     17  C   UNL d   1      26.263 -16.814  -1.669  0.00  0.00     0.069 A 
BRANCH  15  18
ATOM     18  O   UNL d   1      23.740 -18.129   0.809  0.00  0.00    -0.353 OA
ATOM     19  C   UNL d   1      22.408 -18.575   0.549  0.00  0.00     0.210 C 
ENDBRANCH  15  18
BRANCH  16  20
ATOM     20  O   UNL d   1      26.834 -18.260  -0.019  0.00  0.00    -0.353 OA
ATOM     21  C   UNL d   1      28.106 -17.697  -0.149  0.00  0.00     0.210 C 
ENDBRANCH  16  20
ENDBRANCH   1  12
BRANCH   8  22
ATOM     22  C   UNL d   1      30.608 -16.598  -4.247  0.00  0.00     0.085 C 
BRANCH  22  23
ATOM     23  C   UNL d   1      30.347 -18.110  -4.382  0.00  0.00     0.046 C 
BRANCH  23  24
ATOM     24  C   UNL d   1      30.700 -18.629  -5.757  0.00  0.00    -0.058 A 
ATOM     25  C   UNL d   1      31.120 -17.749  -6.764  0.00  0.00     0.007 A 
ATOM     26  C   UNL d   1      31.295 -18.207  -8.071  0.00  0.00     0.001 A 
ATOM     27  C   UNL d   1      31.148 -19.562  -8.362  0.00  0.00     0.000 A 
ATOM     28  C   UNL d   1      30.781 -20.454  -7.356  0.00  0.00     0.001 A 
ATOM     29  C   UNL d   1      30.552 -19.988  -6.061  0.00  0.00     0.007 A 
ENDBRANCH  23  24
ENDBRANCH  22  23
ENDBRANCH   8  22
BRANCH   6  30
ATOM     30  C   UNL d   1      28.533 -13.025  -6.853  0.00  0.00     0.270 C 
ATOM     31  N   UNL d   1      29.304 -13.342  -7.947  0.00  0.00    -0.365 N 
ATOM     32  H   UNL d   1      29.804 -14.192  -8.094  0.00  0.00     0.159 HD
ATOM     33  H   UNL d   1      29.385 -12.648  -8.681  0.00  0.00     0.159 HD
ATOM     34  O   UNL d   1      27.996 -11.921  -6.832  0.00  0.00    -0.266 OA
ENDBRANCH   6  30
TORSDOF 7
ENDMDL
MODEL 9
REMARK VINA RESULT:    -7.584      2.391      7.227
REMARK INTER + INTRA:         -11.271
REMARK INTER:                  -9.672
REMARK INTRA:                  -1.599
REMARK CONF_INDEPENDENT:        2.088
REMARK UNBOUND:                -1.599
REMARK  7 active torsions:
REMARK  status: ('A' for Active; 'I' for Inactive)
REMARK    1  A    between atoms: O_2  and  C_3 
REMARK    2  A    between atoms: C_6  and  N_7 
REMARK    3  A    between atoms: C_12  and  C_13 
REMARK       I    between atoms: C_13  and  N_14 
REMARK    4  A    between atoms: C_17  and  C_18 
REMARK    5  A    between atoms: C_18  and  C_19 
REMARK    6  A    between atoms: C_19  and  C_20 
REMARK    7  A    between atoms: C_29  and  O_30 
ROOT
ATOM      1  N   UNL d   1      25.587 -14.625  -1.980  0.00  0.00    -0.246 N 
ATOM      2  C   UNL d   1      25.505 -14.214  -3.315  0.00  0.00     0.333 A 
ATOM      3  O   UNL d   1      24.927 -14.727  -4.271  0.00  0.00    -0.246 OA
ATOM      4  N   UNL d   1      26.198 -13.020  -3.422  0.00  0.00    -0.303 N 
ATOM      5  C   UNL d   1      26.714 -12.684  -2.173  0.00  0.00     0.118 A 
ATOM      6  C   UNL d   1      27.504 -11.661  -1.728  0.00  0.00     0.156 A 
ATOM      7  N   UNL d   1      27.882 -11.620  -0.423  0.00  0.00    -0.226 NA
ATOM      8  C   UNL d   1      27.463 -12.604   0.415  0.00  0.00     0.129 A 
ATOM      9  N   UNL d   1      26.675 -13.646   0.043  0.00  0.00    -0.213 NA
ATOM     10  C   UNL d   1      26.320 -13.652  -1.251  0.00  0.00     0.170 A 
ATOM     11  H   UNL d   1      26.240 -12.572  -4.314  0.00  0.00     0.171 HD
ENDROOT
BRANCH   1  12
ATOM     12  C   UNL d   1      24.997 -15.804  -1.500  0.00  0.00     0.048 A 
ATOM     13  C   UNL d   1      23.608 -15.952  -1.540  0.00  0.00     0.033 A 
ATOM     14  C   UNL d   1      22.975 -17.031  -0.894  0.00  0.00     0.042 A 
ATOM     15  C   UNL d   1      23.706 -18.013  -0.197  0.00  0.00     0.101 A 
ATOM     16  C   UNL d   1      25.114 -17.863  -0.163  0.00  0.00     0.103 A 
ATOM     17  C   UNL d   1      25.733 -16.761  -0.812  0.00  0.00     0.069 A 
BRANCH  15  18
ATOM     18  O   UNL d   1      22.937 -19.110   0.136  0.00  0.00    -0.353 OA
ATOM     19  C   UNL d   1      21.581 -19.244  -0.293  0.00  0.00     0.210 C 
ENDBRANCH  15  18
BRANCH  16  20
ATOM     20  O   UNL d   1      26.099 -18.652   0.383  0.00  0.00    -0.353 OA
ATOM     21  C   UNL d   1      27.405 -18.177   0.230  0.00  0.00     0.210 C 
ENDBRANCH  16  20
ENDBRANCH   1  12
BRANCH   8  22
ATOM     22  C   UNL d   1      27.907 -12.533   1.865  0.00  0.00     0.085 C 
BRANCH  22  23
ATOM     23  C   UNL d   1      27.020 -13.342   2.830  0.00  0.00     0.046 C 
BRANCH  23  24
ATOM     24  C   UNL d   1      27.646 -13.481   4.198  0.00  0.00    -0.058 A 
ATOM     25  C   UNL d   1      27.781 -12.367   5.037  0.00  0.00     0.007 A 
ATOM     26  C   UNL d   1      28.497 -12.467   6.231  0.00  0.00     0.001 A 
ATOM     27  C   UNL d   1      28.999 -13.700   6.644  0.00  0.00     0.000 A 
ATOM     28  C   UNL d   1      28.825 -14.825   5.842  0.00  0.00     0.001 A 
ATOM     29  C   UNL d   1      28.157 -14.716   4.621  0.00  0.00     0.007 A 
ENDBRANCH  23  24
ENDBRANCH  22  23
ENDBRANCH   8  22
BRANCH   6  30
ATOM     30  C   UNL d   1      28.029 -10.541  -2.593  0.00  0.00     0.270 C 
ATOM     31  N   UNL d   1      28.862  -9.590  -2.054  0.00  0.00    -0.365 N 
ATOM     32  H   UNL d   1      29.171  -9.541  -1.107  0.00  0.00     0.159 HD
ATOM     33  H   UNL d   1      29.195  -8.855  -2.667  0.00  0.00     0.159 HD
ATOM     34  O   UNL d   1      27.738 -10.439  -3.783  0.00  0.00    -0.266 OA
ENDBRANCH   6  30
TORSDOF 7
ENDMDL
