MODEL 1
REMARK VINA RESULT:   -30.499      0.000      0.000
REMARK INTER + INTRA:         -32.133
REMARK INTER:                 -31.693
REMARK INTRA:                  -0.440
REMARK CONF_INDEPENDENT:        1.193
REMARK UNBOUND:                -0.440
REMARK  4 active torsions:
REMARK  status: ('A' for Active; 'I' for Inactive)
REMARK    1  A    between atoms: N_1  and  C_2 
REMARK    2  A    between atoms: C_6  and  N_7 
REMARK       I    between atoms: N_7  and  C_8 
REMARK    3  A    between atoms: C_8  and  C_10 
REMARK    4  A    between atoms: C_11  and  C_12 
ROOT
ATOM      1  N   UNL d   1      24.181 -16.909  -1.388  0.00  0.00    -0.324 N 
ATOM      2  C   UNL d   1      24.359 -17.716  -0.268  0.00  0.00     0.245 C 
ATOM      3  O   UNL d   1      25.422 -17.889   0.332  0.00  0.00    -0.268 OA
ATOM      4  H   UNL d   1      23.259 -16.849  -1.807  0.00  0.00     0.169 HD
ENDROOT
BRANCH   1   5
ATOM      5  C   UNL d   1      25.222 -16.136  -2.000  0.00  0.00     0.038 A 
ATOM      6  C   UNL d   1      26.568 -16.488  -1.869  0.00  0.00     0.056 A 
ATOM      7  C   UNL d   1      27.596 -15.750  -2.455  0.00  0.00     0.064 A 
ATOM      8  C   UNL d   1      27.333 -14.591  -3.186  0.00  0.00     0.070 A 
ATOM      9 CL   UNL d   1      29.219 -16.321  -2.232  0.00  0.00    -0.082 Cl
ATOM     10  C   UNL d   1      25.980 -14.238  -3.343  0.00  0.00     0.064 A 
ATOM     11  C   UNL d   1      24.932 -14.992  -2.758  0.00  0.00     0.056 A 
ATOM     12 CL   UNL d   1      25.568 -12.826  -4.265  0.00  0.00    -0.082 Cl
BRANCH   8  13
ATOM     13  N   UNL d   1      28.369 -13.910  -3.825  0.00  0.00    -0.396 N 
ATOM     14  H   UNL d   1      29.110 -13.516  -3.251  0.00  0.00     0.156 HD
ATOM     15  H   UNL d   1      28.230 -13.546  -4.760  0.00  0.00     0.156 HD
ENDBRANCH   8  13
ENDBRANCH   1   5
BRANCH   2  16
ATOM     16  C   UNL d   1      23.161 -18.441   0.231  0.00  0.00     0.076 C 
ATOM     17  C   UNL d   1      22.112 -18.590  -0.609  0.00  0.00     0.037 C 
BRANCH  17  18
ATOM     18  C   UNL d   1      20.854 -19.244  -0.243  0.00  0.00     0.056 A 
ATOM     19  C   UNL d   1      20.655 -19.721   1.047  0.00  0.00     0.031 A 
ATOM     20  C   UNL d   1      19.466 -20.376   1.348  0.00  0.00     0.004 A 
ATOM     21  C   UNL d   1      18.495 -20.508   0.366  0.00  0.00     0.019 A 
ATOM     22  C   UNL d   1      18.752 -19.958  -0.880  0.00  0.00     0.117 A 
ATOM     23  N   UNL d   1      19.905 -19.325  -1.204  0.00  0.00    -0.261 NA
ENDBRANCH  17  18
ENDBRANCH   2  16
TORSDOF 4
ENDMDL
MODEL 2
REMARK VINA RESULT:   -30.498      1.321      1.726
REMARK INTER + INTRA:         -32.178
REMARK INTER:                 -31.692
REMARK INTRA:                  -0.486
REMARK CONF_INDEPENDENT:        1.193
REMARK UNBOUND:                -0.486
REMARK  4 active torsions:
REMARK  status: ('A' for Active; 'I' for Inactive)
REMARK    1  A    between atoms: N_1  and  C_2 
REMARK    2  A    between atoms: C_6  and  N_7 
REMARK       I    between atoms: N_7  and  C_8 
REMARK    3  A    between atoms: C_8  and  C_10 
REMARK    4  A    between atoms: C_11  and  C_12 
ROOT
ATOM      1  N   UNL d   1      24.191 -16.960  -1.252  0.00  0.00    -0.324 N 
ATOM      2  C   UNL d   1      24.452 -18.097  -0.492  0.00  0.00     0.245 C 
ATOM      3  O   UNL d   1      25.560 -18.454  -0.088  0.00  0.00    -0.268 OA
ATOM      4  H   UNL d   1      23.237 -16.770  -1.537  0.00  0.00     0.169 HD
ENDROOT
BRANCH   1   5
ATOM      5  C   UNL d   1      25.190 -16.017  -1.661  0.00  0.00     0.038 A 
ATOM      6  C   UNL d   1      25.527 -15.845  -3.007  0.00  0.00     0.056 A 
ATOM      7  C   UNL d   1      26.496 -14.934  -3.428  0.00  0.00     0.064 A 
ATOM      8  C   UNL d   1      27.210 -14.161  -2.512  0.00  0.00     0.070 A 
ATOM      9 CL   UNL d   1      26.789 -14.808  -5.132  0.00  0.00    -0.082 Cl
ATOM     10  C   UNL d   1      26.865 -14.309  -1.156  0.00  0.00     0.064 A 
ATOM     11  C   UNL d   1      25.873 -15.225  -0.727  0.00  0.00     0.056 A 
ATOM     12 CL   UNL d   1      27.687 -13.358   0.042  0.00  0.00    -0.082 Cl
BRANCH   8  13
ATOM     13  N   UNL d   1      28.121 -13.203  -2.959  0.00  0.00    -0.396 N 
ATOM     14  H   UNL d   1      29.068 -13.506  -3.172  0.00  0.00     0.156 HD
ATOM     15  H   UNL d   1      27.953 -12.223  -2.771  0.00  0.00     0.156 HD
ENDBRANCH   8  13
ENDBRANCH   1   5
BRANCH   2  16
ATOM     16  C   UNL d   1      23.288 -18.959  -0.158  0.00  0.00     0.076 C 
ATOM     17  C   UNL d   1      22.050 -18.489  -0.430  0.00  0.00     0.037 C 
BRANCH  17  18
ATOM     18  C   UNL d   1      20.812 -19.208  -0.118  0.00  0.00     0.056 A 
ATOM     19  C   UNL d   1      20.589 -19.708   1.159  0.00  0.00     0.031 A 
ATOM     20  C   UNL d   1      19.423 -20.424   1.409  0.00  0.00     0.004 A 
ATOM     21  C   UNL d   1      18.497 -20.593   0.389  0.00  0.00     0.019 A 
ATOM     22  C   UNL d   1      18.773 -20.017  -0.840  0.00  0.00     0.117 A 
ATOM     23  N   UNL d   1      19.905 -19.325  -1.115  0.00  0.00    -0.261 NA
ENDBRANCH  17  18
ENDBRANCH   2  16
TORSDOF 4
ENDMDL
MODEL 3
REMARK VINA RESULT:   -30.497      1.306      1.316
REMARK INTER + INTRA:         -32.179
REMARK INTER:                 -31.690
REMARK INTRA:                  -0.489
REMARK CONF_INDEPENDENT:        1.193
REMARK UNBOUND:                -0.489
REMARK  4 active torsions:
REMARK  status: ('A' for Active; 'I' for Inactive)
REMARK    1  A    between atoms: N_1  and  C_2 
REMARK    2  A    between atoms: C_6  and  N_7 
REMARK       I    between atoms: N_7  and  C_8 
REMARK    3  A    between atoms: C_8  and  C_10 
REMARK    4  A    between atoms: C_11  and  C_12 
ROOT
ATOM      1  N   UNL d   1      24.209 -17.032  -1.389  0.00  0.00    -0.324 N 
ATOM      2  C   UNL d   1      24.420 -18.036  -0.447  0.00  0.00     0.245 C 
ATOM      3  O   UNL d   1      25.480 -18.259   0.141  0.00  0.00    -0.268 OA
ATOM      4  H   UNL d   1      23.294 -16.947  -1.817  0.00  0.00     0.169 HD
ENDROOT
BRANCH   1   5
ATOM      5  C   UNL d   1      25.207 -16.089  -1.800  0.00  0.00     0.038 A 
ATOM      6  C   UNL d   1      25.872 -15.277  -0.877  0.00  0.00     0.056 A 
ATOM      7  C   UNL d   1      26.845 -14.353  -1.255  0.00  0.00     0.064 A 
ATOM      8  C   UNL d   1      27.186 -14.166  -2.595  0.00  0.00     0.070 A 
ATOM      9 CL   UNL d   1      27.608 -13.433   0.002  0.00  0.00    -0.082 Cl
ATOM     10  C   UNL d   1      26.539 -14.991  -3.532  0.00  0.00     0.064 A 
ATOM     11  C   UNL d   1      25.558 -15.940  -3.150  0.00  0.00     0.056 A 
ATOM     12 CL   UNL d   1      26.931 -14.841  -5.217  0.00  0.00    -0.082 Cl
BRANCH   8  13
ATOM     13  N   UNL d   1      28.214 -13.289  -2.945  0.00  0.00    -0.396 N 
ATOM     14  H   UNL d   1      28.873 -13.010  -2.222  0.00  0.00     0.156 HD
ATOM     15  H   UNL d   1      28.123 -12.711  -3.771  0.00  0.00     0.156 HD
ENDBRANCH   8  13
ENDBRANCH   1   5
BRANCH   2  16
ATOM     16  C   UNL d   1      23.265 -18.920  -0.142  0.00  0.00     0.076 C 
ATOM     17  C   UNL d   1      22.023 -18.457  -0.404  0.00  0.00     0.037 C 
BRANCH  17  18
ATOM     18  C   UNL d   1      20.792 -19.198  -0.117  0.00  0.00     0.056 A 
ATOM     19  C   UNL d   1      20.556 -19.710   1.152  0.00  0.00     0.031 A 
ATOM     20  C   UNL d   1      19.399 -20.447   1.378  0.00  0.00     0.004 A 
ATOM     21  C   UNL d   1      18.494 -20.627   0.341  0.00  0.00     0.019 A 
ATOM     22  C   UNL d   1      18.781 -20.039  -0.880  0.00  0.00     0.117 A 
ATOM     23  N   UNL d   1      19.905 -19.325  -1.131  0.00  0.00    -0.261 NA
ENDBRANCH  17  18
ENDBRANCH   2  16
TORSDOF 4
ENDMDL
MODEL 4
REMARK VINA RESULT:   -30.206      1.280      2.384
REMARK INTER + INTRA:         -31.860
REMARK INTER:                 -31.399
REMARK INTRA:                  -0.461
REMARK CONF_INDEPENDENT:        1.193
REMARK UNBOUND:                -0.461
REMARK  4 active torsions:
REMARK  status: ('A' for Active; 'I' for Inactive)
REMARK    1  A    between atoms: N_1  and  C_2 
REMARK    2  A    between atoms: C_6  and  N_7 
REMARK       I    between atoms: N_7  and  C_8 
REMARK    3  A    between atoms: C_8  and  C_10 
REMARK    4  A    between atoms: C_11  and  C_12 
ROOT
ATOM      1  N   UNL d   1      25.075 -17.668  -0.727  0.00  0.00    -0.324 N 
ATOM      2  C   UNL d   1      23.813 -17.100  -0.570  0.00  0.00     0.245 C 
ATOM      3  O   UNL d   1      23.489 -15.960  -0.909  0.00  0.00    -0.268 OA
ATOM      4  H   UNL d   1      25.230 -18.615  -0.402  0.00  0.00     0.169 HD
ENDROOT
BRANCH   1   5
ATOM      5  C   UNL d   1      26.189 -17.000  -1.334  0.00  0.00     0.038 A 
ATOM      6  C   UNL d   1      26.039 -16.227  -2.488  0.00  0.00     0.056 A 
ATOM      7  C   UNL d   1      27.109 -15.570  -3.095  0.00  0.00     0.064 A 
ATOM      8  C   UNL d   1      28.406 -15.679  -2.593  0.00  0.00     0.070 A 
ATOM      9 CL   UNL d   1      26.771 -14.621  -4.507  0.00  0.00    -0.082 Cl
ATOM     10  C   UNL d   1      28.567 -16.438  -1.419  0.00  0.00     0.064 A 
ATOM     11  C   UNL d   1      27.479 -17.096  -0.794  0.00  0.00     0.056 A 
ATOM     12 CL   UNL d   1      30.145 -16.595  -0.713  0.00  0.00    -0.082 Cl
BRANCH   8  13
ATOM     13  N   UNL d   1      29.449 -14.954  -3.171  0.00  0.00    -0.396 N 
ATOM     14  H   UNL d   1      30.110 -15.453  -3.761  0.00  0.00     0.156 HD
ATOM     15  H   UNL d   1      29.726 -14.066  -2.772  0.00  0.00     0.156 HD
ENDBRANCH   8  13
ENDBRANCH   1   5
BRANCH   2  16
ATOM     16  C   UNL d   1      22.776 -17.946   0.079  0.00  0.00     0.076 C 
ATOM     17  C   UNL d   1      21.728 -18.355  -0.670  0.00  0.00     0.037 C 
BRANCH  17  18
ATOM     18  C   UNL d   1      20.614 -19.154  -0.156  0.00  0.00     0.056 A 
ATOM     19  C   UNL d   1      20.652 -19.674   1.132  0.00  0.00     0.031 A 
ATOM     20  C   UNL d   1      19.598 -20.466   1.572  0.00  0.00     0.004 A 
ATOM     21  C   UNL d   1      18.518 -20.691   0.729  0.00  0.00     0.019 A 
ATOM     22  C   UNL d   1      18.535 -20.092  -0.520  0.00  0.00     0.117 A 
ATOM     23  N   UNL d   1      19.553 -19.325  -0.979  0.00  0.00    -0.261 NA
ENDBRANCH  17  18
ENDBRANCH   2  16
TORSDOF 4
ENDMDL
MODEL 5
REMARK VINA RESULT:   -30.161      2.278      2.959
REMARK INTER + INTRA:         -31.819
REMARK INTER:                 -31.354
REMARK INTRA:                  -0.465
REMARK CONF_INDEPENDENT:        1.193
REMARK UNBOUND:                -0.465
REMARK  4 active torsions:
REMARK  status: ('A' for Active; 'I' for Inactive)
REMARK    1  A    between atoms: N_1  and  C_2 
REMARK    2  A    between atoms: C_6  and  N_7 
REMARK       I    between atoms: N_7  and  C_8 
REMARK    3  A    between atoms: C_8  and  C_10 
REMARK    4  A    between atoms: C_11  and  C_12 
ROOT
ATOM      1  N   UNL d   1      25.395 -17.844   0.152  0.00  0.00    -0.324 N 
ATOM      2  C   UNL d   1      24.394 -17.999  -0.804  0.00  0.00     0.245 C 
ATOM      3  O   UNL d   1      24.363 -17.453  -1.908  0.00  0.00    -0.268 OA
ATOM      4  H   UNL d   1      25.311 -18.337   1.033  0.00  0.00     0.169 HD
ENDROOT
BRANCH   1   5
ATOM      5  C   UNL d   1      26.561 -17.028  -0.026  0.00  0.00     0.038 A 
ATOM      6  C   UNL d   1      26.506 -15.637   0.095  0.00  0.00     0.056 A 
ATOM      7  C   UNL d   1      27.627 -14.824  -0.075  0.00  0.00     0.064 A 
ATOM      8  C   UNL d   1      28.870 -15.364  -0.409  0.00  0.00     0.070 A 
ATOM      9 CL   UNL d   1      27.417 -13.116   0.133  0.00  0.00    -0.082 Cl
ATOM     10  C   UNL d   1      28.942 -16.765  -0.513  0.00  0.00     0.064 A 
ATOM     11  C   UNL d   1      27.808 -17.593  -0.330  0.00  0.00     0.056 A 
ATOM     12 CL   UNL d   1      30.461 -17.515  -0.896  0.00  0.00    -0.082 Cl
BRANCH   8  13
ATOM     13  N   UNL d   1      29.993 -14.541  -0.501  0.00  0.00    -0.396 N 
ATOM     14  H   UNL d   1      30.203 -13.928   0.282  0.00  0.00     0.156 HD
ATOM     15  H   UNL d   1      30.384 -14.323  -1.409  0.00  0.00     0.156 HD
ENDBRANCH   8  13
ENDBRANCH   1   5
BRANCH   2  16
ATOM     16  C   UNL d   1      23.260 -18.890  -0.444  0.00  0.00     0.076 C 
ATOM     17  C   UNL d   1      22.008 -18.388  -0.521  0.00  0.00     0.037 C 
BRANCH  17  18
ATOM     18  C   UNL d   1      20.800 -19.134  -0.158  0.00  0.00     0.056 A 
ATOM     19  C   UNL d   1      20.613 -19.585   1.142  0.00  0.00     0.031 A 
ATOM     20  C   UNL d   1      19.477 -20.329   1.442  0.00  0.00     0.004 A 
ATOM     21  C   UNL d   1      18.543 -20.574   0.445  0.00  0.00     0.019 A 
ATOM     22  C   UNL d   1      18.781 -20.043  -0.813  0.00  0.00     0.117 A 
ATOM     23  N   UNL d   1      19.883 -19.325  -1.135  0.00  0.00    -0.261 NA
ENDBRANCH  17  18
ENDBRANCH   2  16
TORSDOF 4
ENDMDL
MODEL 6
REMARK VINA RESULT:   -30.151      2.122      2.161
REMARK INTER + INTRA:         -31.807
REMARK INTER:                 -31.344
REMARK INTRA:                  -0.463
REMARK CONF_INDEPENDENT:        1.193
REMARK UNBOUND:                -0.463
REMARK  4 active torsions:
REMARK  status: ('A' for Active; 'I' for Inactive)
REMARK    1  A    between atoms: N_1  and  C_2 
REMARK    2  A    between atoms: C_6  and  N_7 
REMARK       I    between atoms: N_7  and  C_8 
REMARK    3  A    between atoms: C_8  and  C_10 
REMARK    4  A    between atoms: C_11  and  C_12 
ROOT
ATOM      1  N   UNL d   1      25.374 -17.670   0.076  0.00  0.00    -0.324 N 
ATOM      2  C   UNL d   1      24.394 -17.943  -0.875  0.00  0.00     0.245 C 
ATOM      3  O   UNL d   1      24.373 -17.513  -2.030  0.00  0.00    -0.268 OA
ATOM      4  H   UNL d   1      25.283 -18.073   1.002  0.00  0.00     0.169 HD
ENDROOT
BRANCH   1   5
ATOM      5  C   UNL d   1      26.527 -16.853  -0.165  0.00  0.00     0.038 A 
ATOM      6  C   UNL d   1      27.776 -17.414  -0.444  0.00  0.00     0.056 A 
ATOM      7  C   UNL d   1      28.910 -16.638  -0.681  0.00  0.00     0.064 A 
ATOM      8  C   UNL d   1      28.862 -15.245  -0.619  0.00  0.00     0.070 A 
ATOM      9 CL   UNL d   1      30.388 -17.470  -1.043  0.00  0.00    -0.082 Cl
ATOM     10  C   UNL d   1      27.606 -14.668  -0.360  0.00  0.00     0.064 A 
ATOM     11  C   UNL d   1      26.449 -15.454  -0.130  0.00  0.00     0.056 A 
ATOM     12 CL   UNL d   1      27.457 -12.939  -0.298  0.00  0.00    -0.082 Cl
BRANCH   8  13
ATOM     13  N   UNL d   1      29.991 -14.487  -0.932  0.00  0.00    -0.396 N 
ATOM     14  H   UNL d   1      29.885 -13.719  -1.590  0.00  0.00     0.156 HD
ATOM     15  H   UNL d   1      30.914 -14.871  -0.775  0.00  0.00     0.156 HD
ENDBRANCH   8  13
ENDBRANCH   1   5
BRANCH   2  16
ATOM     16  C   UNL d   1      23.270 -18.816  -0.446  0.00  0.00     0.076 C 
ATOM     17  C   UNL d   1      22.015 -18.321  -0.520  0.00  0.00     0.037 C 
BRANCH  17  18
ATOM     18  C   UNL d   1      20.818 -19.049  -0.093  0.00  0.00     0.056 A 
ATOM     19  C   UNL d   1      20.642 -19.400   1.240  0.00  0.00     0.031 A 
ATOM     20  C   UNL d   1      19.516 -20.130   1.603  0.00  0.00     0.004 A 
ATOM     21  C   UNL d   1      18.580 -20.462   0.634  0.00  0.00     0.019 A 
ATOM     22  C   UNL d   1      18.805 -20.028  -0.662  0.00  0.00     0.117 A 
ATOM     23  N   UNL d   1      19.898 -19.325  -1.046  0.00  0.00    -0.261 NA
ENDBRANCH  17  18
ENDBRANCH   2  16
TORSDOF 4
ENDMDL
