MODEL 1
REMARK VINA RESULT:    -8.947      0.000      0.000
REMARK INTER + INTRA:         -14.433
REMARK INTER:                 -12.228
REMARK INTRA:                  -2.205
REMARK CONF_INDEPENDENT:        3.281
REMARK UNBOUND:                -2.205
REMARK  11 active torsions:
REMARK  status: ('A' for Active; 'I' for Inactive)
REMARK    1  A    between atoms: C_2  and  C_3 
REMARK    2  A    between atoms: C_3  and  N_4 
REMARK    3  A    between atoms: N_4  and  C_5 
REMARK       I    between atoms: N_4  and  C_8 
REMARK    4  A    between atoms: C_5  and  C_6 
REMARK    5  A    between atoms: C_8  and  C_10 
REMARK    6  A    between atoms: C_13  and  N_14 
REMARK    7  A    between atoms: N_14  and  C_15 
REMARK    8  A    between atoms: C_15  and  C_16 
REMARK       I    between atoms: C_16  and  N_18 
REMARK    9  A    between atoms: N_18  and  C_19 
REMARK   10  A    between atoms: C_24  and  C_25 
REMARK       I    between atoms: C_25  and  N_27 
REMARK   11  A    between atoms: N_27  and  C_28 
ROOT
ATOM      1  C   UNL d   1      25.509 -13.534  -3.760  0.00  0.00     0.239 C 
ATOM      2  O   UNL d   1      25.089 -14.526  -4.361  0.00  0.00    -0.271 OA
ATOM      3  N   UNL d   1      25.953 -13.559  -2.437  0.00  0.00    -0.326 N 
ATOM      4  H   UNL d   1      26.113 -12.690  -1.940  0.00  0.00     0.169 HD
ENDROOT
BRANCH   1   5
ATOM      5  C   UNL d   1      25.548 -12.164  -4.453  0.00  0.00     0.223 C 
BRANCH   5   6
ATOM      6  N   UNL d   1      26.876 -11.931  -5.039  0.00  0.00    -0.381 N 
ATOM      7  H   UNL d   1      27.011 -11.006  -5.449  0.00  0.00     0.160 HD
BRANCH   6   8
ATOM      8  C   UNL d   1      27.743 -12.949  -5.380  0.00  0.00     0.028 A 
ATOM      9  C   UNL d   1      27.835 -13.425  -6.699  0.00  0.00     0.030 A 
ATOM     10  C   UNL d   1      28.691 -14.498  -7.041  0.00  0.00     0.019 A 
ATOM     11  C   UNL d   1      29.556 -15.038  -6.083  0.00  0.00     0.032 A 
ATOM     12  C   UNL d   1      29.557 -14.461  -4.815  0.00  0.00     0.019 A 
ATOM     13  C   UNL d   1      28.633 -13.483  -4.456  0.00  0.00     0.030 A 
BRANCH  11  14
ATOM     14  C   UNL d   1      30.555 -16.101  -6.442  0.00  0.00     0.253 C 
ATOM     15  N   UNL d   1      30.803 -17.196  -5.562  0.00  0.00    -0.348 N 
ATOM     16  O   UNL d   1      31.148 -15.969  -7.513  0.00  0.00    -0.267 OA
BRANCH  15  17
ATOM     17  C   UNL d   1      31.858 -18.158  -6.034  0.00  0.00     0.125 C 
BRANCH  17  18
ATOM     18  C   UNL d   1      31.510 -19.055  -7.211  0.00  0.00     0.015 C 
ATOM     19  C   UNL d   1      31.201 -20.510  -7.062  0.00  0.00     0.006 C 
ENDBRANCH  17  18
ENDBRANCH  15  17
BRANCH  15  20
ATOM     20  C   UNL d   1      29.970 -17.391  -4.340  0.00  0.00     0.125 C 
BRANCH  20  21
ATOM     21  C   UNL d   1      30.629 -17.674  -3.012  0.00  0.00     0.015 C 
ATOM     22  C   UNL d   1      30.015 -17.148  -1.755  0.00  0.00     0.006 C 
ENDBRANCH  20  21
ENDBRANCH  15  20
ENDBRANCH  11  14
ENDBRANCH   6   8
ENDBRANCH   5   6
ENDBRANCH   1   5
BRANCH   3  23
ATOM     23  C   UNL d   1      26.017 -14.756  -1.687  0.00  0.00     0.035 A 
ATOM     24  C   UNL d   1      27.156 -15.081  -0.953  0.00  0.00     0.031 A 
ATOM     25  C   UNL d   1      27.214 -16.291  -0.255  0.00  0.00     0.027 A 
ATOM     26  C   UNL d   1      26.127 -17.170  -0.256  0.00  0.00     0.049 A 
ATOM     27 CL   UNL d   1      26.328 -18.558   0.769  0.00  0.00    -0.083 Cl
ATOM     28  C   UNL d   1      24.986 -16.867  -1.023  0.00  0.00     0.055 A 
ATOM     29  C   UNL d   1      24.949 -15.654  -1.722  0.00  0.00     0.048 A 
BRANCH  28  30
ATOM     30  C   UNL d   1      23.867 -17.838  -1.148  0.00  0.00     0.253 C 
ATOM     31  O   UNL d   1      23.682 -18.340  -2.238  0.00  0.00    -0.268 OA
ATOM     32  N   UNL d   1      23.051 -18.099  -0.049  0.00  0.00    -0.352 N 
ATOM     33  H   UNL d   1      23.281 -17.745   0.866  0.00  0.00     0.163 HD
BRANCH  32  34
ATOM     34  C   UNL d   1      21.920 -19.038  -0.085  0.00  0.00     0.084 C 
ATOM     35  C   UNL d   1      21.143 -18.951   1.239  0.00  0.00     0.025 C 
ATOM     36  C   UNL d   1      19.890 -19.828   1.235  0.00  0.00     0.002 C 
ATOM     37  C   UNL d   1      18.988 -19.529   0.042  0.00  0.00     0.000 C 
ATOM     38  C   UNL d   1      19.750 -19.700  -1.258  0.00  0.00     0.002 C 
ATOM     39  C   UNL d   1      20.973 -18.818  -1.270  0.00  0.00     0.025 C 
ENDBRANCH  32  34
ENDBRANCH  28  30
ENDBRANCH   3  23
TORSDOF 11
ENDMDL
MODEL 2
REMARK VINA RESULT:    -8.608      1.212      2.085
REMARK INTER + INTRA:         -13.945
REMARK INTER:                 -11.890
REMARK INTRA:                  -2.055
REMARK CONF_INDEPENDENT:        3.281
REMARK UNBOUND:                -2.055
REMARK  11 active torsions:
REMARK  status: ('A' for Active; 'I' for Inactive)
REMARK    1  A    between atoms: C_2  and  C_3 
REMARK    2  A    between atoms: C_3  and  N_4 
REMARK    3  A    between atoms: N_4  and  C_5 
REMARK       I    between atoms: N_4  and  C_8 
REMARK    4  A    between atoms: C_5  and  C_6 
REMARK    5  A    between atoms: C_8  and  C_10 
REMARK    6  A    between atoms: C_13  and  N_14 
REMARK    7  A    between atoms: N_14  and  C_15 
REMARK    8  A    between atoms: C_15  and  C_16 
REMARK       I    between atoms: C_16  and  N_18 
REMARK    9  A    between atoms: N_18  and  C_19 
REMARK   10  A    between atoms: C_24  and  C_25 
REMARK       I    between atoms: C_25  and  N_27 
REMARK   11  A    between atoms: N_27  and  C_28 
ROOT
ATOM      1  C   UNL d   1      25.520 -13.563  -3.729  0.00  0.00     0.239 C 
ATOM      2  O   UNL d   1      24.779 -14.453  -4.153  0.00  0.00    -0.271 OA
ATOM      3  N   UNL d   1      26.245 -13.657  -2.540  0.00  0.00    -0.326 N 
ATOM      4  H   UNL d   1      26.691 -12.834  -2.151  0.00  0.00     0.169 HD
ENDROOT
BRANCH   1   5
ATOM      5  C   UNL d   1      25.676 -12.246  -4.505  0.00  0.00     0.223 C 
BRANCH   5   6
ATOM      6  N   UNL d   1      27.059 -12.102  -4.984  0.00  0.00    -0.381 N 
ATOM      7  H   UNL d   1      27.284 -11.193  -5.388  0.00  0.00     0.160 HD
BRANCH   6   8
ATOM      8  C   UNL d   1      27.884 -13.176  -5.251  0.00  0.00     0.028 A 
ATOM      9  C   UNL d   1      28.016 -13.700  -6.549  0.00  0.00     0.030 A 
ATOM     10  C   UNL d   1      28.827 -14.827  -6.814  0.00  0.00     0.019 A 
ATOM     11  C   UNL d   1      29.612 -15.381  -5.797  0.00  0.00     0.032 A 
ATOM     12  C   UNL d   1      29.582 -14.764  -4.548  0.00  0.00     0.019 A 
ATOM     13  C   UNL d   1      28.697 -13.727  -4.266  0.00  0.00     0.030 A 
BRANCH  11  14
ATOM     14  C   UNL d   1      30.568 -16.507  -6.072  0.00  0.00     0.253 C 
ATOM     15  N   UNL d   1      31.809 -16.265  -6.734  0.00  0.00    -0.348 N 
ATOM     16  O   UNL d   1      30.221 -17.632  -5.715  0.00  0.00    -0.267 OA
BRANCH  15  17
ATOM     17  C   UNL d   1      32.642 -17.492  -6.978  0.00  0.00     0.125 C 
BRANCH  17  18
ATOM     18  C   UNL d   1      33.085 -17.763  -8.407  0.00  0.00     0.015 C 
ATOM     19  C   UNL d   1      32.308 -18.625  -9.350  0.00  0.00     0.006 C 
ENDBRANCH  17  18
ENDBRANCH  15  17
BRANCH  15  20
ATOM     20  C   UNL d   1      32.252 -14.871  -7.029  0.00  0.00     0.125 C 
BRANCH  20  21
ATOM     21  C   UNL d   1      31.898 -14.228  -8.348  0.00  0.00     0.015 C 
ATOM     22  C   UNL d   1      31.647 -12.756  -8.409  0.00  0.00     0.006 C 
ENDBRANCH  20  21
ENDBRANCH  15  20
ENDBRANCH  11  14
ENDBRANCH   6   8
ENDBRANCH   5   6
ENDBRANCH   1   5
BRANCH   3  23
ATOM     23  C   UNL d   1      26.236 -14.826  -1.744  0.00  0.00     0.035 A 
ATOM     24  C   UNL d   1      27.333 -15.163  -0.954  0.00  0.00     0.031 A 
ATOM     25  C   UNL d   1      27.319 -16.346  -0.209  0.00  0.00     0.027 A 
ATOM     26  C   UNL d   1      26.201 -17.184  -0.219  0.00  0.00     0.049 A 
ATOM     27 CL   UNL d   1      26.310 -18.538   0.864  0.00  0.00    -0.083 Cl
ATOM     28  C   UNL d   1      25.101 -16.870  -1.042  0.00  0.00     0.055 A 
ATOM     29  C   UNL d   1      25.137 -15.685  -1.787  0.00  0.00     0.048 A 
BRANCH  28  30
ATOM     30  C   UNL d   1      23.953 -17.804  -1.174  0.00  0.00     0.253 C 
ATOM     31  O   UNL d   1      23.688 -18.211  -2.287  0.00  0.00    -0.268 OA
ATOM     32  N   UNL d   1      23.198 -18.138  -0.050  0.00  0.00    -0.352 N 
ATOM     33  H   UNL d   1      23.493 -17.865   0.874  0.00  0.00     0.163 HD
BRANCH  32  34
ATOM     34  C   UNL d   1      22.043 -19.047  -0.091  0.00  0.00     0.084 C 
ATOM     35  C   UNL d   1      21.272 -18.950   1.236  0.00  0.00     0.025 C 
ATOM     36  C   UNL d   1      19.997 -19.795   1.229  0.00  0.00     0.002 C 
ATOM     37  C   UNL d   1      19.100 -19.463   0.040  0.00  0.00     0.000 C 
ATOM     38  C   UNL d   1      19.854 -19.643  -1.263  0.00  0.00     0.002 C 
ATOM     39  C   UNL d   1      21.100 -18.794  -1.271  0.00  0.00     0.025 C 
ENDBRANCH  32  34
ENDBRANCH  28  30
ENDBRANCH   3  23
TORSDOF 11
ENDMDL
MODEL 3
REMARK VINA RESULT:    -8.465      3.944      6.728
REMARK INTER + INTRA:         -13.369
REMARK INTER:                 -11.746
REMARK INTRA:                  -1.623
REMARK CONF_INDEPENDENT:        3.281
REMARK UNBOUND:                -1.623
REMARK  11 active torsions:
REMARK  status: ('A' for Active; 'I' for Inactive)
REMARK    1  A    between atoms: C_2  and  C_3 
REMARK    2  A    between atoms: C_3  and  N_4 
REMARK    3  A    between atoms: N_4  and  C_5 
REMARK       I    between atoms: N_4  and  C_8 
REMARK    4  A    between atoms: C_5  and  C_6 
REMARK    5  A    between atoms: C_8  and  C_10 
REMARK    6  A    between atoms: C_13  and  N_14 
REMARK    7  A    between atoms: N_14  and  C_15 
REMARK    8  A    between atoms: C_15  and  C_16 
REMARK       I    between atoms: C_16  and  N_18 
REMARK    9  A    between atoms: N_18  and  C_19 
REMARK   10  A    between atoms: C_24  and  C_25 
REMARK       I    between atoms: C_25  and  N_27 
REMARK   11  A    between atoms: N_27  and  C_28 
ROOT
ATOM      1  C   UNL d   1      30.123 -16.652  -6.256  0.00  0.00     0.239 C 
ATOM      2  O   UNL d   1      29.966 -16.907  -5.059  0.00  0.00    -0.271 OA
ATOM      3  N   UNL d   1      29.470 -15.612  -6.920  0.00  0.00    -0.326 N 
ATOM      4  H   UNL d   1      29.495 -15.563  -7.932  0.00  0.00     0.169 HD
ENDROOT
BRANCH   1   5
ATOM      5  C   UNL d   1      31.063 -17.509  -7.116  0.00  0.00     0.223 C 
BRANCH   5   6
ATOM      6  N   UNL d   1      30.572 -18.894  -7.177  0.00  0.00    -0.381 N 
ATOM      7  H   UNL d   1      29.791 -19.048  -7.814  0.00  0.00     0.160 HD
BRANCH   6   8
ATOM      8  C   UNL d   1      30.839 -19.835  -6.203  0.00  0.00     0.028 A 
ATOM      9  C   UNL d   1      31.599 -20.985  -6.479  0.00  0.00     0.030 A 
ATOM     10  C   UNL d   1      31.836 -21.970  -5.493  0.00  0.00     0.019 A 
ATOM     11  C   UNL d   1      31.408 -21.763  -4.177  0.00  0.00     0.032 A 
ATOM     12  C   UNL d   1      30.781 -20.554  -3.884  0.00  0.00     0.019 A 
ATOM     13  C   UNL d   1      30.452 -19.641  -4.882  0.00  0.00     0.030 A 
BRANCH  11  14
ATOM     14  C   UNL d   1      31.741 -22.739  -3.084  0.00  0.00     0.253 C 
ATOM     15  N   UNL d   1      30.767 -23.670  -2.616  0.00  0.00    -0.348 N 
ATOM     16  O   UNL d   1      32.877 -22.681  -2.614  0.00  0.00    -0.267 OA
BRANCH  15  17
ATOM     17  C   UNL d   1      31.230 -24.554  -1.492  0.00  0.00     0.125 C 
BRANCH  17  18
ATOM     18  C   UNL d   1      30.566 -24.369  -0.137  0.00  0.00     0.015 C 
ATOM     19  C   UNL d   1      29.856 -23.113   0.257  0.00  0.00     0.006 C 
ENDBRANCH  17  18
ENDBRANCH  15  17
BRANCH  15  20
ATOM     20  C   UNL d   1      29.449 -23.799  -3.302  0.00  0.00     0.125 C 
BRANCH  20  21
ATOM     21  C   UNL d   1      28.842 -25.163  -3.526  0.00  0.00     0.015 C 
ATOM     22  C   UNL d   1      28.250 -25.907  -2.374  0.00  0.00     0.006 C 
ENDBRANCH  20  21
ENDBRANCH  15  20
ENDBRANCH  11  14
ENDBRANCH   6   8
ENDBRANCH   5   6
ENDBRANCH   1   5
BRANCH   3  23
ATOM     23  C   UNL d   1      28.609 -14.713  -6.248  0.00  0.00     0.035 A 
ATOM     24  C   UNL d   1      28.692 -13.341  -6.472  0.00  0.00     0.031 A 
ATOM     25  C   UNL d   1      27.862 -12.467  -5.763  0.00  0.00     0.027 A 
ATOM     26  C   UNL d   1      26.921 -12.956  -4.853  0.00  0.00     0.049 A 
ATOM     27 CL   UNL d   1      25.890 -11.738  -4.165  0.00  0.00    -0.083 Cl
ATOM     28  C   UNL d   1      26.854 -14.339  -4.594  0.00  0.00     0.055 A 
ATOM     29  C   UNL d   1      27.699 -15.197  -5.307  0.00  0.00     0.048 A 
BRANCH  28  30
ATOM     30  C   UNL d   1      25.955 -14.878  -3.540  0.00  0.00     0.253 C 
ATOM     31  O   UNL d   1      24.780 -14.580  -3.600  0.00  0.00    -0.268 OA
ATOM     32  N   UNL d   1      26.484 -15.651  -2.507  0.00  0.00    -0.352 N 
ATOM     33  H   UNL d   1      27.442 -15.964  -2.530  0.00  0.00     0.163 HD
BRANCH  32  34
ATOM     34  C   UNL d   1      25.671 -16.217  -1.421  0.00  0.00     0.084 C 
ATOM     35  C   UNL d   1      24.404 -16.856  -2.014  0.00  0.00     0.025 C 
ATOM     36  C   UNL d   1      23.556 -17.557  -0.952  0.00  0.00     0.002 C 
ATOM     37  C   UNL d   1      24.368 -18.573  -0.154  0.00  0.00     0.000 C 
ATOM     38  C   UNL d   1      25.568 -17.908   0.490  0.00  0.00     0.002 C 
ATOM     39  C   UNL d   1      26.421 -17.236  -0.556  0.00  0.00     0.025 C 
ENDBRANCH  32  34
ENDBRANCH  28  30
ENDBRANCH   3  23
TORSDOF 11
ENDMDL
MODEL 4
REMARK VINA RESULT:    -8.350      6.021      9.475
REMARK INTER + INTRA:         -13.522
REMARK INTER:                 -11.632
REMARK INTRA:                  -1.891
REMARK CONF_INDEPENDENT:        3.281
REMARK UNBOUND:                -1.891
REMARK  11 active torsions:
REMARK  status: ('A' for Active; 'I' for Inactive)
REMARK    1  A    between atoms: C_2  and  C_3 
REMARK    2  A    between atoms: C_3  and  N_4 
REMARK    3  A    between atoms: N_4  and  C_5 
REMARK       I    between atoms: N_4  and  C_8 
REMARK    4  A    between atoms: C_5  and  C_6 
REMARK    5  A    between atoms: C_8  and  C_10 
REMARK    6  A    between atoms: C_13  and  N_14 
REMARK    7  A    between atoms: N_14  and  C_15 
REMARK    8  A    between atoms: C_15  and  C_16 
REMARK       I    between atoms: C_16  and  N_18 
REMARK    9  A    between atoms: N_18  and  C_19 
REMARK   10  A    between atoms: C_24  and  C_25 
REMARK       I    between atoms: C_25  and  N_27 
REMARK   11  A    between atoms: N_27  and  C_28 
ROOT
ATOM      1  C   UNL d   1      30.418 -17.678  -1.438  0.00  0.00     0.239 C 
ATOM      2  O   UNL d   1      30.053 -17.562  -2.610  0.00  0.00    -0.271 OA
ATOM      3  N   UNL d   1      29.560 -17.556  -0.342  0.00  0.00    -0.326 N 
ATOM      4  H   UNL d   1      29.942 -17.478   0.594  0.00  0.00     0.169 HD
ENDROOT
BRANCH   1   5
ATOM      5  C   UNL d   1      31.892 -17.951  -1.105  0.00  0.00     0.223 C 
BRANCH   5   6
ATOM      6  N   UNL d   1      32.065 -19.351  -0.687  0.00  0.00    -0.381 N 
ATOM      7  H   UNL d   1      31.813 -20.046  -1.390  0.00  0.00     0.160 HD
BRANCH   6   8
ATOM      8  C   UNL d   1      32.171 -19.739   0.633  0.00  0.00     0.028 A 
ATOM      9  C   UNL d   1      32.648 -18.863   1.622  0.00  0.00     0.030 A 
ATOM     10  C   UNL d   1      32.798 -19.275   2.967  0.00  0.00     0.019 A 
ATOM     11  C   UNL d   1      32.362 -20.544   3.364  0.00  0.00     0.032 A 
ATOM     12  C   UNL d   1      31.759 -21.351   2.402  0.00  0.00     0.019 A 
ATOM     13  C   UNL d   1      31.719 -20.983   1.060  0.00  0.00     0.030 A 
BRANCH  11  14
ATOM     14  C   UNL d   1      32.404 -20.969   4.804  0.00  0.00     0.253 C 
ATOM     15  N   UNL d   1      33.591 -21.527   5.366  0.00  0.00    -0.348 N 
ATOM     16  O   UNL d   1      31.371 -20.825   5.458  0.00  0.00    -0.267 OA
BRANCH  15  17
ATOM     17  C   UNL d   1      33.472 -21.944   6.805  0.00  0.00     0.125 C 
BRANCH  17  18
ATOM     18  C   UNL d   1      34.624 -22.735   7.402  0.00  0.00     0.015 C 
ATOM     19  C   UNL d   1      34.529 -24.191   7.730  0.00  0.00     0.006 C 
ENDBRANCH  17  18
ENDBRANCH  15  17
BRANCH  15  20
ATOM     20  C   UNL d   1      34.859 -21.561   4.580  0.00  0.00     0.125 C 
BRANCH  20  21
ATOM     21  C   UNL d   1      35.278 -22.827   3.873  0.00  0.00     0.015 C 
ATOM     22  C   UNL d   1      35.557 -22.797   2.405  0.00  0.00     0.006 C 
ENDBRANCH  20  21
ENDBRANCH  15  20
ENDBRANCH  11  14
ENDBRANCH   6   8
ENDBRANCH   5   6
ENDBRANCH   1   5
BRANCH   3  23
ATOM     23  C   UNL d   1      28.170 -17.349  -0.496  0.00  0.00     0.035 A 
ATOM     24  C   UNL d   1      27.249 -18.156   0.169  0.00  0.00     0.031 A 
ATOM     25  C   UNL d   1      25.879 -17.962  -0.031  0.00  0.00     0.027 A 
ATOM     26  C   UNL d   1      25.416 -16.942  -0.868  0.00  0.00     0.049 A 
ATOM     27 CL   UNL d   1      23.688 -16.766  -0.895  0.00  0.00    -0.083 Cl
ATOM     28  C   UNL d   1      26.340 -16.144  -1.571  0.00  0.00     0.055 A 
ATOM     29  C   UNL d   1      27.707 -16.359  -1.364  0.00  0.00     0.048 A 
BRANCH  28  30
ATOM     30  C   UNL d   1      25.881 -15.138  -2.565  0.00  0.00     0.253 C 
ATOM     31  O   UNL d   1      25.317 -15.550  -3.558  0.00  0.00    -0.268 OA
ATOM     32  N   UNL d   1      26.152 -13.786  -2.358  0.00  0.00    -0.352 N 
ATOM     33  H   UNL d   1      26.536 -13.461  -1.485  0.00  0.00     0.163 HD
BRANCH  32  34
ATOM     34  C   UNL d   1      25.743 -12.726  -3.291  0.00  0.00     0.084 C 
ATOM     35  C   UNL d   1      26.245 -11.369  -2.771  0.00  0.00     0.025 C 
ATOM     36  C   UNL d   1      25.943 -10.228  -3.744  0.00  0.00     0.002 C 
ATOM     37  C   UNL d   1      26.475 -10.517  -5.144  0.00  0.00     0.000 C 
ATOM     38  C   UNL d   1      25.905 -11.818  -5.673  0.00  0.00     0.002 C 
ATOM     39  C   UNL d   1      26.221 -12.952  -4.729  0.00  0.00     0.025 C 
ENDBRANCH  32  34
ENDBRANCH  28  30
ENDBRANCH   3  23
TORSDOF 11
ENDMDL
MODEL 5
REMARK VINA RESULT:    -8.325      6.963      9.798
REMARK INTER + INTRA:         -13.384
REMARK INTER:                 -11.607
REMARK INTRA:                  -1.777
REMARK CONF_INDEPENDENT:        3.281
REMARK UNBOUND:                -1.777
REMARK  11 active torsions:
REMARK  status: ('A' for Active; 'I' for Inactive)
REMARK    1  A    between atoms: C_2  and  C_3 
REMARK    2  A    between atoms: C_3  and  N_4 
REMARK    3  A    between atoms: N_4  and  C_5 
REMARK       I    between atoms: N_4  and  C_8 
REMARK    4  A    between atoms: C_5  and  C_6 
REMARK    5  A    between atoms: C_8  and  C_10 
REMARK    6  A    between atoms: C_13  and  N_14 
REMARK    7  A    between atoms: N_14  and  C_15 
REMARK    8  A    between atoms: C_15  and  C_16 
REMARK       I    between atoms: C_16  and  N_18 
REMARK    9  A    between atoms: N_18  and  C_19 
REMARK   10  A    between atoms: C_24  and  C_25 
REMARK       I    between atoms: C_25  and  N_27 
REMARK   11  A    between atoms: N_27  and  C_28 
ROOT
ATOM      1  C   UNL d   1      31.919 -14.801   2.014  0.00  0.00     0.239 C 
ATOM      2  O   UNL d   1      32.808 -13.954   2.132  0.00  0.00    -0.271 OA
ATOM      3  N   UNL d   1      30.712 -14.762   2.715  0.00  0.00    -0.326 N 
ATOM      4  H   UNL d   1      30.101 -15.571   2.718  0.00  0.00     0.169 HD
ENDROOT
BRANCH   1   5
ATOM      5  C   UNL d   1      32.106 -15.999   1.072  0.00  0.00     0.223 C 
BRANCH   5   6
ATOM      6  N   UNL d   1      31.251 -15.848  -0.115  0.00  0.00    -0.381 N 
ATOM      7  H   UNL d   1      31.615 -15.222  -0.833  0.00  0.00     0.160 HD
BRANCH   6   8
ATOM      8  C   UNL d   1      29.910 -16.177  -0.129  0.00  0.00     0.028 A 
ATOM      9  C   UNL d   1      29.470 -17.454  -0.517  0.00  0.00     0.030 A 
ATOM     10  C   UNL d   1      28.095 -17.777  -0.574  0.00  0.00     0.019 A 
ATOM     11  C   UNL d   1      27.139 -16.857  -0.131  0.00  0.00     0.032 A 
ATOM     12  C   UNL d   1      27.597 -15.647   0.385  0.00  0.00     0.019 A 
ATOM     13  C   UNL d   1      28.942 -15.292   0.332  0.00  0.00     0.030 A 
BRANCH  11  14
ATOM     14  C   UNL d   1      25.680 -17.211  -0.074  0.00  0.00     0.253 C 
ATOM     15  N   UNL d   1      24.715 -16.450  -0.799  0.00  0.00    -0.348 N 
ATOM     16  O   UNL d   1      25.367 -18.169   0.632  0.00  0.00    -0.267 OA
BRANCH  15  17
ATOM     17  C   UNL d   1      23.292 -16.895  -0.613  0.00  0.00     0.125 C 
BRANCH  17  18
ATOM     18  C   UNL d   1      22.971 -18.352  -0.904  0.00  0.00     0.015 C 
ATOM     19  C   UNL d   1      21.631 -18.961  -0.635  0.00  0.00     0.006 C 
ENDBRANCH  17  18
ENDBRANCH  15  17
BRANCH  15  20
ATOM     20  C   UNL d   1      25.148 -15.383  -1.748  0.00  0.00     0.125 C 
BRANCH  20  21
ATOM     21  C   UNL d   1      25.533 -15.739  -3.163  0.00  0.00     0.015 C 
ATOM     22  C   UNL d   1      26.798 -15.197  -3.745  0.00  0.00     0.006 C 
ENDBRANCH  20  21
ENDBRANCH  15  20
ENDBRANCH  11  14
ENDBRANCH   6   8
ENDBRANCH   5   6
ENDBRANCH   1   5
BRANCH   3  23
ATOM     23  C   UNL d   1      30.381 -13.696   3.584  0.00  0.00     0.035 A 
ATOM     24  C   UNL d   1      30.719 -12.382   3.266  0.00  0.00     0.031 A 
ATOM     25  C   UNL d   1      30.421 -11.350   4.160  0.00  0.00     0.027 A 
ATOM     26  C   UNL d   1      29.754 -11.613   5.360  0.00  0.00     0.049 A 
ATOM     27 CL   UNL d   1      29.352 -10.197   6.282  0.00  0.00    -0.083 Cl
ATOM     28  C   UNL d   1      29.440 -12.942   5.706  0.00  0.00     0.055 A 
ATOM     29  C   UNL d   1      29.754 -13.963   4.802  0.00  0.00     0.048 A 
BRANCH  28  30
ATOM     30  C   UNL d   1      28.848 -13.269   7.030  0.00  0.00     0.253 C 
ATOM     31  O   UNL d   1      27.776 -12.770   7.302  0.00  0.00    -0.268 OA
ATOM     32  N   UNL d   1      29.550 -14.079   7.921  0.00  0.00    -0.352 N 
ATOM     33  H   UNL d   1      30.391 -14.558   7.638  0.00  0.00     0.163 HD
BRANCH  32  34
ATOM     34  C   UNL d   1      29.045 -14.447   9.252  0.00  0.00     0.084 C 
ATOM     35  C   UNL d   1      30.218 -14.906  10.133  0.00  0.00     0.025 C 
ATOM     36  C   UNL d   1      29.782 -15.209  11.568  0.00  0.00     0.002 C 
ATOM     37  C   UNL d   1      29.040 -14.035  12.198  0.00  0.00     0.000 C 
ATOM     38  C   UNL d   1      27.839 -13.650  11.357  0.00  0.00     0.002 C 
ATOM     39  C   UNL d   1      28.267 -13.326   9.948  0.00  0.00     0.025 C 
ENDBRANCH  32  34
ENDBRANCH  28  30
ENDBRANCH   3  23
TORSDOF 11
ENDMDL
MODEL 6
REMARK VINA RESULT:    -8.289      1.331      2.151
REMARK INTER + INTRA:         -13.788
REMARK INTER:                 -11.571
REMARK INTRA:                  -2.217
REMARK CONF_INDEPENDENT:        3.281
REMARK UNBOUND:                -2.217
REMARK  11 active torsions:
REMARK  status: ('A' for Active; 'I' for Inactive)
REMARK    1  A    between atoms: C_2  and  C_3 
REMARK    2  A    between atoms: C_3  and  N_4 
REMARK    3  A    between atoms: N_4  and  C_5 
REMARK       I    between atoms: N_4  and  C_8 
REMARK    4  A    between atoms: C_5  and  C_6 
REMARK    5  A    between atoms: C_8  and  C_10 
REMARK    6  A    between atoms: C_13  and  N_14 
REMARK    7  A    between atoms: N_14  and  C_15 
REMARK    8  A    between atoms: C_15  and  C_16 
REMARK       I    between atoms: C_16  and  N_18 
REMARK    9  A    between atoms: N_18  and  C_19 
REMARK   10  A    between atoms: C_24  and  C_25 
REMARK       I    between atoms: C_25  and  N_27 
REMARK   11  A    between atoms: N_27  and  C_28 
ROOT
ATOM      1  C   UNL d   1      25.669 -13.745  -4.146  0.00  0.00     0.239 C 
ATOM      2  O   UNL d   1      24.780 -14.549  -4.438  0.00  0.00    -0.271 OA
ATOM      3  N   UNL d   1      26.479 -13.861  -3.015  0.00  0.00    -0.326 N 
ATOM      4  H   UNL d   1      27.063 -13.084  -2.728  0.00  0.00     0.169 HD
ENDROOT
BRANCH   1   5
ATOM      5  C   UNL d   1      25.927 -12.516  -5.030  0.00  0.00     0.223 C 
BRANCH   5   6
ATOM      6  N   UNL d   1      27.143 -12.717  -5.833  0.00  0.00    -0.381 N 
ATOM      7  H   UNL d   1      27.092 -12.363  -6.789  0.00  0.00     0.160 HD
BRANCH   6   8
ATOM      8  C   UNL d   1      28.122 -13.634  -5.509  0.00  0.00     0.028 A 
ATOM      9  C   UNL d   1      29.294 -13.250  -4.835  0.00  0.00     0.030 A 
ATOM     10  C   UNL d   1      30.317 -14.181  -4.541  0.00  0.00     0.019 A 
ATOM     11  C   UNL d   1      30.131 -15.540  -4.818  0.00  0.00     0.032 A 
ATOM     12  C   UNL d   1      28.905 -15.927  -5.356  0.00  0.00     0.019 A 
ATOM     13  C   UNL d   1      27.950 -14.993  -5.746  0.00  0.00     0.030 A 
BRANCH  11  14
ATOM     14  C   UNL d   1      31.151 -16.567  -4.416  0.00  0.00     0.253 C 
ATOM     15  N   UNL d   1      31.592 -17.558  -5.343  0.00  0.00    -0.348 N 
ATOM     16  O   UNL d   1      31.566 -16.516  -3.259  0.00  0.00    -0.267 OA
BRANCH  15  17
ATOM     17  C   UNL d   1      32.583 -18.543  -4.788  0.00  0.00     0.125 C 
BRANCH  17  18
ATOM     18  C   UNL d   1      32.035 -19.841  -4.219  0.00  0.00     0.015 C 
ATOM     19  C   UNL d   1      30.730 -20.432  -4.648  0.00  0.00     0.006 C 
ENDBRANCH  17  18
ENDBRANCH  15  17
BRANCH  15  20
ATOM     20  C   UNL d   1      31.167 -17.504  -6.772  0.00  0.00     0.125 C 
BRANCH  20  21
ATOM     21  C   UNL d   1      30.779 -18.771  -7.495  0.00  0.00     0.015 C 
ATOM     22  C   UNL d   1      31.162 -18.951  -8.928  0.00  0.00     0.006 C 
ENDBRANCH  20  21
ENDBRANCH  15  20
ENDBRANCH  11  14
ENDBRANCH   6   8
ENDBRANCH   5   6
ENDBRANCH   1   5
BRANCH   3  23
ATOM     23  C   UNL d   1      26.387 -14.963  -2.133  0.00  0.00     0.035 A 
ATOM     24  C   UNL d   1      27.532 -15.553  -1.602  0.00  0.00     0.031 A 
ATOM     25  C   UNL d   1      27.418 -16.669  -0.768  0.00  0.00     0.027 A 
ATOM     26  C   UNL d   1      26.164 -17.184  -0.429  0.00  0.00     0.049 A 
ATOM     27 CL   UNL d   1      26.211 -18.487   0.718  0.00  0.00    -0.083 Cl
ATOM     28  C   UNL d   1      25.003 -16.616  -0.989  0.00  0.00     0.055 A 
ATOM     29  C   UNL d   1      25.137 -15.505  -1.829  0.00  0.00     0.048 A 
BRANCH  28  30
ATOM     30  C   UNL d   1      23.665 -17.220  -0.752  0.00  0.00     0.253 C 
ATOM     31  O   UNL d   1      22.734 -16.463  -0.569  0.00  0.00    -0.268 OA
ATOM     32  N   UNL d   1      23.530 -18.606  -0.698  0.00  0.00    -0.352 N 
ATOM     33  H   UNL d   1      24.295 -19.213  -0.947  0.00  0.00     0.163 HD
BRANCH  32  34
ATOM     34  C   UNL d   1      22.249 -19.287  -0.462  0.00  0.00     0.084 C 
ATOM     35  C   UNL d   1      21.695 -18.868   0.910  0.00  0.00     0.025 C 
ATOM     36  C   UNL d   1      20.310 -19.459   1.182  0.00  0.00     0.002 C 
ATOM     37  C   UNL d   1      19.324 -19.137   0.063  0.00  0.00     0.000 C 
ATOM     38  C   UNL d   1      19.850 -19.631  -1.270  0.00  0.00     0.002 C 
ATOM     39  C   UNL d   1      21.205 -19.032  -1.554  0.00  0.00     0.025 C 
ENDBRANCH  32  34
ENDBRANCH  28  30
ENDBRANCH   3  23
TORSDOF 11
ENDMDL
MODEL 7
REMARK VINA RESULT:    -8.135      2.434      4.435
REMARK INTER + INTRA:         -13.267
REMARK INTER:                 -11.416
REMARK INTRA:                  -1.851
REMARK CONF_INDEPENDENT:        3.281
REMARK UNBOUND:                -1.851
REMARK  11 active torsions:
REMARK  status: ('A' for Active; 'I' for Inactive)
REMARK    1  A    between atoms: C_2  and  C_3 
REMARK    2  A    between atoms: C_3  and  N_4 
REMARK    3  A    between atoms: N_4  and  C_5 
REMARK       I    between atoms: N_4  and  C_8 
REMARK    4  A    between atoms: C_5  and  C_6 
REMARK    5  A    between atoms: C_8  and  C_10 
REMARK    6  A    between atoms: C_13  and  N_14 
REMARK    7  A    between atoms: N_14  and  C_15 
REMARK    8  A    between atoms: C_15  and  C_16 
REMARK       I    between atoms: C_16  and  N_18 
REMARK    9  A    between atoms: N_18  and  C_19 
REMARK   10  A    between atoms: C_24  and  C_25 
REMARK       I    between atoms: C_25  and  N_27 
REMARK   11  A    between atoms: N_27  and  C_28 
ROOT
ATOM      1  C   UNL d   1      29.123 -16.680  -0.150  0.00  0.00     0.239 C 
ATOM      2  O   UNL d   1      28.897 -15.503   0.141  0.00  0.00    -0.271 OA
ATOM      3  N   UNL d   1      28.129 -17.603  -0.481  0.00  0.00    -0.326 N 
ATOM      4  H   UNL d   1      28.351 -18.591  -0.533  0.00  0.00     0.169 HD
ENDROOT
BRANCH   1   5
ATOM      5  C   UNL d   1      30.561 -17.220  -0.145  0.00  0.00     0.223 C 
BRANCH   5   6
ATOM      6  N   UNL d   1      31.059 -17.346  -1.523  0.00  0.00    -0.381 N 
ATOM      7  H   UNL d   1      32.029 -17.652  -1.605  0.00  0.00     0.160 HD
BRANCH   6   8
ATOM      8  C   UNL d   1      30.452 -16.743  -2.606  0.00  0.00     0.028 A 
ATOM      9  C   UNL d   1      30.165 -15.368  -2.617  0.00  0.00     0.030 A 
ATOM     10  C   UNL d   1      29.504 -14.759  -3.709  0.00  0.00     0.019 A 
ATOM     11  C   UNL d   1      29.221 -15.501  -4.861  0.00  0.00     0.032 A 
ATOM     12  C   UNL d   1      29.640 -16.829  -4.893  0.00  0.00     0.019 A 
ATOM     13  C   UNL d   1      30.187 -17.450  -3.774  0.00  0.00     0.030 A 
BRANCH  11  14
ATOM     14  C   UNL d   1      28.621 -14.857  -6.078  0.00  0.00     0.253 C 
ATOM     15  N   UNL d   1      29.373 -13.926  -6.856  0.00  0.00    -0.348 N 
ATOM     16  O   UNL d   1      27.461 -15.160  -6.355  0.00  0.00    -0.267 OA
BRANCH  15  17
ATOM     17  C   UNL d   1      28.630 -13.332  -8.019  0.00  0.00     0.125 C 
BRANCH  17  18
ATOM     18  C   UNL d   1      27.987 -11.969  -7.817  0.00  0.00     0.015 C 
ATOM     19  C   UNL d   1      28.563 -10.922  -6.918  0.00  0.00     0.006 C 
ENDBRANCH  17  18
ENDBRANCH  15  17
BRANCH  15  20
ATOM     20  C   UNL d   1      30.817 -13.687  -6.566  0.00  0.00     0.125 C 
BRANCH  20  21
ATOM     21  C   UNL d   1      31.871 -14.557  -7.208  0.00  0.00     0.015 C 
ATOM     22  C   UNL d   1      32.348 -15.784  -6.501  0.00  0.00     0.006 C 
ENDBRANCH  20  21
ENDBRANCH  15  20
ENDBRANCH  11  14
ENDBRANCH   6   8
ENDBRANCH   5   6
ENDBRANCH   1   5
BRANCH   3  23
ATOM     23  C   UNL d   1      26.765 -17.239  -0.571  0.00  0.00     0.035 A 
ATOM     24  C   UNL d   1      26.390 -15.911  -0.761  0.00  0.00     0.031 A 
ATOM     25  C   UNL d   1      25.035 -15.568  -0.803  0.00  0.00     0.027 A 
ATOM     26  C   UNL d   1      24.046 -16.549  -0.690  0.00  0.00     0.049 A 
ATOM     27 CL   UNL d   1      22.425 -15.959  -0.895  0.00  0.00    -0.083 Cl
ATOM     28  C   UNL d   1      24.415 -17.889  -0.462  0.00  0.00     0.055 A 
ATOM     29  C   UNL d   1      25.776 -18.212  -0.415  0.00  0.00     0.048 A 
BRANCH  28  30
ATOM     30  C   UNL d   1      23.388 -18.934  -0.209  0.00  0.00     0.253 C 
ATOM     31  O   UNL d   1      23.659 -20.074  -0.527  0.00  0.00    -0.268 OA
ATOM     32  N   UNL d   1      22.152 -18.575   0.326  0.00  0.00    -0.352 N 
ATOM     33  H   UNL d   1      21.985 -17.642   0.669  0.00  0.00     0.163 HD
BRANCH  32  34
ATOM     34  C   UNL d   1      21.078 -19.540   0.602  0.00  0.00     0.084 C 
ATOM     35  C   UNL d   1      20.580 -19.349   2.044  0.00  0.00     0.025 C 
ATOM     36  C   UNL d   1      19.390 -20.253   2.371  0.00  0.00     0.002 C 
ATOM     37  C   UNL d   1      18.255 -20.087   1.366  0.00  0.00     0.000 C 
ATOM     38  C   UNL d   1      18.746 -20.359  -0.042  0.00  0.00     0.002 C 
ATOM     39  C   UNL d   1      19.904 -19.453  -0.379  0.00  0.00     0.025 C 
ENDBRANCH  32  34
ENDBRANCH  28  30
ENDBRANCH   3  23
TORSDOF 11
ENDMDL
MODEL 8
REMARK VINA RESULT:    -7.805      4.621      7.807
REMARK INTER + INTRA:         -14.024
REMARK INTER:                 -11.086
REMARK INTRA:                  -2.938
REMARK CONF_INDEPENDENT:        3.281
REMARK UNBOUND:                -2.938
REMARK  11 active torsions:
REMARK  status: ('A' for Active; 'I' for Inactive)
REMARK    1  A    between atoms: C_2  and  C_3 
REMARK    2  A    between atoms: C_3  and  N_4 
REMARK    3  A    between atoms: N_4  and  C_5 
REMARK       I    between atoms: N_4  and  C_8 
REMARK    4  A    between atoms: C_5  and  C_6 
REMARK    5  A    between atoms: C_8  and  C_10 
REMARK    6  A    between atoms: C_13  and  N_14 
REMARK    7  A    between atoms: N_14  and  C_15 
REMARK    8  A    between atoms: C_15  and  C_16 
REMARK       I    between atoms: C_16  and  N_18 
REMARK    9  A    between atoms: N_18  and  C_19 
REMARK   10  A    between atoms: C_24  and  C_25 
REMARK       I    between atoms: C_25  and  N_27 
REMARK   11  A    between atoms: N_27  and  C_28 
ROOT
ATOM      1  C   UNL d   1      26.274  -8.425  -2.139  0.00  0.00     0.239 C 
ATOM      2  O   UNL d   1      27.503  -8.438  -2.237  0.00  0.00    -0.271 OA
ATOM      3  N   UNL d   1      25.437  -9.363  -2.746  0.00  0.00    -0.326 N 
ATOM      4  H   UNL d   1      24.437  -9.201  -2.784  0.00  0.00     0.169 HD
ENDROOT
BRANCH   1   5
ATOM      5  C   UNL d   1      25.569  -7.323  -1.334  0.00  0.00     0.223 C 
BRANCH   5   6
ATOM      6  N   UNL d   1      26.206  -7.174  -0.016  0.00  0.00    -0.381 N 
ATOM      7  H   UNL d   1      26.684  -6.284   0.134  0.00  0.00     0.160 HD
BRANCH   6   8
ATOM      8  C   UNL d   1      26.500  -8.241   0.809  0.00  0.00     0.028 A 
ATOM      9  C   UNL d   1      27.812  -8.723   0.948  0.00  0.00     0.030 A 
ATOM     10  C   UNL d   1      28.106  -9.844   1.759  0.00  0.00     0.019 A 
ATOM     11  C   UNL d   1      27.101 -10.431   2.536  0.00  0.00     0.032 A 
ATOM     12  C   UNL d   1      25.835  -9.853   2.498  0.00  0.00     0.019 A 
ATOM     13  C   UNL d   1      25.527  -8.823   1.613  0.00  0.00     0.030 A 
BRANCH  11  14
ATOM     14  C   UNL d   1      27.405 -11.550   3.492  0.00  0.00     0.253 C 
ATOM     15  N   UNL d   1      27.104 -12.902   3.151  0.00  0.00    -0.348 N 
ATOM     16  O   UNL d   1      27.906 -11.239   4.572  0.00  0.00    -0.267 OA
BRANCH  15  17
ATOM     17  C   UNL d   1      27.425 -13.908   4.220  0.00  0.00     0.125 C 
BRANCH  17  18
ATOM     18  C   UNL d   1      28.886 -14.278   4.418  0.00  0.00     0.015 C 
ATOM     19  C   UNL d   1      29.977 -13.795   3.516  0.00  0.00     0.006 C 
ENDBRANCH  17  18
ENDBRANCH  15  17
BRANCH  15  20
ATOM     20  C   UNL d   1      26.623 -13.250   1.782  0.00  0.00     0.125 C 
BRANCH  20  21
ATOM     21  C   UNL d   1      27.595 -13.301   0.628  0.00  0.00     0.015 C 
ATOM     22  C   UNL d   1      27.429 -12.359  -0.521  0.00  0.00     0.006 C 
ENDBRANCH  20  21
ENDBRANCH  15  20
ENDBRANCH  11  14
ENDBRANCH   6   8
ENDBRANCH   5   6
ENDBRANCH   1   5
BRANCH   3  23
ATOM     23  C   UNL d   1      25.945 -10.460  -3.481  0.00  0.00     0.035 A 
ATOM     24  C   UNL d   1      26.768 -10.260  -4.587  0.00  0.00     0.031 A 
ATOM     25  C   UNL d   1      27.223 -11.357  -5.325  0.00  0.00     0.027 A 
ATOM     26  C   UNL d   1      26.889 -12.660  -4.948  0.00  0.00     0.049 A 
ATOM     27 CL   UNL d   1      27.648 -13.898  -5.901  0.00  0.00    -0.083 Cl
ATOM     28  C   UNL d   1      26.029 -12.871  -3.853  0.00  0.00     0.055 A 
ATOM     29  C   UNL d   1      25.577 -11.760  -3.131  0.00  0.00     0.048 A 
BRANCH  28  30
ATOM     30  C   UNL d   1      25.552 -14.235  -3.505  0.00  0.00     0.253 C 
ATOM     31  O   UNL d   1      24.780 -14.771  -4.273  0.00  0.00    -0.268 OA
ATOM     32  N   UNL d   1      25.955 -14.826  -2.308  0.00  0.00    -0.352 N 
ATOM     33  H   UNL d   1      26.668 -14.404  -1.734  0.00  0.00     0.163 HD
BRANCH  32  34
ATOM     34  C   UNL d   1      25.527 -16.166  -1.882  0.00  0.00     0.084 C 
ATOM     35  C   UNL d   1      26.389 -16.621  -0.693  0.00  0.00     0.025 C 
ATOM     36  C   UNL d   1      25.933 -17.969  -0.129  0.00  0.00     0.002 C 
ATOM     37  C   UNL d   1      24.451 -17.965   0.230  0.00  0.00     0.000 C 
ATOM     38  C   UNL d   1      23.612 -17.593  -0.977  0.00  0.00     0.002 C 
ATOM     39  C   UNL d   1      24.040 -16.254  -1.522  0.00  0.00     0.025 C 
ENDBRANCH  32  34
ENDBRANCH  28  30
ENDBRANCH   3  23
TORSDOF 11
ENDMDL
MODEL 9
REMARK VINA RESULT:    -6.933      2.991      6.339
REMARK INTER + INTRA:         -13.282
REMARK INTER:                 -10.215
REMARK INTRA:                  -3.068
REMARK CONF_INDEPENDENT:        3.281
REMARK UNBOUND:                -3.068
REMARK  11 active torsions:
REMARK  status: ('A' for Active; 'I' for Inactive)
REMARK    1  A    between atoms: C_2  and  C_3 
REMARK    2  A    between atoms: C_3  and  N_4 
REMARK    3  A    between atoms: N_4  and  C_5 
REMARK       I    between atoms: N_4  and  C_8 
REMARK    4  A    between atoms: C_5  and  C_6 
REMARK    5  A    between atoms: C_8  and  C_10 
REMARK    6  A    between atoms: C_13  and  N_14 
REMARK    7  A    between atoms: N_14  and  C_15 
REMARK    8  A    between atoms: C_15  and  C_16 
REMARK       I    between atoms: C_16  and  N_18 
REMARK    9  A    between atoms: N_18  and  C_19 
REMARK   10  A    between atoms: C_24  and  C_25 
REMARK       I    between atoms: C_25  and  N_27 
REMARK   11  A    between atoms: N_27  and  C_28 
ROOT
ATOM      1  C   UNL d   1      29.678 -16.883  -0.144  0.00  0.00     0.239 C 
ATOM      2  O   UNL d   1      29.456 -15.737   0.255  0.00  0.00    -0.271 OA
ATOM      3  N   UNL d   1      28.678 -17.780  -0.525  0.00  0.00    -0.326 N 
ATOM      4  H   UNL d   1      28.903 -18.758  -0.668  0.00  0.00     0.169 HD
ENDROOT
BRANCH   1   5
ATOM      5  C   UNL d   1      31.118 -17.412  -0.225  0.00  0.00     0.223 C 
BRANCH   5   6
ATOM      6  N   UNL d   1      31.616 -17.313  -1.605  0.00  0.00    -0.381 N 
ATOM      7  H   UNL d   1      32.623 -17.438  -1.711  0.00  0.00     0.160 HD
BRANCH   6   8
ATOM      8  C   UNL d   1      30.903 -16.720  -2.627  0.00  0.00     0.028 A 
ATOM      9  C   UNL d   1      30.633 -15.340  -2.632  0.00  0.00     0.030 A 
ATOM     10  C   UNL d   1      29.865 -14.740  -3.656  0.00  0.00     0.019 A 
ATOM     11  C   UNL d   1      29.450 -15.497  -4.758  0.00  0.00     0.032 A 
ATOM     12  C   UNL d   1      29.847 -16.831  -4.811  0.00  0.00     0.019 A 
ATOM     13  C   UNL d   1      30.504 -17.442  -3.747  0.00  0.00     0.030 A 
BRANCH  11  14
ATOM     14  C   UNL d   1      28.731 -14.864  -5.915  0.00  0.00     0.253 C 
ATOM     15  N   UNL d   1      29.387 -13.910  -6.748  0.00  0.00    -0.348 N 
ATOM     16  O   UNL d   1      27.559 -15.198  -6.092  0.00  0.00    -0.267 OA
BRANCH  15  17
ATOM     17  C   UNL d   1      28.530 -13.332  -7.840  0.00  0.00     0.125 C 
BRANCH  17  18
ATOM     18  C   UNL d   1      29.218 -12.473  -8.888  0.00  0.00     0.015 C 
ATOM     19  C   UNL d   1      28.601 -12.153 -10.212  0.00  0.00     0.006 C 
ENDBRANCH  17  18
ENDBRANCH  15  17
BRANCH  15  20
ATOM     20  C   UNL d   1      30.843 -13.634  -6.583  0.00  0.00     0.125 C 
BRANCH  20  21
ATOM     21  C   UNL d   1      31.847 -14.753  -6.724  0.00  0.00     0.015 C 
ATOM     22  C   UNL d   1      31.559 -15.894  -7.645  0.00  0.00     0.006 C 
ENDBRANCH  20  21
ENDBRANCH  15  20
ENDBRANCH  11  14
ENDBRANCH   6   8
ENDBRANCH   5   6
ENDBRANCH   1   5
BRANCH   3  23
ATOM     23  C   UNL d   1      27.311 -17.419  -0.545  0.00  0.00     0.035 A 
ATOM     24  C   UNL d   1      26.361 -18.173   0.140  0.00  0.00     0.031 A 
ATOM     25  C   UNL d   1      25.010 -17.823   0.070  0.00  0.00     0.027 A 
ATOM     26  C   UNL d   1      24.599 -16.700  -0.654  0.00  0.00     0.049 A 
ATOM     27 CL   UNL d   1      22.904 -16.344  -0.522  0.00  0.00    -0.083 Cl
ATOM     28  C   UNL d   1      25.547 -15.952  -1.378  0.00  0.00     0.055 A 
ATOM     29  C   UNL d   1      26.895 -16.323  -1.303  0.00  0.00     0.048 A 
BRANCH  28  30
ATOM     30  C   UNL d   1      25.127 -14.831  -2.260  0.00  0.00     0.253 C 
ATOM     31  O   UNL d   1      24.028 -14.902  -2.770  0.00  0.00    -0.268 OA
ATOM     32  N   UNL d   1      26.007 -13.779  -2.511  0.00  0.00    -0.352 N 
ATOM     33  H   UNL d   1      26.874 -13.694  -2.003  0.00  0.00     0.163 HD
BRANCH  32  34
ATOM     34  C   UNL d   1      25.678 -12.636  -3.374  0.00  0.00     0.084 C 
ATOM     35  C   UNL d   1      26.283 -11.355  -2.775  0.00  0.00     0.025 C 
ATOM     36  C   UNL d   1      26.067 -10.136  -3.674  0.00  0.00     0.002 C 
ATOM     37  C   UNL d   1      26.572 -10.378  -5.093  0.00  0.00     0.000 C 
ATOM     38  C   UNL d   1      25.903 -11.597  -5.696  0.00  0.00     0.002 C 
ATOM     39  C   UNL d   1      26.134 -12.808  -4.826  0.00  0.00     0.025 C 
ENDBRANCH  32  34
ENDBRANCH  28  30
ENDBRANCH   3  23
TORSDOF 11
ENDMDL
