MODEL 1
REMARK VINA RESULT:    -8.861      0.000      0.000
REMARK INTER + INTRA:         -13.678
REMARK INTER:                 -11.545
REMARK INTRA:                  -2.133
REMARK CONF_INDEPENDENT:        2.685
REMARK UNBOUND:                -2.133
REMARK  9 active torsions:
REMARK  status: ('A' for Active; 'I' for Inactive)
REMARK    1  A    between atoms: C_2  and  O_3 
REMARK    2  A    between atoms: O_3  and  C_4 
REMARK    3  A    between atoms: C_8  and  C_9 
REMARK       I    between atoms: C_9  and  N_11 
REMARK    4  A    between atoms: N_11  and  C_12 
REMARK    5  A    between atoms: C_12  and  N_14 
REMARK    6  A    between atoms: N_14  and  N_15 
REMARK       I    between atoms: N_15  and  C_16 
REMARK    7  A    between atoms: C_16  and  C_18 
REMARK    8  A    between atoms: C_18  and  O_19 
REMARK    9  A    between atoms: O_19  and  C_20 
ROOT
ATOM      1  N   UNL d   1      27.890 -12.579  -1.590  0.00  0.00    -0.273 N 
ATOM      2  H   UNL d   1      28.572 -11.913  -1.950  0.00  0.00     0.189 HD
ENDROOT
BRANCH   1   3
ATOM      3  C   UNL d   1      26.794 -13.108  -2.299  0.00  0.00     0.193 C 
ATOM      4  S   UNL d   1      26.288 -12.368  -3.728  0.00  0.00    -0.039 SA
BRANCH   3   5
ATOM      5  N   UNL d   1      26.208 -14.255  -1.713  0.00  0.00    -0.298 N 
ATOM      6  C   UNL d   1      25.060 -14.955  -2.178  0.00  0.00     0.258 C 
ATOM      7  O   UNL d   1      24.419 -14.625  -3.163  0.00  0.00    -0.267 OA
ATOM      8  H   UNL d   1      26.669 -14.615  -0.896  0.00  0.00     0.171 HD
BRANCH   6   9
ATOM      9  C   UNL d   1      24.557 -16.188  -1.465  0.00  0.00     0.035 A 
ATOM     10  C   UNL d   1      25.528 -17.063  -0.924  0.00  0.00     0.017 A 
ATOM     11  C   UNL d   1      25.169 -18.204  -0.199  0.00  0.00     0.004 A 
ATOM     12  C   UNL d   1      23.825 -18.503  -0.025  0.00  0.00     0.037 A 
ATOM     13  C   UNL d   1      22.847 -17.657  -0.558  0.00  0.00     0.069 A 
ATOM     14  C   UNL d   1      23.212 -16.501  -1.270  0.00  0.00     0.053 A 
BRANCH  13  15
ATOM     15  O   UNL d   1      21.557 -17.986  -0.237  0.00  0.00    -0.351 OA
BRANCH  15  16
ATOM     16  C   UNL d   1      21.168 -19.324  -0.543  0.00  0.00     0.171 C 
ATOM     17  C   UNL d   1      19.745 -19.528  -0.062  0.00  0.00     0.034 C 
ENDBRANCH  15  16
ENDBRANCH  13  15
ENDBRANCH   6   9
ENDBRANCH   3   5
ENDBRANCH   1   3
BRANCH   1  18
ATOM     18  N   UNL d   1      28.111 -13.003  -0.218  0.00  0.00    -0.266 N 
ATOM     19  C   UNL d   1      28.530 -14.293   0.107  0.00  0.00     0.260 C 
ATOM     20  O   UNL d   1      28.765 -15.125  -0.772  0.00  0.00    -0.269 OA
ATOM     21  H   UNL d   1      27.889 -12.299   0.486  0.00  0.00     0.190 HD
BRANCH  19  22
ATOM     22  C   UNL d   1      28.656 -14.577   1.657  0.00  0.00     0.280 C 
BRANCH  22  23
ATOM     23  O   UNL d   1      28.090 -13.548   2.484  0.00  0.00    -0.341 OA
BRANCH  23  24
ATOM     24  C   UNL d   1      28.352 -13.473   3.840  0.00  0.00     0.087 C 
ATOM     25  C   UNL d   1      28.435 -14.732   4.443  0.00  0.00     0.039 C 
ATOM     26  C   UNL d   1      28.564 -14.863   5.826  0.00  0.00     0.015 C 
ATOM     27  C   UNL d   1      28.665 -13.741   6.651  0.00  0.00    -0.028 C 
ATOM     28  C   UNL d   1      29.046 -13.927   7.982  0.00  0.00    -0.005 C 
ATOM     29  C   UNL d   1      28.422 -12.443   6.162  0.00  0.00    -0.006 C 
ATOM     30  C   UNL d   1      29.369 -12.831   8.757  0.00  0.00     0.043 C 
ATOM     31  C   UNL d   1      28.529 -11.770   8.559  0.00  0.00    -0.016 C 
ATOM     32  C   UNL d   1      28.266 -11.450   7.220  0.00  0.00     0.010 C 
ATOM     33  C   UNL d   1      28.295 -12.337   4.702  0.00  0.00     0.055 C 
ATOM     34 BR   UNL d   1      28.009 -10.596   3.984  0.00  0.00    -0.047 Br
ENDBRANCH  23  24
ENDBRANCH  22  23
ENDBRANCH  19  22
ENDBRANCH   1  18
TORSDOF 9
ENDMDL
MODEL 2
REMARK VINA RESULT:    -8.501      3.024      9.261
REMARK INTER + INTRA:         -13.372
REMARK INTER:                 -11.185
REMARK INTRA:                  -2.187
REMARK CONF_INDEPENDENT:        2.685
REMARK UNBOUND:                -2.187
REMARK  9 active torsions:
REMARK  status: ('A' for Active; 'I' for Inactive)
REMARK    1  A    between atoms: C_2  and  O_3 
REMARK    2  A    between atoms: O_3  and  C_4 
REMARK    3  A    between atoms: C_8  and  C_9 
REMARK       I    between atoms: C_9  and  N_11 
REMARK    4  A    between atoms: N_11  and  C_12 
REMARK    5  A    between atoms: C_12  and  N_14 
REMARK    6  A    between atoms: N_14  and  N_15 
REMARK       I    between atoms: N_15  and  C_16 
REMARK    7  A    between atoms: C_16  and  C_18 
REMARK    8  A    between atoms: C_18  and  O_19 
REMARK    9  A    between atoms: O_19  and  C_20 
ROOT
ATOM      1  N   UNL d   1      28.663 -14.774   2.720  0.00  0.00    -0.273 N 
ATOM      2  H   UNL d   1      29.144 -15.325   3.430  0.00  0.00     0.189 HD
ENDROOT
BRANCH   1   3
ATOM      3  C   UNL d   1      27.790 -13.695   2.959  0.00  0.00     0.193 C 
ATOM      4  S   UNL d   1      26.614 -13.303   1.815  0.00  0.00    -0.039 SA
BRANCH   3   5
ATOM      5  N   UNL d   1      27.999 -13.025   4.188  0.00  0.00    -0.298 N 
ATOM      6  C   UNL d   1      28.424 -13.612   5.413  0.00  0.00     0.258 C 
ATOM      7  O   UNL d   1      28.650 -14.802   5.551  0.00  0.00    -0.267 OA
ATOM      8  H   UNL d   1      27.847 -12.033   4.179  0.00  0.00     0.171 HD
BRANCH   6   9
ATOM      9  C   UNL d   1      28.633 -12.768   6.649  0.00  0.00     0.035 A 
ATOM     10  C   UNL d   1      29.199 -11.484   6.467  0.00  0.00     0.017 A 
ATOM     11  C   UNL d   1      29.387 -10.604   7.537  0.00  0.00     0.004 A 
ATOM     12  C   UNL d   1      29.031 -11.005   8.818  0.00  0.00     0.037 A 
ATOM     13  C   UNL d   1      28.477 -12.272   9.022  0.00  0.00     0.069 A 
ATOM     14  C   UNL d   1      28.273 -13.148   7.942  0.00  0.00     0.053 A 
BRANCH  13  15
ATOM     15  O   UNL d   1      28.064 -12.525  10.304  0.00  0.00    -0.351 OA
BRANCH  15  16
ATOM     16  C   UNL d   1      28.150 -13.887  10.721  0.00  0.00     0.171 C 
ATOM     17  C   UNL d   1      28.847 -13.930  12.066  0.00  0.00     0.034 C 
ENDBRANCH  15  16
ENDBRANCH  13  15
ENDBRANCH   6   9
ENDBRANCH   3   5
ENDBRANCH   1   3
BRANCH   1  18
ATOM     18  N   UNL d   1      28.938 -15.165   1.349  0.00  0.00    -0.266 N 
ATOM     19  C   UNL d   1      29.208 -14.234   0.346  0.00  0.00     0.260 C 
ATOM     20  O   UNL d   1      29.257 -13.027   0.596  0.00  0.00    -0.269 OA
ATOM     21  H   UNL d   1      28.870 -16.167   1.171  0.00  0.00     0.190 HD
BRANCH  19  22
ATOM     22  C   UNL d   1      29.423 -14.854  -1.092  0.00  0.00     0.280 C 
BRANCH  22  23
ATOM     23  O   UNL d   1      29.043 -16.235  -1.192  0.00  0.00    -0.341 OA
BRANCH  23  24
ATOM     24  C   UNL d   1      27.774 -16.671  -0.855  0.00  0.00     0.087 C 
ATOM     25  C   UNL d   1      27.793 -17.835  -0.080  0.00  0.00     0.039 C 
ATOM     26  C   UNL d   1      26.613 -18.502   0.250  0.00  0.00     0.015 C 
ATOM     27  C   UNL d   1      25.369 -18.002  -0.140  0.00  0.00    -0.028 C 
ATOM     28  C   UNL d   1      24.220 -18.560   0.428  0.00  0.00    -0.005 C 
ATOM     29  C   UNL d   1      25.256 -16.941  -1.059  0.00  0.00    -0.006 C 
ATOM     30  C   UNL d   1      22.999 -17.947   0.236  0.00  0.00     0.043 C 
ATOM     31  C   UNL d   1      22.825 -17.490  -1.042  0.00  0.00    -0.016 C 
ATOM     32  C   UNL d   1      23.902 -16.771  -1.577  0.00  0.00     0.010 C 
ATOM     33  C   UNL d   1      26.515 -16.257  -1.383  0.00  0.00     0.055 C 
ATOM     34 BR   UNL d   1      26.413 -14.786  -2.589  0.00  0.00    -0.047 Br
ENDBRANCH  23  24
ENDBRANCH  22  23
ENDBRANCH  19  22
ENDBRANCH   1  18
TORSDOF 9
ENDMDL
MODEL 3
REMARK VINA RESULT:    -8.362      5.453      7.262
REMARK INTER + INTRA:         -14.157
REMARK INTER:                 -11.047
REMARK INTRA:                  -3.111
REMARK CONF_INDEPENDENT:        2.685
REMARK UNBOUND:                -3.111
REMARK  9 active torsions:
REMARK  status: ('A' for Active; 'I' for Inactive)
REMARK    1  A    between atoms: C_2  and  O_3 
REMARK    2  A    between atoms: O_3  and  C_4 
REMARK    3  A    between atoms: C_8  and  C_9 
REMARK       I    between atoms: C_9  and  N_11 
REMARK    4  A    between atoms: N_11  and  C_12 
REMARK    5  A    between atoms: C_12  and  N_14 
REMARK    6  A    between atoms: N_14  and  N_15 
REMARK       I    between atoms: N_15  and  C_16 
REMARK    7  A    between atoms: C_16  and  C_18 
REMARK    8  A    between atoms: C_18  and  O_19 
REMARK    9  A    between atoms: O_19  and  C_20 
ROOT
ATOM      1  N   UNL d   1      25.638 -12.382  -4.971  0.00  0.00    -0.273 N 
ATOM      2  H   UNL d   1      24.899 -12.072  -5.601  0.00  0.00     0.189 HD
ENDROOT
BRANCH   1   3
ATOM      3  C   UNL d   1      25.754 -12.057  -3.605  0.00  0.00     0.193 C 
ATOM      4  S   UNL d   1      25.928 -10.444  -3.143  0.00  0.00    -0.039 SA
BRANCH   3   5
ATOM      5  N   UNL d   1      25.709 -13.166  -2.727  0.00  0.00    -0.298 N 
ATOM      6  C   UNL d   1      25.295 -14.489  -3.050  0.00  0.00     0.258 C 
ATOM      7  O   UNL d   1      24.905 -14.825  -4.155  0.00  0.00    -0.267 OA
ATOM      8  H   UNL d   1      26.020 -12.995  -1.788  0.00  0.00     0.171 HD
BRANCH   6   9
ATOM      9  C   UNL d   1      25.322 -15.588  -2.014  0.00  0.00     0.035 A 
ATOM     10  C   UNL d   1      26.336 -15.522  -1.029  0.00  0.00     0.017 A 
ATOM     11  C   UNL d   1      26.419 -16.459   0.006  0.00  0.00     0.004 A 
ATOM     12  C   UNL d   1      25.498 -17.497   0.059  0.00  0.00     0.037 A 
ATOM     13  C   UNL d   1      24.492 -17.586  -0.908  0.00  0.00     0.069 A 
ATOM     14  C   UNL d   1      24.401 -16.632  -1.937  0.00  0.00     0.053 A 
BRANCH  13  15
ATOM     15  O   UNL d   1      23.575 -18.583  -0.703  0.00  0.00    -0.351 OA
BRANCH  15  16
ATOM     16  C   UNL d   1      22.287 -18.154  -0.265  0.00  0.00     0.171 C 
ATOM     17  C   UNL d   1      21.249 -19.092  -0.850  0.00  0.00     0.034 C 
ENDBRANCH  15  16
ENDBRANCH  13  15
ENDBRANCH   6   9
ENDBRANCH   3   5
ENDBRANCH   1   3
BRANCH   1  18
ATOM     18  N   UNL d   1      26.639 -13.244  -5.575  0.00  0.00    -0.266 N 
ATOM     19  C   UNL d   1      27.799 -12.743  -6.166  0.00  0.00     0.260 C 
ATOM     20  O   UNL d   1      28.039 -11.533  -6.168  0.00  0.00    -0.269 OA
ATOM     21  H   UNL d   1      26.402 -14.236  -5.575  0.00  0.00     0.190 HD
BRANCH  19  22
ATOM     22  C   UNL d   1      28.734 -13.836  -6.820  0.00  0.00     0.280 C 
BRANCH  22  23
ATOM     23  O   UNL d   1      28.379 -15.185  -6.477  0.00  0.00    -0.341 OA
BRANCH  23  24
ATOM     24  C   UNL d   1      28.818 -15.783  -5.309  0.00  0.00     0.087 C 
ATOM     25  C   UNL d   1      28.286 -15.182  -4.164  0.00  0.00     0.039 C 
ATOM     26  C   UNL d   1      28.709 -15.557  -2.888  0.00  0.00     0.015 C 
ATOM     27  C   UNL d   1      29.642 -16.581  -2.710  0.00  0.00    -0.028 C 
ATOM     28  C   UNL d   1      29.836 -17.087  -1.422  0.00  0.00    -0.005 C 
ATOM     29  C   UNL d   1      30.356 -17.124  -3.795  0.00  0.00    -0.006 C 
ATOM     30  C   UNL d   1      30.578 -18.237  -1.247  0.00  0.00     0.043 C 
ATOM     31  C   UNL d   1      31.693 -18.280  -2.038  0.00  0.00    -0.016 C 
ATOM     32  C   UNL d   1      31.491 -17.944  -3.384  0.00  0.00     0.010 C 
ATOM     33  C   UNL d   1      29.884 -16.713  -5.125  0.00  0.00     0.055 C 
ATOM     34 BR   UNL d   1      30.788 -17.453  -6.629  0.00  0.00    -0.047 Br
ENDBRANCH  23  24
ENDBRANCH  22  23
ENDBRANCH  19  22
ENDBRANCH   1  18
TORSDOF 9
ENDMDL
MODEL 4
REMARK VINA RESULT:    -8.350      1.895      2.661
REMARK INTER + INTRA:         -13.480
REMARK INTER:                 -11.035
REMARK INTRA:                  -2.446
REMARK CONF_INDEPENDENT:        2.685
REMARK UNBOUND:                -2.446
REMARK  9 active torsions:
REMARK  status: ('A' for Active; 'I' for Inactive)
REMARK    1  A    between atoms: C_2  and  O_3 
REMARK    2  A    between atoms: O_3  and  C_4 
REMARK    3  A    between atoms: C_8  and  C_9 
REMARK       I    between atoms: C_9  and  N_11 
REMARK    4  A    between atoms: N_11  and  C_12 
REMARK    5  A    between atoms: C_12  and  N_14 
REMARK    6  A    between atoms: N_14  and  N_15 
REMARK       I    between atoms: N_15  and  C_16 
REMARK    7  A    between atoms: C_16  and  C_18 
REMARK    8  A    between atoms: C_18  and  O_19 
REMARK    9  A    between atoms: O_19  and  C_20 
ROOT
ATOM      1  N   UNL d   1      25.820 -12.751  -3.349  0.00  0.00    -0.273 N 
ATOM      2  H   UNL d   1      25.301 -11.992  -3.788  0.00  0.00     0.189 HD
ENDROOT
BRANCH   1   3
ATOM      3  C   UNL d   1      26.017 -14.039  -3.886  0.00  0.00     0.193 C 
ATOM      4  S   UNL d   1      26.978 -14.234  -5.258  0.00  0.00    -0.039 SA
BRANCH   3   5
ATOM      5  N   UNL d   1      25.360 -15.078  -3.185  0.00  0.00    -0.298 N 
ATOM      6  C   UNL d   1      25.498 -15.391  -1.803  0.00  0.00     0.258 C 
ATOM      7  O   UNL d   1      26.235 -14.785  -1.043  0.00  0.00    -0.267 OA
ATOM      8  H   UNL d   1      24.720 -15.634  -3.723  0.00  0.00     0.171 HD
BRANCH   6   9
ATOM      9  C   UNL d   1      24.711 -16.518  -1.178  0.00  0.00     0.035 A 
ATOM     10  C   UNL d   1      25.435 -17.461  -0.409  0.00  0.00     0.017 A 
ATOM     11  C   UNL d   1      24.796 -18.513   0.256  0.00  0.00     0.004 A 
ATOM     12  C   UNL d   1      23.420 -18.654   0.143  0.00  0.00     0.037 A 
ATOM     13  C   UNL d   1      22.686 -17.738  -0.618  0.00  0.00     0.069 A 
ATOM     14  C   UNL d   1      23.329 -16.671  -1.270  0.00  0.00     0.053 A 
BRANCH  13  15
ATOM     15  O   UNL d   1      21.327 -17.905  -0.576  0.00  0.00    -0.351 OA
BRANCH  15  16
ATOM     16  C   UNL d   1      20.859 -19.222  -0.866  0.00  0.00     0.171 C 
ATOM     17  C   UNL d   1      19.419 -19.327  -0.405  0.00  0.00     0.034 C 
ENDBRANCH  15  16
ENDBRANCH  13  15
ENDBRANCH   6   9
ENDBRANCH   3   5
ENDBRANCH   1   3
BRANCH   1  18
ATOM     18  N   UNL d   1      26.402 -12.431  -2.058  0.00  0.00    -0.266 N 
ATOM     19  C   UNL d   1      27.676 -11.877  -1.929  0.00  0.00     0.260 C 
ATOM     20  O   UNL d   1      28.353 -11.603  -2.923  0.00  0.00    -0.269 OA
ATOM     21  H   UNL d   1      25.826 -12.687  -1.256  0.00  0.00     0.190 HD
BRANCH  19  22
ATOM     22  C   UNL d   1      28.153 -11.656  -0.439  0.00  0.00     0.280 C 
BRANCH  22  23
ATOM     23  O   UNL d   1      27.093 -11.719   0.527  0.00  0.00    -0.341 OA
BRANCH  23  24
ATOM     24  C   UNL d   1      27.334 -11.992   1.862  0.00  0.00     0.087 C 
ATOM     25  C   UNL d   1      27.336 -10.840   2.654  0.00  0.00     0.039 C 
ATOM     26  C   UNL d   1      27.688 -10.892   4.003  0.00  0.00     0.015 C 
ATOM     27  C   UNL d   1      28.003 -12.105   4.620  0.00  0.00    -0.028 C 
ATOM     28  C   UNL d   1      28.097 -12.137   6.014  0.00  0.00    -0.005 C 
ATOM     29  C   UNL d   1      28.193 -13.284   3.874  0.00  0.00    -0.006 C 
ATOM     30  C   UNL d   1      28.184 -13.352   6.663  0.00  0.00     0.043 C 
ATOM     31  C   UNL d   1      29.007 -14.240   6.027  0.00  0.00    -0.016 C 
ATOM     32  C   UNL d   1      28.815 -14.357   4.643  0.00  0.00     0.010 C 
ATOM     33  C   UNL d   1      27.810 -13.198   2.458  0.00  0.00     0.055 C 
ATOM     34 BR   UNL d   1      28.006 -14.777   1.412  0.00  0.00    -0.047 Br
ENDBRANCH  23  24
ENDBRANCH  22  23
ENDBRANCH  19  22
ENDBRANCH   1  18
TORSDOF 9
ENDMDL
MODEL 5
REMARK VINA RESULT:    -8.017      3.589      8.467
REMARK INTER + INTRA:         -13.315
REMARK INTER:                 -10.702
REMARK INTRA:                  -2.614
REMARK CONF_INDEPENDENT:        2.685
REMARK UNBOUND:                -2.614
REMARK  9 active torsions:
REMARK  status: ('A' for Active; 'I' for Inactive)
REMARK    1  A    between atoms: C_2  and  O_3 
REMARK    2  A    between atoms: O_3  and  C_4 
REMARK    3  A    between atoms: C_8  and  C_9 
REMARK       I    between atoms: C_9  and  N_11 
REMARK    4  A    between atoms: N_11  and  C_12 
REMARK    5  A    between atoms: C_12  and  N_14 
REMARK    6  A    between atoms: N_14  and  N_15 
REMARK       I    between atoms: N_15  and  C_16 
REMARK    7  A    between atoms: C_16  and  C_18 
REMARK    8  A    between atoms: C_18  and  O_19 
REMARK    9  A    between atoms: O_19  and  C_20 
ROOT
ATOM      1  N   UNL d   1      32.805 -16.143   1.324  0.00  0.00    -0.273 N 
ATOM      2  H   UNL d   1      33.566 -16.803   1.169  0.00  0.00     0.189 HD
ENDROOT
BRANCH   1   3
ATOM      3  C   UNL d   1      32.900 -14.914   2.007  0.00  0.00     0.193 C 
ATOM      4  S   UNL d   1      34.224 -13.905   1.729  0.00  0.00    -0.039 SA
BRANCH   3   5
ATOM      5  N   UNL d   1      31.829 -14.643   2.890  0.00  0.00    -0.298 N 
ATOM      6  C   UNL d   1      30.488 -14.332   2.529  0.00  0.00     0.258 C 
ATOM      7  O   UNL d   1      30.100 -14.246   1.376  0.00  0.00    -0.267 OA
ATOM      8  H   UNL d   1      32.043 -14.697   3.870  0.00  0.00     0.171 HD
BRANCH   6   9
ATOM      9  C   UNL d   1      29.433 -14.090   3.583  0.00  0.00     0.035 A 
ATOM     10  C   UNL d   1      28.096 -13.960   3.141  0.00  0.00     0.017 A 
ATOM     11  C   UNL d   1      27.037 -13.786   4.038  0.00  0.00     0.004 A 
ATOM     12  C   UNL d   1      27.304 -13.715   5.399  0.00  0.00     0.037 A 
ATOM     13  C   UNL d   1      28.619 -13.833   5.858  0.00  0.00     0.069 A 
ATOM     14  C   UNL d   1      29.679 -14.026   4.954  0.00  0.00     0.053 A 
BRANCH  13  15
ATOM     15  O   UNL d   1      28.759 -13.857   7.221  0.00  0.00    -0.351 OA
BRANCH  15  16
ATOM     16  C   UNL d   1      29.081 -12.606   7.828  0.00  0.00     0.171 C 
ATOM     17  C   UNL d   1      30.586 -12.533   7.999  0.00  0.00     0.034 C 
ENDBRANCH  15  16
ENDBRANCH  13  15
ENDBRANCH   6   9
ENDBRANCH   3   5
ENDBRANCH   1   3
BRANCH   1  18
ATOM     18  N   UNL d   1      31.524 -16.539   0.766  0.00  0.00    -0.266 N 
ATOM     19  C   UNL d   1      31.404 -17.097  -0.506  0.00  0.00     0.260 C 
ATOM     20  O   UNL d   1      32.398 -17.308  -1.204  0.00  0.00    -0.269 OA
ATOM     21  H   UNL d   1      30.720 -16.333   1.359  0.00  0.00     0.190 HD
BRANCH  19  22
ATOM     22  C   UNL d   1      29.920 -17.407  -0.955  0.00  0.00     0.280 C 
BRANCH  22  23
ATOM     23  O   UNL d   1      28.953 -16.476  -0.445  0.00  0.00    -0.341 OA
BRANCH  23  24
ATOM     24  C   UNL d   1      27.620 -16.818  -0.290  0.00  0.00     0.087 C 
ATOM     25  C   UNL d   1      27.450 -18.136   0.144  0.00  0.00     0.039 C 
ATOM     26  C   UNL d   1      26.181 -18.708   0.235  0.00  0.00     0.015 C 
ATOM     27  C   UNL d   1      25.034 -17.967  -0.056  0.00  0.00    -0.028 C 
ATOM     28  C   UNL d   1      23.791 -18.501   0.294  0.00  0.00    -0.005 C 
ATOM     29  C   UNL d   1      25.110 -16.697  -0.659  0.00  0.00    -0.006 C 
ATOM     30  C   UNL d   1      22.664 -17.707   0.225  0.00  0.00     0.043 C 
ATOM     31  C   UNL d   1      22.638 -16.913  -0.888  0.00  0.00    -0.016 C 
ATOM     32  C   UNL d   1      23.826 -16.224  -1.167  0.00  0.00     0.010 C 
ATOM     33  C   UNL d   1      26.459 -16.121  -0.737  0.00  0.00     0.055 C 
ATOM     34 BR   UNL d   1      26.614 -14.385  -1.505  0.00  0.00    -0.047 Br
ENDBRANCH  23  24
ENDBRANCH  22  23
ENDBRANCH  19  22
ENDBRANCH   1  18
TORSDOF 9
ENDMDL
MODEL 6
REMARK VINA RESULT:    -7.990      2.014      2.684
REMARK INTER + INTRA:         -13.582
REMARK INTER:                 -10.675
REMARK INTRA:                  -2.908
REMARK CONF_INDEPENDENT:        2.685
REMARK UNBOUND:                -2.908
REMARK  9 active torsions:
REMARK  status: ('A' for Active; 'I' for Inactive)
REMARK    1  A    between atoms: C_2  and  O_3 
REMARK    2  A    between atoms: O_3  and  C_4 
REMARK    3  A    between atoms: C_8  and  C_9 
REMARK       I    between atoms: C_9  and  N_11 
REMARK    4  A    between atoms: N_11  and  C_12 
REMARK    5  A    between atoms: C_12  and  N_14 
REMARK    6  A    between atoms: N_14  and  N_15 
REMARK       I    between atoms: N_15  and  C_16 
REMARK    7  A    between atoms: C_16  and  C_18 
REMARK    8  A    between atoms: C_18  and  O_19 
REMARK    9  A    between atoms: O_19  and  C_20 
ROOT
ATOM      1  N   UNL d   1      28.915 -14.720  -3.804  0.00  0.00    -0.273 N 
ATOM      2  H   UNL d   1      29.582 -14.348  -4.479  0.00  0.00     0.189 HD
ENDROOT
BRANCH   1   3
ATOM      3  C   UNL d   1      27.563 -15.025  -4.056  0.00  0.00     0.193 C 
ATOM      4  S   UNL d   1      26.827 -14.455  -5.462  0.00  0.00    -0.039 SA
BRANCH   3   5
ATOM      5  N   UNL d   1      26.939 -15.814  -3.060  0.00  0.00    -0.298 N 
ATOM      6  C   UNL d   1      25.597 -15.698  -2.601  0.00  0.00     0.258 C 
ATOM      7  O   UNL d   1      24.809 -14.866  -3.020  0.00  0.00    -0.267 OA
ATOM      8  H   UNL d   1      27.505 -16.539  -2.656  0.00  0.00     0.171 HD
BRANCH   6   9
ATOM      9  C   UNL d   1      25.052 -16.629  -1.545  0.00  0.00     0.035 A 
ATOM     10  C   UNL d   1      25.993 -17.341  -0.763  0.00  0.00     0.017 A 
ATOM     11  C   UNL d   1      25.596 -18.188   0.276  0.00  0.00     0.004 A 
ATOM     12  C   UNL d   1      24.242 -18.357   0.536  0.00  0.00     0.037 A 
ATOM     13  C   UNL d   1      23.295 -17.670  -0.228  0.00  0.00     0.069 A 
ATOM     14  C   UNL d   1      23.698 -16.804  -1.261  0.00  0.00     0.053 A 
BRANCH  13  15
ATOM     15  O   UNL d   1      21.996 -17.825   0.179  0.00  0.00    -0.351 OA
BRANCH  15  16
ATOM     16  C   UNL d   1      21.471 -19.147   0.076  0.00  0.00     0.171 C 
ATOM     17  C   UNL d   1      20.308 -19.123  -0.896  0.00  0.00     0.034 C 
ENDBRANCH  15  16
ENDBRANCH  13  15
ENDBRANCH   6   9
ENDBRANCH   3   5
ENDBRANCH   1   3
BRANCH   1  18
ATOM     18  N   UNL d   1      29.451 -14.950  -2.474  0.00  0.00    -0.266 N 
ATOM     19  C   UNL d   1      29.642 -16.230  -1.956  0.00  0.00     0.260 C 
ATOM     20  O   UNL d   1      29.390 -17.232  -2.629  0.00  0.00    -0.269 OA
ATOM     21  H   UNL d   1      29.631 -14.102  -1.935  0.00  0.00     0.190 HD
BRANCH  19  22
ATOM     22  C   UNL d   1      30.180 -16.270  -0.470  0.00  0.00     0.280 C 
BRANCH  22  23
ATOM     23  O   UNL d   1      30.498 -14.977   0.067  0.00  0.00    -0.341 OA
BRANCH  23  24
ATOM     24  C   UNL d   1      30.148 -14.613   1.356  0.00  0.00     0.087 C 
ATOM     25  C   UNL d   1      31.187 -14.809   2.271  0.00  0.00     0.039 C 
ATOM     26  C   UNL d   1      30.987 -14.624   3.640  0.00  0.00     0.015 C 
ATOM     27  C   UNL d   1      29.756 -14.189   4.137  0.00  0.00    -0.028 C 
ATOM     28  C   UNL d   1      29.686 -13.778   5.471  0.00  0.00    -0.005 C 
ATOM     29  C   UNL d   1      28.611 -14.131   3.320  0.00  0.00    -0.006 C 
ATOM     30  C   UNL d   1      28.552 -13.139   5.927  0.00  0.00     0.043 C 
ATOM     31  C   UNL d   1      27.396 -13.697   5.453  0.00  0.00    -0.016 C 
ATOM     32  C   UNL d   1      27.374 -13.961   4.077  0.00  0.00     0.010 C 
ATOM     33  C   UNL d   1      28.854 -14.326   1.885  0.00  0.00     0.055 C 
ATOM     34 BR   UNL d   1      27.344 -14.213   0.729  0.00  0.00    -0.047 Br
ENDBRANCH  23  24
ENDBRANCH  22  23
ENDBRANCH  19  22
ENDBRANCH   1  18
TORSDOF 9
ENDMDL
MODEL 7
REMARK VINA RESULT:    -7.595      4.709      6.353
REMARK INTER + INTRA:         -13.331
REMARK INTER:                 -10.280
REMARK INTRA:                  -3.052
REMARK CONF_INDEPENDENT:        2.685
REMARK UNBOUND:                -3.052
REMARK  9 active torsions:
REMARK  status: ('A' for Active; 'I' for Inactive)
REMARK    1  A    between atoms: C_2  and  O_3 
REMARK    2  A    between atoms: O_3  and  C_4 
REMARK    3  A    between atoms: C_8  and  C_9 
REMARK       I    between atoms: C_9  and  N_11 
REMARK    4  A    between atoms: N_11  and  C_12 
REMARK    5  A    between atoms: C_12  and  N_14 
REMARK    6  A    between atoms: N_14  and  N_15 
REMARK       I    between atoms: N_15  and  C_16 
REMARK    7  A    between atoms: C_16  and  C_18 
REMARK    8  A    between atoms: C_18  and  O_19 
REMARK    9  A    between atoms: O_19  and  C_20 
ROOT
ATOM      1  N   UNL d   1      25.525 -13.309  -4.862  0.00  0.00    -0.273 N 
ATOM      2  H   UNL d   1      24.679 -13.520  -5.390  0.00  0.00     0.189 HD
ENDROOT
BRANCH   1   3
ATOM      3  C   UNL d   1      25.600 -13.075  -3.475  0.00  0.00     0.193 C 
ATOM      4  S   UNL d   1      26.193 -11.601  -2.908  0.00  0.00    -0.039 SA
BRANCH   3   5
ATOM      5  N   UNL d   1      25.148 -14.147  -2.669  0.00  0.00    -0.298 N 
ATOM      6  C   UNL d   1      25.756 -15.427  -2.539  0.00  0.00     0.258 C 
ATOM      7  O   UNL d   1      26.763 -15.761  -3.140  0.00  0.00    -0.267 OA
ATOM      8  H   UNL d   1      24.324 -13.968  -2.123  0.00  0.00     0.171 HD
BRANCH   6   9
ATOM      9  C   UNL d   1      25.177 -16.474  -1.617  0.00  0.00     0.035 A 
ATOM     10  C   UNL d   1      26.089 -17.214  -0.828  0.00  0.00     0.017 A 
ATOM     11  C   UNL d   1      25.655 -18.171   0.096  0.00  0.00     0.004 A 
ATOM     12  C   UNL d   1      24.295 -18.420   0.229  0.00  0.00     0.037 A 
ATOM     13  C   UNL d   1      23.377 -17.705  -0.546  0.00  0.00     0.069 A 
ATOM     14  C   UNL d   1      23.816 -16.732  -1.461  0.00  0.00     0.053 A 
BRANCH  13  15
ATOM     15  O   UNL d   1      22.060 -17.951  -0.260  0.00  0.00    -0.351 OA
BRANCH  15  16
ATOM     16  C   UNL d   1      21.497 -19.100  -0.893  0.00  0.00     0.171 C 
ATOM     17  C   UNL d   1      19.988 -18.953  -0.890  0.00  0.00     0.034 C 
ENDBRANCH  15  16
ENDBRANCH  13  15
ENDBRANCH   6   9
ENDBRANCH   3   5
ENDBRANCH   1   3
BRANCH   1  18
ATOM     18  N   UNL d   1      26.745 -13.264  -5.649  0.00  0.00    -0.266 N 
ATOM     19  C   UNL d   1      27.420 -14.417  -6.047  0.00  0.00     0.260 C 
ATOM     20  O   UNL d   1      26.983 -15.537  -5.771  0.00  0.00    -0.269 OA
ATOM     21  H   UNL d   1      27.092 -12.325  -5.843  0.00  0.00     0.190 HD
BRANCH  19  22
ATOM     22  C   UNL d   1      28.760 -14.158  -6.846  0.00  0.00     0.280 C 
BRANCH  22  23
ATOM     23  O   UNL d   1      29.916 -14.772  -6.257  0.00  0.00    -0.341 OA
BRANCH  23  24
ATOM     24  C   UNL d   1      29.898 -15.281  -4.970  0.00  0.00     0.087 C 
ATOM     25  C   UNL d   1      29.852 -16.679  -4.945  0.00  0.00     0.039 C 
ATOM     26  C   UNL d   1      29.698 -17.375  -3.746  0.00  0.00     0.015 C 
ATOM     27  C   UNL d   1      29.634 -16.701  -2.524  0.00  0.00    -0.028 C 
ATOM     28  C   UNL d   1      29.737 -17.448  -1.347  0.00  0.00    -0.005 C 
ATOM     29  C   UNL d   1      29.501 -15.301  -2.461  0.00  0.00    -0.006 C 
ATOM     30  C   UNL d   1      29.901 -16.798  -0.141  0.00  0.00     0.043 C 
ATOM     31  C   UNL d   1      29.123 -15.679  -0.026  0.00  0.00    -0.016 C 
ATOM     32  C   UNL d   1      29.138 -14.818  -1.132  0.00  0.00     0.010 C 
ATOM     33  C   UNL d   1      29.672 -14.597  -3.739  0.00  0.00     0.055 C 
ATOM     34 BR   UNL d   1      29.545 -12.697  -3.702  0.00  0.00    -0.047 Br
ENDBRANCH  23  24
ENDBRANCH  22  23
ENDBRANCH  19  22
ENDBRANCH   1  18
TORSDOF 9
ENDMDL
MODEL 8
REMARK VINA RESULT:    -7.112      5.161      7.557
REMARK INTER + INTRA:         -13.395
REMARK INTER:                  -9.797
REMARK INTRA:                  -3.598
REMARK CONF_INDEPENDENT:        2.685
REMARK UNBOUND:                -3.598
REMARK  9 active torsions:
REMARK  status: ('A' for Active; 'I' for Inactive)
REMARK    1  A    between atoms: C_2  and  O_3 
REMARK    2  A    between atoms: O_3  and  C_4 
REMARK    3  A    between atoms: C_8  and  C_9 
REMARK       I    between atoms: C_9  and  N_11 
REMARK    4  A    between atoms: N_11  and  C_12 
REMARK    5  A    between atoms: C_12  and  N_14 
REMARK    6  A    between atoms: N_14  and  N_15 
REMARK       I    between atoms: N_15  and  C_16 
REMARK    7  A    between atoms: C_16  and  C_18 
REMARK    8  A    between atoms: C_18  and  O_19 
REMARK    9  A    between atoms: O_19  and  C_20 
ROOT
ATOM      1  N   UNL d   1      30.265 -14.078  -2.565  0.00  0.00    -0.273 N 
ATOM      2  H   UNL d   1      31.227 -14.014  -2.231  0.00  0.00     0.189 HD
ENDROOT
BRANCH   1   3
ATOM      3  C   UNL d   1      29.111 -13.731  -1.836  0.00  0.00     0.193 C 
ATOM      4  S   UNL d   1      28.844 -12.120  -1.412  0.00  0.00    -0.039 SA
BRANCH   3   5
ATOM      5  N   UNL d   1      28.259 -14.817  -1.524  0.00  0.00    -0.298 N 
ATOM      6  C   UNL d   1      26.902 -14.738  -1.103  0.00  0.00     0.258 C 
ATOM      7  O   UNL d   1      26.302 -13.688  -0.944  0.00  0.00    -0.267 OA
ATOM      8  H   UNL d   1      28.657 -15.732  -1.633  0.00  0.00     0.171 HD
BRANCH   6   9
ATOM      9  C   UNL d   1      26.098 -15.988  -0.828  0.00  0.00     0.035 A 
ATOM     10  C   UNL d   1      26.750 -17.035  -0.134  0.00  0.00     0.017 A 
ATOM     11  C   UNL d   1      26.082 -18.212   0.218  0.00  0.00     0.004 A 
ATOM     12  C   UNL d   1      24.751 -18.373  -0.143  0.00  0.00     0.037 A 
ATOM     13  C   UNL d   1      24.089 -17.354  -0.836  0.00  0.00     0.069 A 
ATOM     14  C   UNL d   1      24.759 -16.164  -1.172  0.00  0.00     0.053 A 
BRANCH  13  15
ATOM     15  O   UNL d   1      22.753 -17.569  -1.048  0.00  0.00    -0.351 OA
BRANCH  15  16
ATOM     16  C   UNL d   1      22.196 -18.697  -0.375  0.00  0.00     0.171 C 
ATOM     17  C   UNL d   1      20.803 -18.938  -0.922  0.00  0.00     0.034 C 
ENDBRANCH  15  16
ENDBRANCH  13  15
ENDBRANCH   6   9
ENDBRANCH   3   5
ENDBRANCH   1   3
BRANCH   1  18
ATOM     18  N   UNL d   1      30.118 -14.568  -3.923  0.00  0.00    -0.266 N 
ATOM     19  C   UNL d   1      29.633 -15.844  -4.209  0.00  0.00     0.260 C 
ATOM     20  O   UNL d   1      29.274 -16.605  -3.307  0.00  0.00    -0.269 OA
ATOM     21  H   UNL d   1      30.442 -13.924  -4.645  0.00  0.00     0.190 HD
BRANCH  19  22
ATOM     22  C   UNL d   1      29.602 -16.212  -5.747  0.00  0.00     0.280 C 
BRANCH  22  23
ATOM     23  O   UNL d   1      28.552 -15.562  -6.479  0.00  0.00    -0.341 OA
BRANCH  23  24
ATOM     24  C   UNL d   1      28.044 -14.333  -6.094  0.00  0.00     0.087 C 
ATOM     25  C   UNL d   1      28.870 -13.269  -6.468  0.00  0.00     0.039 C 
ATOM     26  C   UNL d   1      28.596 -11.964  -6.057  0.00  0.00     0.015 C 
ATOM     27  C   UNL d   1      27.459 -11.669  -5.301  0.00  0.00    -0.028 C 
ATOM     28  C   UNL d   1      27.099 -10.329  -5.137  0.00  0.00    -0.005 C 
ATOM     29  C   UNL d   1      26.666 -12.686  -4.737  0.00  0.00    -0.006 C 
ATOM     30  C   UNL d   1      25.871 -10.016  -4.591  0.00  0.00     0.043 C 
ATOM     31  C   UNL d   1      25.535 -10.818  -3.535  0.00  0.00    -0.016 C 
ATOM     32  C   UNL d   1      25.724 -12.192  -3.737  0.00  0.00     0.010 C 
ATOM     33  C   UNL d   1      26.977 -14.048  -5.191  0.00  0.00     0.055 C 
ATOM     34 BR   UNL d   1      25.905 -15.458  -4.491  0.00  0.00    -0.047 Br
ENDBRANCH  23  24
ENDBRANCH  22  23
ENDBRANCH  19  22
ENDBRANCH   1  18
TORSDOF 9
ENDMDL
MODEL 9
REMARK VINA RESULT:    -6.254      5.012      6.941
REMARK INTER + INTRA:         -13.659
REMARK INTER:                  -8.939
REMARK INTRA:                  -4.720
REMARK CONF_INDEPENDENT:        2.685
REMARK UNBOUND:                -4.720
REMARK  9 active torsions:
REMARK  status: ('A' for Active; 'I' for Inactive)
REMARK    1  A    between atoms: C_2  and  O_3 
REMARK    2  A    between atoms: O_3  and  C_4 
REMARK    3  A    between atoms: C_8  and  C_9 
REMARK       I    between atoms: C_9  and  N_11 
REMARK    4  A    between atoms: N_11  and  C_12 
REMARK    5  A    between atoms: C_12  and  N_14 
REMARK    6  A    between atoms: N_14  and  N_15 
REMARK       I    between atoms: N_15  and  C_16 
REMARK    7  A    between atoms: C_16  and  C_18 
REMARK    8  A    between atoms: C_18  and  O_19 
REMARK    9  A    between atoms: O_19  and  C_20 
ROOT
ATOM      1  N   UNL d   1      25.366  -8.341  -2.053  0.00  0.00    -0.273 N 
ATOM      2  H   UNL d   1      24.775  -7.638  -1.609  0.00  0.00     0.189 HD
ENDROOT
BRANCH   1   3
ATOM      3  C   UNL d   1      25.350  -8.696  -3.416  0.00  0.00     0.193 C 
ATOM      4  S   UNL d   1      25.355  -7.488  -4.593  0.00  0.00    -0.039 SA
BRANCH   3   5
ATOM      5  N   UNL d   1      25.331 -10.089  -3.665  0.00  0.00    -0.298 N 
ATOM      6  C   UNL d   1      26.440 -10.978  -3.597  0.00  0.00     0.258 C 
ATOM      7  O   UNL d   1      27.575 -10.626  -3.321  0.00  0.00    -0.267 OA
ATOM      8  H   UNL d   1      24.436 -10.482  -3.893  0.00  0.00     0.171 HD
BRANCH   6   9
ATOM      9  C   UNL d   1      26.270 -12.456  -3.863  0.00  0.00     0.035 A 
ATOM     10  C   UNL d   1      25.159 -13.096  -3.265  0.00  0.00     0.017 A 
ATOM     11  C   UNL d   1      24.881 -14.449  -3.489  0.00  0.00     0.004 A 
ATOM     12  C   UNL d   1      25.728 -15.192  -4.301  0.00  0.00     0.037 A 
ATOM     13  C   UNL d   1      26.836 -14.581  -4.896  0.00  0.00     0.069 A 
ATOM     14  C   UNL d   1      27.102 -13.217  -4.683  0.00  0.00     0.053 A 
BRANCH  13  15
ATOM     15  O   UNL d   1      27.542 -15.375  -5.760  0.00  0.00    -0.351 OA
BRANCH  15  16
ATOM     16  C   UNL d   1      28.550 -14.712  -6.523  0.00  0.00     0.171 C 
ATOM     17  C   UNL d   1      29.781 -15.596  -6.555  0.00  0.00     0.034 C 
ENDBRANCH  15  16
ENDBRANCH  13  15
ENDBRANCH   6   9
ENDBRANCH   3   5
ENDBRANCH   1   3
BRANCH   1  18
ATOM     18  N   UNL d   1      26.301  -9.007  -1.164  0.00  0.00    -0.266 N 
ATOM     19  C   UNL d   1      26.283  -8.818   0.217  0.00  0.00     0.260 C 
ATOM     20  O   UNL d   1      25.439  -8.094   0.749  0.00  0.00    -0.269 OA
ATOM     21  H   UNL d   1      26.999  -9.583  -1.636  0.00  0.00     0.190 HD
BRANCH  19  22
ATOM     22  C   UNL d   1      27.419  -9.585   1.005  0.00  0.00     0.280 C 
BRANCH  22  23
ATOM     23  O   UNL d   1      28.163 -10.510   0.197  0.00  0.00    -0.341 OA
BRANCH  23  24
ATOM     24  C   UNL d   1      27.719 -11.800  -0.037  0.00  0.00     0.087 C 
ATOM     25  C   UNL d   1      26.756 -12.213   0.890  0.00  0.00     0.039 C 
ATOM     26  C   UNL d   1      26.281 -13.525   0.901  0.00  0.00     0.015 C 
ATOM     27  C   UNL d   1      26.714 -14.457  -0.045  0.00  0.00    -0.028 C 
ATOM     28  C   UNL d   1      26.025 -15.668  -0.149  0.00  0.00    -0.005 C 
ATOM     29  C   UNL d   1      27.798 -14.187  -0.903  0.00  0.00    -0.006 C 
ATOM     30  C   UNL d   1      26.283 -16.509  -1.212  0.00  0.00     0.043 C 
ATOM     31  C   UNL d   1      27.614 -16.596  -1.514  0.00  0.00    -0.016 C 
ATOM     32  C   UNL d   1      28.298 -15.375  -1.588  0.00  0.00     0.010 C 
ATOM     33  C   UNL d   1      28.273 -12.797  -0.894  0.00  0.00     0.055 C 
ATOM     34 BR   UNL d   1      29.709 -12.367  -2.069  0.00  0.00    -0.047 Br
ENDBRANCH  23  24
ENDBRANCH  22  23
ENDBRANCH  19  22
ENDBRANCH   1  18
TORSDOF 9
ENDMDL
