MODEL 1
REMARK VINA RESULT:    -8.258      0.000      0.000
REMARK INTER + INTRA:         -14.862
REMARK INTER:                 -10.943
REMARK INTRA:                  -3.919
REMARK CONF_INDEPENDENT:        2.685
REMARK UNBOUND:                -3.919
REMARK  9 active torsions:
REMARK  status: ('A' for Active; 'I' for Inactive)
REMARK    1  A    between atoms: C_6  and  N_7 
REMARK       I    between atoms: N_7  and  C_8 
REMARK    2  A    between atoms: C_8  and  C_10 
REMARK       I    between atoms: C_10  and  N_12 
REMARK    3  A    between atoms: N_12  and  N_13 
REMARK    4  A    between atoms: C_14  and  C_15 
REMARK    5  A    between atoms: C_20  and  O_21 
REMARK    6  A    between atoms: O_21  and  C_22 
REMARK    7  A    between atoms: C_22  and  C_23 
REMARK       I    between atoms: C_23  and  N_25 
REMARK    8  A    between atoms: N_25  and  C_26 
REMARK    9  A    between atoms: C_30  and  C_31 
ROOT
ATOM      1  C   UNL d   1      29.226 -13.648  -4.759  0.00  0.00     0.016 A 
ATOM      2  C   UNL d   1      30.087 -12.748  -5.413  0.00  0.00     0.016 A 
ATOM      3  C   UNL d   1      30.150 -12.698  -6.818  0.00  0.00     0.001 A 
ATOM      4  C   UNL d   1      29.401 -13.583  -7.586  0.00  0.00     0.003 A 
ATOM      5  C   UNL d   1      28.527 -14.463  -6.950  0.00  0.00     0.037 A 
ATOM      6  C   UNL d   1      28.401 -14.487  -5.546  0.00  0.00     0.081 A 
ENDROOT
BRANCH   1   7
ATOM      7  C   UNL d   1      29.162 -13.597  -3.254  0.00  0.00     0.153 C 
ATOM      8  N   UNL d   1      28.258 -14.289  -2.627  0.00  0.00    -0.183 NA
BRANCH   8   9
ATOM      9  N   UNL d   1      27.898 -14.002  -1.328  0.00  0.00    -0.239 N 
ATOM     10  C   UNL d   1      28.573 -14.654  -0.260  0.00  0.00     0.329 C 
ATOM     11  O   UNL d   1      29.405 -15.541  -0.336  0.00  0.00    -0.261 OA
ATOM     12  H   UNL d   1      27.048 -13.481  -1.113  0.00  0.00     0.192 HD
BRANCH  10  13
ATOM     13  C   UNL d   1      28.069 -14.215   1.126  0.00  0.00     0.315 C 
ATOM     14  N   UNL d   1      28.835 -14.611   2.236  0.00  0.00    -0.318 N 
ATOM     15  H   UNL d   1      29.614 -15.234   2.042  0.00  0.00     0.169 HD
ATOM     16  O   UNL d   1      27.024 -13.577   1.107  0.00  0.00    -0.262 OA
BRANCH  14  17
ATOM     17  C   UNL d   1      28.620 -14.185   3.591  0.00  0.00     0.041 A 
ATOM     18  C   UNL d   1      28.534 -15.148   4.609  0.00  0.00     0.030 A 
ATOM     19  C   UNL d   1      28.321 -14.820   5.943  0.00  0.00     0.003 A 
ATOM     20  C   UNL d   1      28.155 -13.501   6.310  0.00  0.00     0.007 A 
ATOM     21  C   UNL d   1      28.210 -12.490   5.340  0.00  0.00    -0.054 A 
ATOM     22  C   UNL d   1      27.991 -11.074   5.817  0.00  0.00     0.049 C 
ATOM     23  C   UNL d   1      28.461 -12.820   3.965  0.00  0.00    -0.029 A 
ATOM     24  C   UNL d   1      28.541 -11.675   2.984  0.00  0.00     0.051 C 
ENDBRANCH  14  17
ENDBRANCH  10  13
ENDBRANCH   8   9
ENDBRANCH   1   7
BRANCH   6  25
ATOM     25  O   UNL d   1      27.383 -15.329  -5.163  0.00  0.00    -0.341 OA
BRANCH  25  26
ATOM     26  C   UNL d   1      26.151 -14.742  -4.812  0.00  0.00     0.278 C 
BRANCH  26  27
ATOM     27  C   UNL d   1      25.532 -15.171  -3.505  0.00  0.00     0.246 C 
ATOM     28  O   UNL d   1      24.425 -14.764  -3.165  0.00  0.00    -0.271 OA
ATOM     29  N   UNL d   1      26.318 -16.062  -2.762  0.00  0.00    -0.325 N 
ATOM     30  H   UNL d   1      27.293 -16.210  -2.985  0.00  0.00     0.169 HD
BRANCH  29  31
ATOM     31  C   UNL d   1      25.786 -16.763  -1.668  0.00  0.00     0.035 A 
ATOM     32  C   UNL d   1      26.590 -17.187  -0.610  0.00  0.00     0.029 A 
ATOM     33  C   UNL d   1      26.004 -17.865   0.466  0.00  0.00     0.003 A 
ATOM     34  C   UNL d   1      24.627 -18.106   0.484  0.00  0.00     0.016 A 
ATOM     35  C   UNL d   1      23.831 -17.730  -0.601  0.00  0.00     0.050 A 
ATOM     36  C   UNL d   1      24.427 -17.067  -1.669  0.00  0.00     0.045 A 
BRANCH  35  37
ATOM     37  C   UNL d   1      22.366 -18.055  -0.664  0.00  0.00     0.417 C 
ATOM     38  F   UNL d   1      21.923 -18.594   0.506  0.00  0.00    -0.166 F 
ATOM     39  F   UNL d   1      21.593 -16.961  -0.896  0.00  0.00    -0.166 F 
ATOM     40  F   UNL d   1      22.042 -18.959  -1.630  0.00  0.00    -0.166 F 
ENDBRANCH  35  37
ENDBRANCH  29  31
ENDBRANCH  26  27
ENDBRANCH  25  26
ENDBRANCH   6  25
TORSDOF 9
ENDMDL
MODEL 2
REMARK VINA RESULT:    -7.758      1.447      2.155
REMARK INTER + INTRA:         -14.932
REMARK INTER:                 -10.443
REMARK INTRA:                  -4.489
REMARK CONF_INDEPENDENT:        2.685
REMARK UNBOUND:                -4.489
REMARK  9 active torsions:
REMARK  status: ('A' for Active; 'I' for Inactive)
REMARK    1  A    between atoms: C_6  and  N_7 
REMARK       I    between atoms: N_7  and  C_8 
REMARK    2  A    between atoms: C_8  and  C_10 
REMARK       I    between atoms: C_10  and  N_12 
REMARK    3  A    between atoms: N_12  and  N_13 
REMARK    4  A    between atoms: C_14  and  C_15 
REMARK    5  A    between atoms: C_20  and  O_21 
REMARK    6  A    between atoms: O_21  and  C_22 
REMARK    7  A    between atoms: C_22  and  C_23 
REMARK       I    between atoms: C_23  and  N_25 
REMARK    8  A    between atoms: N_25  and  C_26 
REMARK    9  A    between atoms: C_30  and  C_31 
ROOT
ATOM      1  C   UNL d   1      28.971 -14.579  -3.729  0.00  0.00     0.016 A 
ATOM      2  C   UNL d   1      29.671 -15.539  -4.482  0.00  0.00     0.016 A 
ATOM      3  C   UNL d   1      29.443 -15.681  -5.863  0.00  0.00     0.001 A 
ATOM      4  C   UNL d   1      28.476 -14.910  -6.499  0.00  0.00     0.003 A 
ATOM      5  C   UNL d   1      27.795 -13.938  -5.768  0.00  0.00     0.037 A 
ATOM      6  C   UNL d   1      28.051 -13.736  -4.397  0.00  0.00     0.081 A 
ENDROOT
BRANCH   1   7
ATOM      7  C   UNL d   1      29.317 -14.437  -2.269  0.00  0.00     0.153 C 
ATOM      8  N   UNL d   1      28.444 -13.932  -1.449  0.00  0.00    -0.183 NA
BRANCH   8   9
ATOM      9  N   UNL d   1      28.812 -13.428  -0.220  0.00  0.00    -0.239 N 
ATOM     10  C   UNL d   1      27.873 -13.448   0.847  0.00  0.00     0.329 C 
ATOM     11  O   UNL d   1      26.703 -13.783   0.804  0.00  0.00    -0.261 OA
ATOM     12  H   UNL d   1      29.664 -12.879  -0.102  0.00  0.00     0.192 HD
BRANCH  10  13
ATOM     13  C   UNL d   1      28.439 -12.866   2.155  0.00  0.00     0.315 C 
ATOM     14  N   UNL d   1      27.615 -12.939   3.292  0.00  0.00    -0.318 N 
ATOM     15  H   UNL d   1      26.674 -13.289   3.140  0.00  0.00     0.169 HD
ATOM     16  O   UNL d   1      29.556 -12.376   2.051  0.00  0.00    -0.262 OA
BRANCH  14  17
ATOM     17  C   UNL d   1      28.009 -12.590   4.629  0.00  0.00     0.041 A 
ATOM     18  C   UNL d   1      28.124 -11.236   4.980  0.00  0.00     0.030 A 
ATOM     19  C   UNL d   1      28.506 -10.814   6.249  0.00  0.00     0.003 A 
ATOM     20  C   UNL d   1      28.818 -11.744   7.218  0.00  0.00     0.007 A 
ATOM     21  C   UNL d   1      28.742 -13.113   6.928  0.00  0.00    -0.054 A 
ATOM     22  C   UNL d   1      29.127 -14.067   8.034  0.00  0.00     0.049 C 
ATOM     23  C   UNL d   1      28.319 -13.555   5.629  0.00  0.00    -0.029 A 
ATOM     24  C   UNL d   1      28.228 -15.045   5.403  0.00  0.00     0.051 C 
ENDBRANCH  14  17
ENDBRANCH  10  13
ENDBRANCH   8   9
ENDBRANCH   1   7
BRANCH   6  25
ATOM     25  O   UNL d   1      27.366 -12.638  -3.930  0.00  0.00    -0.341 OA
BRANCH  25  26
ATOM     26  C   UNL d   1      25.973 -12.766  -3.753  0.00  0.00     0.278 C 
BRANCH  26  27
ATOM     27  C   UNL d   1      25.465 -14.088  -3.235  0.00  0.00     0.246 C 
ATOM     28  O   UNL d   1      24.780 -14.823  -3.941  0.00  0.00    -0.271 OA
ATOM     29  N   UNL d   1      25.859 -14.382  -1.923  0.00  0.00    -0.325 N 
ATOM     30  H   UNL d   1      26.250 -13.669  -1.323  0.00  0.00     0.169 HD
BRANCH  29  31
ATOM     31  C   UNL d   1      25.705 -15.670  -1.388  0.00  0.00     0.035 A 
ATOM     32  C   UNL d   1      26.803 -16.437  -0.999  0.00  0.00     0.029 A 
ATOM     33  C   UNL d   1      26.591 -17.709  -0.453  0.00  0.00     0.003 A 
ATOM     34  C   UNL d   1      25.293 -18.201  -0.290  0.00  0.00     0.016 A 
ATOM     35  C   UNL d   1      24.196 -17.455  -0.730  0.00  0.00     0.050 A 
ATOM     36  C   UNL d   1      24.420 -16.198  -1.282  0.00  0.00     0.045 A 
BRANCH  35  37
ATOM     37  C   UNL d   1      22.794 -17.986  -0.660  0.00  0.00     0.417 C 
ATOM     38  F   UNL d   1      22.521 -18.520   0.563  0.00  0.00    -0.166 F 
ATOM     39  F   UNL d   1      21.854 -17.028  -0.875  0.00  0.00    -0.166 F 
ATOM     40  F   UNL d   1      22.533 -18.978  -1.558  0.00  0.00    -0.166 F 
ENDBRANCH  35  37
ENDBRANCH  29  31
ENDBRANCH  26  27
ENDBRANCH  25  26
ENDBRANCH   6  25
TORSDOF 9
ENDMDL
MODEL 3
REMARK VINA RESULT:    -7.698      1.328      1.705
REMARK INTER + INTRA:         -14.878
REMARK INTER:                 -10.383
REMARK INTRA:                  -4.495
REMARK CONF_INDEPENDENT:        2.685
REMARK UNBOUND:                -4.495
REMARK  9 active torsions:
REMARK  status: ('A' for Active; 'I' for Inactive)
REMARK    1  A    between atoms: C_6  and  N_7 
REMARK       I    between atoms: N_7  and  C_8 
REMARK    2  A    between atoms: C_8  and  C_10 
REMARK       I    between atoms: C_10  and  N_12 
REMARK    3  A    between atoms: N_12  and  N_13 
REMARK    4  A    between atoms: C_14  and  C_15 
REMARK    5  A    between atoms: C_20  and  O_21 
REMARK    6  A    between atoms: O_21  and  C_22 
REMARK    7  A    between atoms: C_22  and  C_23 
REMARK       I    between atoms: C_23  and  N_25 
REMARK    8  A    between atoms: N_25  and  C_26 
REMARK    9  A    between atoms: C_30  and  C_31 
ROOT
ATOM      1  C   UNL d   1      29.089 -14.887  -4.035  0.00  0.00     0.016 A 
ATOM      2  C   UNL d   1      29.821 -15.767  -4.852  0.00  0.00     0.016 A 
ATOM      3  C   UNL d   1      29.740 -15.688  -6.254  0.00  0.00     0.001 A 
ATOM      4  C   UNL d   1      28.886 -14.771  -6.858  0.00  0.00     0.003 A 
ATOM      5  C   UNL d   1      28.175 -13.878  -6.060  0.00  0.00     0.037 A 
ATOM      6  C   UNL d   1      28.288 -13.898  -4.654  0.00  0.00     0.081 A 
ENDROOT
BRANCH   1   7
ATOM      7  C   UNL d   1      29.278 -14.986  -2.543  0.00  0.00     0.153 C 
ATOM      8  N   UNL d   1      28.652 -14.158  -1.760  0.00  0.00    -0.183 NA
BRANCH   8   9
ATOM      9  N   UNL d   1      29.059 -13.941  -0.462  0.00  0.00    -0.239 N 
ATOM     10  C   UNL d   1      28.079 -13.789   0.557  0.00  0.00     0.329 C 
ATOM     11  O   UNL d   1      26.870 -13.733   0.425  0.00  0.00    -0.261 OA
ATOM     12  H   UNL d   1      30.026 -13.703  -0.239  0.00  0.00     0.192 HD
BRANCH  10  13
ATOM     13  C   UNL d   1      28.692 -13.569   1.951  0.00  0.00     0.315 C 
ATOM     14  N   UNL d   1      27.800 -13.514   3.036  0.00  0.00    -0.318 N 
ATOM     15  H   UNL d   1      26.811 -13.533   2.804  0.00  0.00     0.169 HD
ATOM     16  O   UNL d   1      29.910 -13.443   1.956  0.00  0.00    -0.262 OA
BRANCH  14  17
ATOM     17  C   UNL d   1      28.176 -13.464   4.422  0.00  0.00     0.041 A 
ATOM     18  C   UNL d   1      28.535 -14.651   5.080  0.00  0.00     0.030 A 
ATOM     19  C   UNL d   1      28.905 -14.691   6.419  0.00  0.00     0.003 A 
ATOM     20  C   UNL d   1      28.902 -13.533   7.169  0.00  0.00     0.007 A 
ATOM     21  C   UNL d   1      28.535 -12.315   6.578  0.00  0.00    -0.054 A 
ATOM     22  C   UNL d   1      28.530 -11.098   7.473  0.00  0.00     0.049 C 
ATOM     23  C   UNL d   1      28.182 -12.263   5.187  0.00  0.00    -0.029 A 
ATOM     24  C   UNL d   1      27.833 -10.911   4.614  0.00  0.00     0.051 C 
ENDBRANCH  14  17
ENDBRANCH  10  13
ENDBRANCH   8   9
ENDBRANCH   1   7
BRANCH   6  25
ATOM     25  O   UNL d   1      27.608 -12.840  -4.096  0.00  0.00    -0.341 OA
BRANCH  25  26
ATOM     26  C   UNL d   1      26.200 -12.909  -4.077  0.00  0.00     0.278 C 
BRANCH  26  27
ATOM     27  C   UNL d   1      25.580 -14.142  -3.470  0.00  0.00     0.246 C 
ATOM     28  O   UNL d   1      24.780 -14.825  -4.103  0.00  0.00    -0.271 OA
ATOM     29  N   UNL d   1      26.012 -14.420  -2.166  0.00  0.00    -0.325 N 
ATOM     30  H   UNL d   1      26.511 -13.730  -1.622  0.00  0.00     0.169 HD
BRANCH  29  31
ATOM     31  C   UNL d   1      25.747 -15.659  -1.561  0.00  0.00     0.035 A 
ATOM     32  C   UNL d   1      26.775 -16.498  -1.132  0.00  0.00     0.029 A 
ATOM     33  C   UNL d   1      26.455 -17.714  -0.517  0.00  0.00     0.003 A 
ATOM     34  C   UNL d   1      25.119 -18.079  -0.325  0.00  0.00     0.016 A 
ATOM     35  C   UNL d   1      24.090 -17.263  -0.803  0.00  0.00     0.050 A 
ATOM     36  C   UNL d   1      24.421 -16.063  -1.423  0.00  0.00     0.045 A 
BRANCH  35  37
ATOM     37  C   UNL d   1      22.646 -17.663  -0.701  0.00  0.00     0.417 C 
ATOM     38  F   UNL d   1      21.818 -16.593  -0.862  0.00  0.00    -0.166 F 
ATOM     39  F   UNL d   1      22.282 -18.571  -1.645  0.00  0.00    -0.166 F 
ATOM     40  F   UNL d   1      22.308 -18.210   0.500  0.00  0.00    -0.166 F 
ENDBRANCH  35  37
ENDBRANCH  29  31
ENDBRANCH  26  27
ENDBRANCH  25  26
ENDBRANCH   6  25
TORSDOF 9
ENDMDL
MODEL 4
REMARK VINA RESULT:    -7.607      2.398      2.897
REMARK INTER + INTRA:         -14.224
REMARK INTER:                 -10.292
REMARK INTRA:                  -3.931
REMARK CONF_INDEPENDENT:        2.685
REMARK UNBOUND:                -3.931
REMARK  9 active torsions:
REMARK  status: ('A' for Active; 'I' for Inactive)
REMARK    1  A    between atoms: C_6  and  N_7 
REMARK       I    between atoms: N_7  and  C_8 
REMARK    2  A    between atoms: C_8  and  C_10 
REMARK       I    between atoms: C_10  and  N_12 
REMARK    3  A    between atoms: N_12  and  N_13 
REMARK    4  A    between atoms: C_14  and  C_15 
REMARK    5  A    between atoms: C_20  and  O_21 
REMARK    6  A    between atoms: O_21  and  C_22 
REMARK    7  A    between atoms: C_22  and  C_23 
REMARK       I    between atoms: C_23  and  N_25 
REMARK    8  A    between atoms: N_25  and  C_26 
REMARK    9  A    between atoms: C_30  and  C_31 
ROOT
ATOM      1  C   UNL d   1      26.615 -10.840  -3.473  0.00  0.00     0.016 A 
ATOM      2  C   UNL d   1      26.695  -9.481  -3.119  0.00  0.00     0.016 A 
ATOM      3  C   UNL d   1      26.182  -8.481  -3.966  0.00  0.00     0.001 A 
ATOM      4  C   UNL d   1      25.637  -8.818  -5.200  0.00  0.00     0.003 A 
ATOM      5  C   UNL d   1      25.530 -10.162  -5.551  0.00  0.00     0.037 A 
ATOM      6  C   UNL d   1      25.981 -11.185  -4.691  0.00  0.00     0.081 A 
ENDROOT
BRANCH   1   7
ATOM      7  C   UNL d   1      27.123 -11.858  -2.485  0.00  0.00     0.153 C 
ATOM      8  N   UNL d   1      26.280 -12.497  -1.731  0.00  0.00    -0.183 NA
BRANCH   8   9
ATOM      9  N   UNL d   1      26.679 -13.134  -0.576  0.00  0.00    -0.239 N 
ATOM     10  C   UNL d   1      27.030 -12.355   0.560  0.00  0.00     0.329 C 
ATOM     11  O   UNL d   1      27.117 -11.143   0.634  0.00  0.00    -0.261 OA
ATOM     12  H   UNL d   1      26.906 -14.129  -0.567  0.00  0.00     0.192 HD
BRANCH  10  13
ATOM     13  C   UNL d   1      27.437 -13.212   1.772  0.00  0.00     0.315 C 
ATOM     14  N   UNL d   1      27.941 -12.528   2.893  0.00  0.00    -0.318 N 
ATOM     15  H   UNL d   1      28.081 -11.528   2.781  0.00  0.00     0.169 HD
ATOM     16  O   UNL d   1      27.295 -14.417   1.613  0.00  0.00    -0.262 OA
BRANCH  14  17
ATOM     17  C   UNL d   1      28.236 -13.123   4.167  0.00  0.00     0.041 A 
ATOM     18  C   UNL d   1      28.494 -14.501   4.239  0.00  0.00     0.030 A 
ATOM     19  C   UNL d   1      28.781 -15.155   5.432  0.00  0.00     0.003 A 
ATOM     20  C   UNL d   1      28.793 -14.450   6.617  0.00  0.00     0.007 A 
ATOM     21  C   UNL d   1      28.525 -13.074   6.619  0.00  0.00    -0.054 A 
ATOM     22  C   UNL d   1      28.530 -12.380   7.960  0.00  0.00     0.049 C 
ATOM     23  C   UNL d   1      28.258 -12.388   5.386  0.00  0.00    -0.029 A 
ATOM     24  C   UNL d   1      28.014 -10.899   5.464  0.00  0.00     0.051 C 
ENDBRANCH  14  17
ENDBRANCH  10  13
ENDBRANCH   8   9
ENDBRANCH   1   7
BRANCH   6  25
ATOM     25  O   UNL d   1      25.642 -12.422  -5.186  0.00  0.00    -0.341 OA
BRANCH  25  26
ATOM     26  C   UNL d   1      26.685 -13.349  -5.391  0.00  0.00     0.278 C 
BRANCH  26  27
ATOM     27  C   UNL d   1      26.620 -14.640  -4.615  0.00  0.00     0.246 C 
ATOM     28  O   UNL d   1      27.180 -15.653  -5.025  0.00  0.00    -0.271 OA
ATOM     29  N   UNL d   1      25.898 -14.556  -3.418  0.00  0.00    -0.325 N 
ATOM     30  H   UNL d   1      25.297 -13.766  -3.224  0.00  0.00     0.169 HD
BRANCH  29  31
ATOM     31  C   UNL d   1      25.965 -15.575  -2.455  0.00  0.00     0.035 A 
ATOM     32  C   UNL d   1      27.184 -16.029  -1.954  0.00  0.00     0.029 A 
ATOM     33  C   UNL d   1      27.193 -17.034  -0.979  0.00  0.00     0.003 A 
ATOM     34  C   UNL d   1      25.992 -17.570  -0.506  0.00  0.00     0.016 A 
ATOM     35  C   UNL d   1      24.773 -17.154  -1.047  0.00  0.00     0.050 A 
ATOM     36  C   UNL d   1      24.778 -16.163  -2.023  0.00  0.00     0.045 A 
BRANCH  35  37
ATOM     37  C   UNL d   1      23.467 -17.771  -0.635  0.00  0.00     0.417 C 
ATOM     38  F   UNL d   1      23.539 -18.305   0.616  0.00  0.00    -0.166 F 
ATOM     39  F   UNL d   1      22.445 -16.876  -0.609  0.00  0.00    -0.166 F 
ATOM     40  F   UNL d   1      23.058 -18.789  -1.444  0.00  0.00    -0.166 F 
ENDBRANCH  35  37
ENDBRANCH  29  31
ENDBRANCH  26  27
ENDBRANCH  25  26
ENDBRANCH   6  25
TORSDOF 9
ENDMDL
MODEL 5
REMARK VINA RESULT:    -6.921      2.078      2.569
REMARK INTER + INTRA:         -14.362
REMARK INTER:                  -9.606
REMARK INTRA:                  -4.756
REMARK CONF_INDEPENDENT:        2.685
REMARK UNBOUND:                -4.756
REMARK  9 active torsions:
REMARK  status: ('A' for Active; 'I' for Inactive)
REMARK    1  A    between atoms: C_6  and  N_7 
REMARK       I    between atoms: N_7  and  C_8 
REMARK    2  A    between atoms: C_8  and  C_10 
REMARK       I    between atoms: C_10  and  N_12 
REMARK    3  A    between atoms: N_12  and  N_13 
REMARK    4  A    between atoms: C_14  and  C_15 
REMARK    5  A    between atoms: C_20  and  O_21 
REMARK    6  A    between atoms: O_21  and  C_22 
REMARK    7  A    between atoms: C_22  and  C_23 
REMARK       I    between atoms: C_23  and  N_25 
REMARK    8  A    between atoms: N_25  and  C_26 
REMARK    9  A    between atoms: C_30  and  C_31 
ROOT
ATOM      1  C   UNL d   1      28.898 -14.362  -4.562  0.00  0.00     0.016 A 
ATOM      2  C   UNL d   1      29.712 -15.042  -5.486  0.00  0.00     0.016 A 
ATOM      3  C   UNL d   1      29.677 -14.720  -6.855  0.00  0.00     0.001 A 
ATOM      4  C   UNL d   1      28.792 -13.757  -7.328  0.00  0.00     0.003 A 
ATOM      5  C   UNL d   1      27.998 -13.060  -6.419  0.00  0.00     0.037 A 
ATOM      6  C   UNL d   1      28.061 -13.323  -5.035  0.00  0.00     0.081 A 
ENDROOT
BRANCH   1   7
ATOM      7  C   UNL d   1      29.038 -14.714  -3.104  0.00  0.00     0.153 C 
ATOM      8  N   UNL d   1      28.496 -13.950  -2.203  0.00  0.00    -0.183 NA
BRANCH   8   9
ATOM      9  N   UNL d   1      28.895 -13.987  -0.885  0.00  0.00    -0.239 N 
ATOM     10  C   UNL d   1      28.000 -13.539   0.124  0.00  0.00     0.329 C 
ATOM     11  O   UNL d   1      26.910 -13.017  -0.025  0.00  0.00    -0.261 OA
ATOM     12  H   UNL d   1      29.869 -14.152  -0.627  0.00  0.00     0.192 HD
BRANCH  10  13
ATOM     13  C   UNL d   1      28.586 -13.660   1.542  0.00  0.00     0.315 C 
ATOM     14  N   UNL d   1      27.767 -13.240   2.606  0.00  0.00    -0.318 N 
ATOM     15  H   UNL d   1      26.886 -12.805   2.348  0.00  0.00     0.169 HD
ATOM     16  O   UNL d   1      29.729 -14.095   1.584  0.00  0.00    -0.262 OA
BRANCH  14  17
ATOM     17  C   UNL d   1      28.066 -13.405   4.001  0.00  0.00     0.041 A 
ATOM     18  C   UNL d   1      28.250 -14.699   4.516  0.00  0.00     0.030 A 
ATOM     19  C   UNL d   1      28.534 -14.946   5.855  0.00  0.00     0.003 A 
ATOM     20  C   UNL d   1      28.618 -13.897   6.745  0.00  0.00     0.007 A 
ATOM     21  C   UNL d   1      28.426 -12.581   6.301  0.00  0.00    -0.054 A 
ATOM     22  C   UNL d   1      28.507 -11.491   7.343  0.00  0.00     0.049 C 
ATOM     23  C   UNL d   1      28.163 -12.317   4.914  0.00  0.00    -0.029 A 
ATOM     24  C   UNL d   1      28.002 -10.872   4.505  0.00  0.00     0.051 C 
ENDBRANCH  14  17
ENDBRANCH  10  13
ENDBRANCH   8   9
ENDBRANCH   1   7
BRANCH   6  25
ATOM     25  O   UNL d   1      27.298 -12.419  -4.333  0.00  0.00    -0.341 OA
BRANCH  25  26
ATOM     26  C   UNL d   1      25.900 -12.474  -4.506  0.00  0.00     0.278 C 
BRANCH  26  27
ATOM     27  C   UNL d   1      25.160 -13.574  -3.786  0.00  0.00     0.246 C 
ATOM     28  O   UNL d   1      24.148 -14.075  -4.267  0.00  0.00    -0.271 OA
ATOM     29  N   UNL d   1      25.740 -13.956  -2.569  0.00  0.00    -0.325 N 
ATOM     30  H   UNL d   1      26.448 -13.387  -2.126  0.00  0.00     0.169 HD
BRANCH  29  31
ATOM     31  C   UNL d   1      25.343 -15.131  -1.912  0.00  0.00     0.035 A 
ATOM     32  C   UNL d   1      24.021 -15.575  -1.942  0.00  0.00     0.029 A 
ATOM     33  C   UNL d   1      23.683 -16.764  -1.286  0.00  0.00     0.003 A 
ATOM     34  C   UNL d   1      24.662 -17.504  -0.615  0.00  0.00     0.016 A 
ATOM     35  C   UNL d   1      25.974 -17.031  -0.538  0.00  0.00     0.050 A 
ATOM     36  C   UNL d   1      26.295 -15.842  -1.185  0.00  0.00     0.045 A 
BRANCH  35  37
ATOM     37  C   UNL d   1      27.032 -17.746   0.251  0.00  0.00     0.417 C 
ATOM     38  F   UNL d   1      26.588 -18.949   0.710  0.00  0.00    -0.166 F 
ATOM     39  F   UNL d   1      28.149 -18.006  -0.478  0.00  0.00    -0.166 F 
ATOM     40  F   UNL d   1      27.452 -17.065   1.355  0.00  0.00    -0.166 F 
ENDBRANCH  35  37
ENDBRANCH  29  31
ENDBRANCH  26  27
ENDBRANCH  25  26
ENDBRANCH   6  25
TORSDOF 9
ENDMDL
MODEL 6
REMARK VINA RESULT:    -6.594      4.459      9.163
REMARK INTER + INTRA:         -14.139
REMARK INTER:                  -9.279
REMARK INTRA:                  -4.860
REMARK CONF_INDEPENDENT:        2.685
REMARK UNBOUND:                -4.860
REMARK  9 active torsions:
REMARK  status: ('A' for Active; 'I' for Inactive)
REMARK    1  A    between atoms: C_6  and  N_7 
REMARK       I    between atoms: N_7  and  C_8 
REMARK    2  A    between atoms: C_8  and  C_10 
REMARK       I    between atoms: C_10  and  N_12 
REMARK    3  A    between atoms: N_12  and  N_13 
REMARK    4  A    between atoms: C_14  and  C_15 
REMARK    5  A    between atoms: C_20  and  O_21 
REMARK    6  A    between atoms: O_21  and  C_22 
REMARK    7  A    between atoms: C_22  and  C_23 
REMARK       I    between atoms: C_23  and  N_25 
REMARK    8  A    between atoms: N_25  and  C_26 
REMARK    9  A    between atoms: C_30  and  C_31 
ROOT
ATOM      1  C   UNL d   1      24.392 -16.418  -1.224  0.00  0.00     0.016 A 
ATOM      2  C   UNL d   1      23.028 -16.321  -0.896  0.00  0.00     0.016 A 
ATOM      3  C   UNL d   1      22.371 -17.365  -0.219  0.00  0.00     0.001 A 
ATOM      4  C   UNL d   1      23.049 -18.540   0.087  0.00  0.00     0.003 A 
ATOM      5  C   UNL d   1      24.406 -18.638  -0.210  0.00  0.00     0.037 A 
ATOM      6  C   UNL d   1      25.101 -17.580  -0.832  0.00  0.00     0.081 A 
ENDROOT
BRANCH   1   7
ATOM      7  C   UNL d   1      25.045 -15.233  -1.887  0.00  0.00     0.153 C 
ATOM      8  N   UNL d   1      25.207 -15.228  -3.177  0.00  0.00    -0.183 NA
BRANCH   8   9
ATOM      9  N   UNL d   1      26.111 -14.389  -3.790  0.00  0.00    -0.239 N 
ATOM     10  C   UNL d   1      26.553 -14.688  -5.108  0.00  0.00     0.329 C 
ATOM     11  O   UNL d   1      26.301 -15.678  -5.771  0.00  0.00    -0.261 OA
ATOM     12  H   UNL d   1      26.610 -13.668  -3.268  0.00  0.00     0.192 HD
BRANCH  10  13
ATOM     13  C   UNL d   1      27.547 -13.650  -5.658  0.00  0.00     0.315 C 
ATOM     14  N   UNL d   1      28.154 -13.942  -6.892  0.00  0.00    -0.318 N 
ATOM     15  H   UNL d   1      27.956 -14.860  -7.282  0.00  0.00     0.169 HD
ATOM     16  O   UNL d   1      27.717 -12.678  -4.935  0.00  0.00    -0.262 OA
BRANCH  14  17
ATOM     17  C   UNL d   1      28.989 -13.047  -7.642  0.00  0.00     0.041 A 
ATOM     18  C   UNL d   1      30.362 -13.318  -7.753  0.00  0.00     0.030 A 
ATOM     19  C   UNL d   1      31.241 -12.500  -8.453  0.00  0.00     0.003 A 
ATOM     20  C   UNL d   1      30.778 -11.348  -9.054  0.00  0.00     0.007 A 
ATOM     21  C   UNL d   1      29.421 -11.007  -8.966  0.00  0.00    -0.054 A 
ATOM     22  C   UNL d   1      28.998  -9.716  -9.626  0.00  0.00     0.049 C 
ATOM     23  C   UNL d   1      28.503 -11.865  -8.270  0.00  0.00    -0.029 A 
ATOM     24  C   UNL d   1      27.051 -11.450  -8.248  0.00  0.00     0.051 C 
ENDBRANCH  14  17
ENDBRANCH  10  13
ENDBRANCH   8   9
ENDBRANCH   1   7
BRANCH   6  25
ATOM     25  O   UNL d   1      26.448 -17.851  -0.894  0.00  0.00    -0.341 OA
BRANCH  25  26
ATOM     26  C   UNL d   1      27.311 -17.035  -0.134  0.00  0.00     0.278 C 
BRANCH  26  27
ATOM     27  C   UNL d   1      28.375 -16.274  -0.884  0.00  0.00     0.246 C 
ATOM     28  O   UNL d   1      29.424 -15.948  -0.336  0.00  0.00    -0.271 OA
ATOM     29  N   UNL d   1      28.057 -16.008  -2.222  0.00  0.00    -0.325 N 
ATOM     30  H   UNL d   1      27.114 -16.120  -2.568  0.00  0.00     0.169 HD
BRANCH  29  31
ATOM     31  C   UNL d   1      29.032 -15.556  -3.125  0.00  0.00     0.035 A 
ATOM     32  C   UNL d   1      29.603 -14.289  -3.011  0.00  0.00     0.029 A 
ATOM     33  C   UNL d   1      30.586 -13.896  -3.928  0.00  0.00     0.003 A 
ATOM     34  C   UNL d   1      30.997 -14.768  -4.940  0.00  0.00     0.016 A 
ATOM     35  C   UNL d   1      30.386 -16.015  -5.088  0.00  0.00     0.050 A 
ATOM     36  C   UNL d   1      29.403 -16.390  -4.178  0.00  0.00     0.045 A 
BRANCH  35  37
ATOM     37  C   UNL d   1      30.732 -16.942  -6.218  0.00  0.00     0.417 C 
ATOM     38  F   UNL d   1      30.477 -16.372  -7.428  0.00  0.00    -0.166 F 
ATOM     39  F   UNL d   1      32.045 -17.292  -6.231  0.00  0.00    -0.166 F 
ATOM     40  F   UNL d   1      30.030 -18.110  -6.208  0.00  0.00    -0.166 F 
ENDBRANCH  35  37
ENDBRANCH  29  31
ENDBRANCH  26  27
ENDBRANCH  25  26
ENDBRANCH   6  25
TORSDOF 9
ENDMDL
MODEL 7
REMARK VINA RESULT:    -6.517      4.720      8.849
REMARK INTER + INTRA:         -14.149
REMARK INTER:                  -9.201
REMARK INTRA:                  -4.948
REMARK CONF_INDEPENDENT:        2.685
REMARK UNBOUND:                -4.948
REMARK  9 active torsions:
REMARK  status: ('A' for Active; 'I' for Inactive)
REMARK    1  A    between atoms: C_6  and  N_7 
REMARK       I    between atoms: N_7  and  C_8 
REMARK    2  A    between atoms: C_8  and  C_10 
REMARK       I    between atoms: C_10  and  N_12 
REMARK    3  A    between atoms: N_12  and  N_13 
REMARK    4  A    between atoms: C_14  and  C_15 
REMARK    5  A    between atoms: C_20  and  O_21 
REMARK    6  A    between atoms: O_21  and  C_22 
REMARK    7  A    between atoms: C_22  and  C_23 
REMARK       I    between atoms: C_23  and  N_25 
REMARK    8  A    between atoms: N_25  and  C_26 
REMARK    9  A    between atoms: C_30  and  C_31 
ROOT
ATOM      1  C   UNL d   1      24.852 -15.850  -1.752  0.00  0.00     0.016 A 
ATOM      2  C   UNL d   1      24.045 -16.998  -1.650  0.00  0.00     0.016 A 
ATOM      3  C   UNL d   1      24.312 -17.986  -0.683  0.00  0.00     0.001 A 
ATOM      4  C   UNL d   1      25.417 -17.870   0.153  0.00  0.00     0.003 A 
ATOM      5  C   UNL d   1      26.209 -16.726   0.077  0.00  0.00     0.037 A 
ATOM      6  C   UNL d   1      25.924 -15.695  -0.841  0.00  0.00     0.081 A 
ENDROOT
BRANCH   1   7
ATOM      7  C   UNL d   1      24.465 -14.803  -2.764  0.00  0.00     0.153 C 
ATOM      8  N   UNL d   1      25.155 -14.683  -3.859  0.00  0.00    -0.183 NA
BRANCH   8   9
ATOM      9  N   UNL d   1      25.107 -13.538  -4.624  0.00  0.00    -0.239 N 
ATOM     10  C   UNL d   1      25.810 -12.382  -4.188  0.00  0.00     0.329 C 
ATOM     11  O   UNL d   1      26.407 -12.225  -3.138  0.00  0.00    -0.261 OA
ATOM     12  H   UNL d   1      24.440 -13.436  -5.390  0.00  0.00     0.192 HD
BRANCH  10  13
ATOM     13  C   UNL d   1      25.671 -11.194  -5.156  0.00  0.00     0.315 C 
ATOM     14  N   UNL d   1      26.121  -9.944  -4.697  0.00  0.00    -0.318 N 
ATOM     15  H   UNL d   1      26.419  -9.905  -3.727  0.00  0.00     0.169 HD
ATOM     16  O   UNL d   1      25.155 -11.473  -6.231  0.00  0.00    -0.262 OA
BRANCH  14  17
ATOM     17  C   UNL d   1      26.215  -8.750  -5.491  0.00  0.00     0.041 A 
ATOM     18  C   UNL d   1      27.482  -8.245  -5.824  0.00  0.00     0.030 A 
ATOM     19  C   UNL d   1      27.661  -7.093  -6.582  0.00  0.00     0.003 A 
ATOM     20  C   UNL d   1      26.565  -6.378  -7.017  0.00  0.00     0.007 A 
ATOM     21  C   UNL d   1      25.271  -6.816  -6.702  0.00  0.00    -0.054 A 
ATOM     22  C   UNL d   1      24.124  -5.963  -7.190  0.00  0.00     0.049 C 
ATOM     23  C   UNL d   1      25.079  -8.022  -5.946  0.00  0.00    -0.029 A 
ATOM     24  C   UNL d   1      23.656  -8.450  -5.677  0.00  0.00     0.051 C 
ENDBRANCH  14  17
ENDBRANCH  10  13
ENDBRANCH   8   9
ENDBRANCH   1   7
BRANCH   6  25
ATOM     25  O   UNL d   1      26.751 -14.615  -0.633  0.00  0.00    -0.341 OA
BRANCH  25  26
ATOM     26  C   UNL d   1      28.140 -14.855  -0.606  0.00  0.00     0.278 C 
BRANCH  26  27
ATOM     27  C   UNL d   1      28.871 -14.812  -1.924  0.00  0.00     0.246 C 
ATOM     28  O   UNL d   1      30.088 -14.967  -1.978  0.00  0.00    -0.271 OA
ATOM     29  N   UNL d   1      28.043 -14.602  -3.035  0.00  0.00    -0.325 N 
ATOM     30  H   UNL d   1      27.089 -14.286  -2.923  0.00  0.00     0.169 HD
BRANCH  29  31
ATOM     31  C   UNL d   1      28.514 -14.801  -4.341  0.00  0.00     0.035 A 
ATOM     32  C   UNL d   1      28.225 -13.903  -5.368  0.00  0.00     0.029 A 
ATOM     33  C   UNL d   1      28.737 -14.139  -6.649  0.00  0.00     0.003 A 
ATOM     34  C   UNL d   1      29.538 -15.259  -6.895  0.00  0.00     0.016 A 
ATOM     35  C   UNL d   1      29.782 -16.187  -5.880  0.00  0.00     0.050 A 
ATOM     36  C   UNL d   1      29.258 -15.947  -4.614  0.00  0.00     0.045 A 
BRANCH  35  37
ATOM     37  C   UNL d   1      30.557 -17.449  -6.126  0.00  0.00     0.417 C 
ATOM     38  F   UNL d   1      31.843 -17.340  -5.691  0.00  0.00    -0.166 F 
ATOM     39  F   UNL d   1      30.030 -18.526  -5.485  0.00  0.00    -0.166 F 
ATOM     40  F   UNL d   1      30.643 -17.797  -7.440  0.00  0.00    -0.166 F 
ENDBRANCH  35  37
ENDBRANCH  29  31
ENDBRANCH  26  27
ENDBRANCH  25  26
ENDBRANCH   6  25
TORSDOF 9
ENDMDL
MODEL 8
REMARK VINA RESULT:    -6.076      4.081      8.850
REMARK INTER + INTRA:         -14.049
REMARK INTER:                  -8.760
REMARK INTRA:                  -5.289
REMARK CONF_INDEPENDENT:        2.685
REMARK UNBOUND:                -5.289
REMARK  9 active torsions:
REMARK  status: ('A' for Active; 'I' for Inactive)
REMARK    1  A    between atoms: C_6  and  N_7 
REMARK       I    between atoms: N_7  and  C_8 
REMARK    2  A    between atoms: C_8  and  C_10 
REMARK       I    between atoms: C_10  and  N_12 
REMARK    3  A    between atoms: N_12  and  N_13 
REMARK    4  A    between atoms: C_14  and  C_15 
REMARK    5  A    between atoms: C_20  and  O_21 
REMARK    6  A    between atoms: O_21  and  C_22 
REMARK    7  A    between atoms: C_22  and  C_23 
REMARK       I    between atoms: C_23  and  N_25 
REMARK    8  A    between atoms: N_25  and  C_26 
REMARK    9  A    between atoms: C_30  and  C_31 
ROOT
ATOM      1  C   UNL d   1      24.655 -16.662  -1.392  0.00  0.00     0.016 A 
ATOM      2  C   UNL d   1      23.327 -17.080  -1.189  0.00  0.00     0.016 A 
ATOM      3  C   UNL d   1      23.006 -18.008  -0.182  0.00  0.00     0.001 A 
ATOM      4  C   UNL d   1      24.010 -18.574   0.597  0.00  0.00     0.003 A 
ATOM      5  C   UNL d   1      25.325 -18.150   0.423  0.00  0.00     0.037 A 
ATOM      6  C   UNL d   1      25.662 -17.176  -0.539  0.00  0.00     0.081 A 
ENDROOT
BRANCH   1   7
ATOM      7  C   UNL d   1      24.914 -15.615  -2.444  0.00  0.00     0.153 C 
ATOM      8  N   UNL d   1      25.771 -15.854  -3.391  0.00  0.00    -0.183 NA
BRANCH   8   9
ATOM      9  N   UNL d   1      26.330 -14.838  -4.135  0.00  0.00    -0.239 N 
ATOM     10  C   UNL d   1      25.506 -13.769  -4.579  0.00  0.00     0.329 C 
ATOM     11  O   UNL d   1      24.298 -13.661  -4.465  0.00  0.00    -0.261 OA
ATOM     12  H   UNL d   1      27.267 -14.921  -4.531  0.00  0.00     0.192 HD
BRANCH  10  13
ATOM     13  C   UNL d   1      26.279 -12.708  -5.383  0.00  0.00     0.315 C 
ATOM     14  N   UNL d   1      25.541 -11.614  -5.868  0.00  0.00    -0.318 N 
ATOM     15  H   UNL d   1      24.536 -11.655  -5.726  0.00  0.00     0.169 HD
ATOM     16  O   UNL d   1      27.470 -12.953  -5.531  0.00  0.00    -0.262 OA
BRANCH  14  17
ATOM     17  C   UNL d   1      26.096 -10.454  -6.507  0.00  0.00     0.041 A 
ATOM     18  C   UNL d   1      27.204 -10.601  -7.356  0.00  0.00     0.030 A 
ATOM     19  C   UNL d   1      27.805  -9.529  -8.008  0.00  0.00     0.003 A 
ATOM     20  C   UNL d   1      27.330  -8.250  -7.810  0.00  0.00     0.007 A 
ATOM     21  C   UNL d   1      26.237  -8.030  -6.959  0.00  0.00    -0.054 A 
ATOM     22  C   UNL d   1      25.795  -6.598  -6.773  0.00  0.00     0.049 C 
ATOM     23  C   UNL d   1      25.594  -9.136  -6.308  0.00  0.00    -0.029 A 
ATOM     24  C   UNL d   1      24.401  -8.825  -5.435  0.00  0.00     0.051 C 
ENDBRANCH  14  17
ENDBRANCH  10  13
ENDBRANCH   8   9
ENDBRANCH   1   7
BRANCH   6  25
ATOM     25  O   UNL d   1      26.986 -16.820  -0.429  0.00  0.00    -0.341 OA
BRANCH  25  26
ATOM     26  C   UNL d   1      27.314 -15.816   0.506  0.00  0.00     0.278 C 
BRANCH  26  27
ATOM     27  C   UNL d   1      27.482 -14.413  -0.022  0.00  0.00     0.246 C 
ATOM     28  O   UNL d   1      27.616 -13.462   0.741  0.00  0.00    -0.271 OA
ATOM     29  N   UNL d   1      27.485 -14.321  -1.421  0.00  0.00    -0.325 N 
ATOM     30  H   UNL d   1      27.176 -15.093  -1.996  0.00  0.00     0.169 HD
BRANCH  29  31
ATOM     31  C   UNL d   1      27.895 -13.148  -2.072  0.00  0.00     0.035 A 
ATOM     32  C   UNL d   1      29.141 -13.052  -2.691  0.00  0.00     0.029 A 
ATOM     33  C   UNL d   1      29.493 -11.864  -3.343  0.00  0.00     0.003 A 
ATOM     34  C   UNL d   1      28.599 -10.789  -3.383  0.00  0.00     0.016 A 
ATOM     35  C   UNL d   1      27.374 -10.866  -2.716  0.00  0.00     0.050 A 
ATOM     36  C   UNL d   1      27.042 -12.047  -2.062  0.00  0.00     0.045 A 
BRANCH  35  37
ATOM     37  C   UNL d   1      26.428  -9.701  -2.654  0.00  0.00     0.417 C 
ATOM     38  F   UNL d   1      25.174 -10.053  -3.056  0.00  0.00    -0.166 F 
ATOM     39  F   UNL d   1      26.297  -9.193  -1.400  0.00  0.00    -0.166 F 
ATOM     40  F   UNL d   1      26.787  -8.655  -3.450  0.00  0.00    -0.166 F 
ENDBRANCH  35  37
ENDBRANCH  29  31
ENDBRANCH  26  27
ENDBRANCH  25  26
ENDBRANCH   6  25
TORSDOF 9
ENDMDL
MODEL 9
REMARK VINA RESULT:    -6.048      4.875      8.962
REMARK INTER + INTRA:         -14.103
REMARK INTER:                  -8.733
REMARK INTRA:                  -5.370
REMARK CONF_INDEPENDENT:        2.685
REMARK UNBOUND:                -5.370
REMARK  9 active torsions:
REMARK  status: ('A' for Active; 'I' for Inactive)
REMARK    1  A    between atoms: C_6  and  N_7 
REMARK       I    between atoms: N_7  and  C_8 
REMARK    2  A    between atoms: C_8  and  C_10 
REMARK       I    between atoms: C_10  and  N_12 
REMARK    3  A    between atoms: N_12  and  N_13 
REMARK    4  A    between atoms: C_14  and  C_15 
REMARK    5  A    between atoms: C_20  and  O_21 
REMARK    6  A    between atoms: O_21  and  C_22 
REMARK    7  A    between atoms: C_22  and  C_23 
REMARK       I    between atoms: C_23  and  N_25 
REMARK    8  A    between atoms: N_25  and  C_26 
REMARK    9  A    between atoms: C_30  and  C_31 
ROOT
ATOM      1  C   UNL d   1      24.892 -15.913  -1.749  0.00  0.00     0.016 A 
ATOM      2  C   UNL d   1      24.030 -17.018  -1.622  0.00  0.00     0.016 A 
ATOM      3  C   UNL d   1      24.296 -18.039  -0.691  0.00  0.00     0.001 A 
ATOM      4  C   UNL d   1      25.451 -18.001   0.082  0.00  0.00     0.003 A 
ATOM      5  C   UNL d   1      26.299 -16.900  -0.017  0.00  0.00     0.037 A 
ATOM      6  C   UNL d   1      26.021 -15.835  -0.898  0.00  0.00     0.081 A 
ENDROOT
BRANCH   1   7
ATOM      7  C   UNL d   1      24.507 -14.825  -2.718  0.00  0.00     0.153 C 
ATOM      8  N   UNL d   1      25.134 -14.725  -3.852  0.00  0.00    -0.183 NA
BRANCH   8   9
ATOM      9  N   UNL d   1      25.107 -13.564  -4.594  0.00  0.00    -0.239 N 
ATOM     10  C   UNL d   1      25.742 -12.399  -4.083  0.00  0.00     0.329 C 
ATOM     11  O   UNL d   1      26.255 -12.249  -2.989  0.00  0.00    -0.261 OA
ATOM     12  H   UNL d   1      24.496 -13.462  -5.405  0.00  0.00     0.192 HD
BRANCH  10  13
ATOM     13  C   UNL d   1      25.639 -11.193  -5.034  0.00  0.00     0.315 C 
ATOM     14  N   UNL d   1      26.080  -9.953  -4.538  0.00  0.00    -0.318 N 
ATOM     15  H   UNL d   1      26.349  -9.933  -3.559  0.00  0.00     0.169 HD
ATOM     16  O   UNL d   1      25.155 -11.450  -6.128  0.00  0.00    -0.262 OA
BRANCH  14  17
ATOM     17  C   UNL d   1      26.205  -8.746  -5.307  0.00  0.00     0.041 A 
ATOM     18  C   UNL d   1      27.483  -8.232  -5.577  0.00  0.00     0.030 A 
ATOM     19  C   UNL d   1      27.691  -7.067  -6.306  0.00  0.00     0.003 A 
ATOM     20  C   UNL d   1      26.612  -6.348  -6.776  0.00  0.00     0.007 A 
ATOM     21  C   UNL d   1      25.307  -6.795  -6.525  0.00  0.00    -0.054 A 
ATOM     22  C   UNL d   1      24.180  -5.936  -7.048  0.00  0.00     0.049 C 
ATOM     23  C   UNL d   1      25.087  -8.014  -5.799  0.00  0.00    -0.029 A 
ATOM     24  C   UNL d   1      23.655  -8.450  -5.599  0.00  0.00     0.051 C 
ENDBRANCH  14  17
ENDBRANCH  10  13
ENDBRANCH   8   9
ENDBRANCH   1   7
BRANCH   6  25
ATOM     25  O   UNL d   1      26.916 -14.807  -0.718  0.00  0.00    -0.341 OA
BRANCH  25  26
ATOM     26  C   UNL d   1      28.288 -15.109  -0.842  0.00  0.00     0.278 C 
BRANCH  26  27
ATOM     27  C   UNL d   1      28.932 -14.845  -2.180  0.00  0.00     0.246 C 
ATOM     28  O   UNL d   1      30.146 -14.944  -2.327  0.00  0.00    -0.271 OA
ATOM     29  N   UNL d   1      28.028 -14.509  -3.197  0.00  0.00    -0.325 N 
ATOM     30  H   UNL d   1      27.075 -14.250  -2.984  0.00  0.00     0.169 HD
BRANCH  29  31
ATOM     31  C   UNL d   1      28.421 -14.497  -4.544  0.00  0.00     0.035 A 
ATOM     32  C   UNL d   1      28.929 -15.636  -5.168  0.00  0.00     0.029 A 
ATOM     33  C   UNL d   1      29.287 -15.575  -6.520  0.00  0.00     0.003 A 
ATOM     34  C   UNL d   1      29.128 -14.387  -7.240  0.00  0.00     0.016 A 
ATOM     35  C   UNL d   1      28.670 -13.232  -6.601  0.00  0.00     0.050 A 
ATOM     36  C   UNL d   1      28.328 -13.303  -5.255  0.00  0.00     0.045 A 
BRANCH  35  37
ATOM     37  C   UNL d   1      28.574 -11.914  -7.314  0.00  0.00     0.417 C 
ATOM     38  F   UNL d   1      27.319 -11.695  -7.796  0.00  0.00    -0.166 F 
ATOM     39  F   UNL d   1      28.863 -10.857  -6.511  0.00  0.00    -0.166 F 
ATOM     40  F   UNL d   1      29.402 -11.807  -8.391  0.00  0.00    -0.166 F 
ENDBRANCH  35  37
ENDBRANCH  29  31
ENDBRANCH  26  27
ENDBRANCH  25  26
ENDBRANCH   6  25
TORSDOF 9
ENDMDL
