MODEL 1
REMARK VINA RESULT:   -30.021      0.000      0.000
REMARK INTER + INTRA:         -32.829
REMARK INTER:                 -31.811
REMARK INTRA:                  -1.018
REMARK CONF_INDEPENDENT:        1.790
REMARK UNBOUND:                -1.018
REMARK  6 active torsions:
REMARK  status: ('A' for Active; 'I' for Inactive)
REMARK    1  A    between atoms: C_2  and  O_3 
REMARK    2  A    between atoms: O_3  and  C_4 
REMARK    3  A    between atoms: C_6  and  C_7 
REMARK    4  A    between atoms: N_8  and  N_9 
REMARK       I    between atoms: N_9  and  C_10 
REMARK    5  A    between atoms: C_10  and  C_12 
REMARK    6  A    between atoms: C_21  and  O_22 
ROOT
ATOM      1  C   UNL d   1      27.745 -15.641  -4.374  0.00  0.00     0.104 A 
ATOM      2  C   UNL d   1      26.523 -15.703  -3.676  0.00  0.00     0.052 A 
ATOM      3  C   UNL d   1      26.473 -16.090  -2.325  0.00  0.00    -0.013 A 
ATOM      4  C   UNL d   1      27.666 -16.410  -1.665  0.00  0.00     0.035 A 
ATOM      5  C   UNL d   1      28.886 -16.329  -2.355  0.00  0.00     0.047 A 
ATOM      6 BR   UNL d   1      30.492 -16.762  -1.436  0.00  0.00    -0.048 Br
ATOM      7  C   UNL d   1      28.933 -15.932  -3.697  0.00  0.00     0.116 A 
ENDROOT
BRANCH   3   8
ATOM      8  C   UNL d   1      25.169 -16.160  -1.588  0.00  0.00     0.150 C 
ATOM      9  N   UNL d   1      24.406 -17.204  -1.672  0.00  0.00    -0.184 NA
BRANCH   9  10
ATOM     10  N   UNL d   1      23.210 -17.231  -0.987  0.00  0.00    -0.245 N 
ATOM     11  C   UNL d   1      22.374 -18.338  -1.176  0.00  0.00     0.268 C 
ATOM     12  O   UNL d   1      22.672 -19.275  -1.929  0.00  0.00    -0.269 OA
ATOM     13  H   UNL d   1      22.945 -16.454  -0.390  0.00  0.00     0.192 HD
BRANCH  11  14
ATOM     14  C   UNL d   1      21.084 -18.363  -0.332  0.00  0.00     0.249 A 
ATOM     15  C   UNL d   1      21.026 -19.567   0.543  0.00  0.00     0.040 A 
ATOM     16  C   UNL d   1      19.982 -20.278   0.120  0.00  0.00     0.051 A 
ATOM     17  C   UNL d   1      19.572 -21.614   0.634  0.00  0.00     0.072 C 
ATOM     18  N   UNL d   1      19.317 -19.657  -0.908  0.00  0.00    -0.160 NA
ATOM     19  N   UNL d   1      19.905 -18.576  -1.221  0.00  0.00    -0.174 NA
ENDBRANCH  11  14
ENDBRANCH   9  10
ENDBRANCH   3   8
BRANCH   1  20
ATOM     20  O   UNL d   1      27.664 -15.200  -5.673  0.00  0.00    -0.349 OA
BRANCH  20  21
ATOM     21  C   UNL d   1      27.463 -13.791  -5.842  0.00  0.00     0.171 C 
ATOM     22  C   UNL d   1      28.262 -13.321  -7.045  0.00  0.00     0.034 C 
ENDBRANCH  20  21
ENDBRANCH   1  20
BRANCH   7  23
ATOM     23  O   UNL d   1      30.140 -15.785  -4.329  0.00  0.00    -0.357 OA
ATOM     24  H   UNL d   1      29.989 -15.468  -5.237  0.00  0.00     0.218 HD
ENDBRANCH   7  23
TORSDOF 6
ENDMDL
MODEL 2
REMARK VINA RESULT:   -29.858      1.707      3.084
REMARK INTER + INTRA:         -32.522
REMARK INTER:                 -31.647
REMARK INTRA:                  -0.874
REMARK CONF_INDEPENDENT:        1.790
REMARK UNBOUND:                -0.874
REMARK  6 active torsions:
REMARK  status: ('A' for Active; 'I' for Inactive)
REMARK    1  A    between atoms: C_2  and  O_3 
REMARK    2  A    between atoms: O_3  and  C_4 
REMARK    3  A    between atoms: C_6  and  C_7 
REMARK    4  A    between atoms: N_8  and  N_9 
REMARK       I    between atoms: N_9  and  C_10 
REMARK    5  A    between atoms: C_10  and  C_12 
REMARK    6  A    between atoms: C_21  and  O_22 
ROOT
ATOM      1  C   UNL d   1      29.140 -16.605  -2.232  0.00  0.00     0.104 A 
ATOM      2  C   UNL d   1      27.862 -16.628  -1.640  0.00  0.00     0.052 A 
ATOM      3  C   UNL d   1      26.760 -16.014  -2.260  0.00  0.00    -0.013 A 
ATOM      4  C   UNL d   1      26.940 -15.378  -3.494  0.00  0.00     0.035 A 
ATOM      5  C   UNL d   1      28.210 -15.373  -4.094  0.00  0.00     0.047 A 
ATOM      6 BR   UNL d   1      28.429 -14.510  -5.773  0.00  0.00    -0.048 Br
ATOM      7  C   UNL d   1      29.303 -15.995  -3.480  0.00  0.00     0.116 A 
ENDROOT
BRANCH   3   8
ATOM      8  C   UNL d   1      25.402 -16.036  -1.622  0.00  0.00     0.150 C 
ATOM      9  N   UNL d   1      24.623 -17.065  -1.738  0.00  0.00    -0.184 NA
BRANCH   9  10
ATOM     10  N   UNL d   1      23.378 -17.047  -1.145  0.00  0.00    -0.245 N 
ATOM     11  C   UNL d   1      22.697 -18.264  -1.021  0.00  0.00     0.268 C 
ATOM     12  O   UNL d   1      23.170 -19.335  -1.425  0.00  0.00    -0.269 OA
ATOM     13  H   UNL d   1      22.971 -16.170  -0.837  0.00  0.00     0.192 HD
BRANCH  11  14
ATOM     14  C   UNL d   1      21.344 -18.209  -0.282  0.00  0.00     0.249 A 
ATOM     15  C   UNL d   1      21.117 -19.434   0.531  0.00  0.00     0.040 A 
ATOM     16  C   UNL d   1      20.055 -20.038  -0.002  0.00  0.00     0.051 A 
ATOM     17  C   UNL d   1      19.495 -21.352   0.419  0.00  0.00     0.072 C 
ATOM     18  N   UNL d   1      19.530 -19.325  -1.052  0.00  0.00    -0.160 NA
ATOM     19  N   UNL d   1      20.229 -18.288  -1.270  0.00  0.00    -0.174 NA
ENDBRANCH  11  14
ENDBRANCH   9  10
ENDBRANCH   3   8
BRANCH   1  20
ATOM     20  O   UNL d   1      30.122 -17.283  -1.550  0.00  0.00    -0.349 OA
BRANCH  20  21
ATOM     21  C   UNL d   1      30.627 -16.636  -0.376  0.00  0.00     0.171 C 
ATOM     22  C   UNL d   1      31.887 -17.352   0.078  0.00  0.00     0.034 C 
ENDBRANCH  20  21
ENDBRANCH   1  20
BRANCH   7  23
ATOM     23  O   UNL d   1      30.515 -16.045  -4.118  0.00  0.00    -0.357 OA
ATOM     24  H   UNL d   1      31.225 -16.073  -3.453  0.00  0.00     0.218 HD
ENDBRANCH   7  23
TORSDOF 6
ENDMDL
MODEL 3
REMARK VINA RESULT:   -28.799      1.954      2.787
REMARK INTER + INTRA:         -31.421
REMARK INTER:                 -30.589
REMARK INTRA:                  -0.832
REMARK CONF_INDEPENDENT:        1.790
REMARK UNBOUND:                -0.832
REMARK  6 active torsions:
REMARK  status: ('A' for Active; 'I' for Inactive)
REMARK    1  A    between atoms: C_2  and  O_3 
REMARK    2  A    between atoms: O_3  and  C_4 
REMARK    3  A    between atoms: C_6  and  C_7 
REMARK    4  A    between atoms: N_8  and  N_9 
REMARK       I    between atoms: N_9  and  C_10 
REMARK    5  A    between atoms: C_10  and  C_12 
REMARK    6  A    between atoms: C_21  and  O_22 
ROOT
ATOM      1  C   UNL d   1      29.007 -15.970  -3.591  0.00  0.00     0.104 A 
ATOM      2  C   UNL d   1      27.796 -16.027  -2.875  0.00  0.00     0.052 A 
ATOM      3  C   UNL d   1      26.696 -15.228  -3.236  0.00  0.00    -0.013 A 
ATOM      4  C   UNL d   1      26.813 -14.367  -4.334  0.00  0.00     0.035 A 
ATOM      5  C   UNL d   1      28.013 -14.325  -5.060  0.00  0.00     0.047 A 
ATOM      6 BR   UNL d   1      28.145 -13.155  -6.552  0.00  0.00    -0.048 Br
ATOM      7  C   UNL d   1      29.102 -15.131  -4.706  0.00  0.00     0.116 A 
ENDROOT
BRANCH   3   8
ATOM      8  C   UNL d   1      25.411 -15.288  -2.466  0.00  0.00     0.150 C 
ATOM      9  N   UNL d   1      24.874 -16.423  -2.144  0.00  0.00    -0.184 NA
BRANCH   9  10
ATOM     10  N   UNL d   1      23.687 -16.440  -1.442  0.00  0.00    -0.245 N 
ATOM     11  C   UNL d   1      23.096 -17.684  -1.191  0.00  0.00     0.268 C 
ATOM     12  O   UNL d   1      23.598 -18.749  -1.576  0.00  0.00    -0.269 OA
ATOM     13  H   UNL d   1      23.254 -15.571  -1.148  0.00  0.00     0.192 HD
BRANCH  11  14
ATOM     14  C   UNL d   1      21.812 -17.663  -0.338  0.00  0.00     0.249 A 
ATOM     15  C   UNL d   1      21.607 -18.954   0.373  0.00  0.00     0.040 A 
ATOM     16  C   UNL d   1      20.483 -19.471  -0.122  0.00  0.00     0.051 A 
ATOM     17  C   UNL d   1      19.911 -20.803   0.220  0.00  0.00     0.072 C 
ATOM     18  N   UNL d   1      19.900 -18.645  -1.051  0.00  0.00    -0.160 NA
ATOM     19  N   UNL d   1      20.617 -17.612  -1.229  0.00  0.00    -0.174 NA
ENDBRANCH  11  14
ENDBRANCH   9  10
ENDBRANCH   3   8
BRANCH   1  20
ATOM     20  O   UNL d   1      29.986 -16.838  -3.170  0.00  0.00    -0.349 OA
BRANCH  20  21
ATOM     21  C   UNL d   1      30.315 -17.896  -4.079  0.00  0.00     0.171 C 
ATOM     22  C   UNL d   1      31.742 -17.705  -4.561  0.00  0.00     0.034 C 
ENDBRANCH  20  21
ENDBRANCH   1  20
BRANCH   7  23
ATOM     23  O   UNL d   1      30.237 -15.132  -5.474  0.00  0.00    -0.357 OA
ATOM     24  H   UNL d   1      31.017 -15.137  -4.891  0.00  0.00     0.218 HD
ENDBRANCH   7  23
TORSDOF 6
ENDMDL
MODEL 4
REMARK VINA RESULT:   -28.351      1.737      2.041
REMARK INTER + INTRA:         -31.242
REMARK INTER:                 -30.141
REMARK INTRA:                  -1.101
REMARK CONF_INDEPENDENT:        1.790
REMARK UNBOUND:                -1.101
REMARK  6 active torsions:
REMARK  status: ('A' for Active; 'I' for Inactive)
REMARK    1  A    between atoms: C_2  and  O_3 
REMARK    2  A    between atoms: O_3  and  C_4 
REMARK    3  A    between atoms: C_6  and  C_7 
REMARK    4  A    between atoms: N_8  and  N_9 
REMARK       I    between atoms: N_9  and  C_10 
REMARK    5  A    between atoms: C_10  and  C_12 
REMARK    6  A    between atoms: C_21  and  O_22 
ROOT
ATOM      1  C   UNL d   1      27.140 -13.388  -5.273  0.00  0.00     0.104 A 
ATOM      2  C   UNL d   1      26.009 -13.628  -4.469  0.00  0.00     0.052 A 
ATOM      3  C   UNL d   1      25.979 -14.690  -3.548  0.00  0.00    -0.013 A 
ATOM      4  C   UNL d   1      27.103 -15.515  -3.426  0.00  0.00     0.035 A 
ATOM      5  C   UNL d   1      28.239 -15.264  -4.212  0.00  0.00     0.047 A 
ATOM      6 BR   UNL d   1      29.756 -16.394  -4.024  0.00  0.00    -0.048 Br
ATOM      7  C   UNL d   1      28.270 -14.199  -5.120  0.00  0.00     0.116 A 
ENDROOT
BRANCH   3   8
ATOM      8  C   UNL d   1      24.769 -14.944  -2.699  0.00  0.00     0.150 C 
ATOM      9  N   UNL d   1      24.461 -16.142  -2.313  0.00  0.00    -0.184 NA
BRANCH   9  10
ATOM     10  N   UNL d   1      23.336 -16.340  -1.539  0.00  0.00    -0.245 N 
ATOM     11  C   UNL d   1      23.104 -17.628  -1.043  0.00  0.00     0.268 C 
ATOM     12  O   UNL d   1      23.864 -18.577  -1.277  0.00  0.00    -0.269 OA
ATOM     13  H   UNL d   1      22.693 -15.574  -1.366  0.00  0.00     0.192 HD
BRANCH  11  14
ATOM     14  C   UNL d   1      21.879 -17.786  -0.120  0.00  0.00     0.249 A 
ATOM     15  C   UNL d   1      21.694 -19.201   0.304  0.00  0.00     0.040 A 
ATOM     16  C   UNL d   1      20.530 -19.590  -0.214  0.00  0.00     0.051 A 
ATOM     17  C   UNL d   1      19.954 -20.962  -0.133  0.00  0.00     0.072 C 
ATOM     18  N   UNL d   1      19.905 -18.577  -0.898  0.00  0.00    -0.160 NA
ATOM     19  N   UNL d   1      20.630 -17.535  -0.895  0.00  0.00    -0.174 NA
ENDBRANCH  11  14
ENDBRANCH   9  10
ENDBRANCH   3   8
BRANCH   1  20
ATOM     20  O   UNL d   1      27.062 -12.290  -6.096  0.00  0.00    -0.349 OA
BRANCH  20  21
ATOM     21  C   UNL d   1      26.873 -11.031  -5.438  0.00  0.00     0.171 C 
ATOM     22  C   UNL d   1      26.185 -10.074  -6.396  0.00  0.00     0.034 C 
ENDBRANCH  20  21
ENDBRANCH   1  20
BRANCH   7  23
ATOM     23  O   UNL d   1      29.414 -13.925  -5.822  0.00  0.00    -0.357 OA
ATOM     24  H   UNL d   1      29.333 -13.047  -6.235  0.00  0.00     0.218 HD
ENDBRANCH   7  23
TORSDOF 6
ENDMDL
