MODEL 1
REMARK VINA RESULT:    -5.883      0.000      0.000
REMARK INTER + INTRA:          -7.721
REMARK INTER:                  -7.374
REMARK INTRA:                  -0.347
REMARK CONF_INDEPENDENT:        1.492
REMARK UNBOUND:                -0.347
REMARK  5 active torsions:
REMARK  status: ('A' for Active; 'I' for Inactive)
REMARK    1  A    between atoms: C_2  and  C_3 
REMARK       I    between atoms: C_2  and  N_11 
REMARK    2  A    between atoms: C_4  and  C_5 
REMARK    3  A    between atoms: N_11  and  C_12 
REMARK    4  A    between atoms: C_12  and  C_13 
REMARK    5  A    between atoms: C_13  and  O_14 
ROOT
ATOM      1  O   UNL d   1      25.600 -17.858   0.675  0.00  0.00    -0.269 OA
ATOM      2  C   UNL d   1      24.924 -17.430  -0.258  0.00  0.00     0.241 C 
ATOM      3  N   UNL d   1      25.438 -16.490  -1.105  0.00  0.00    -0.356 N 
ATOM      4  H   UNL d   1      26.378 -16.197  -0.856  0.00  0.00     0.162 HD
ENDROOT
BRANCH   2   5
ATOM      5  C   UNL d   1      23.539 -17.896  -0.520  0.00  0.00     0.075 C 
ATOM      6  C   UNL d   1      22.824 -18.519   0.428  0.00  0.00     0.017 C 
BRANCH   6   7
ATOM      7  C   UNL d   1      21.445 -18.975   0.203  0.00  0.00    -0.036 A 
ATOM      8  C   UNL d   1      20.654 -19.327   1.302  0.00  0.00     0.011 A 
ATOM      9  C   UNL d   1      19.368 -19.842   1.117  0.00  0.00     0.001 A 
ATOM     10  C   UNL d   1      18.837 -19.950  -0.167  0.00  0.00     0.000 A 
ATOM     11  C   UNL d   1      19.611 -19.595  -1.269  0.00  0.00     0.001 A 
ATOM     12  C   UNL d   1      20.914 -19.125  -1.087  0.00  0.00     0.011 A 
ENDBRANCH   6   7
ENDBRANCH   2   5
BRANCH   3  13
ATOM     13  C   UNL d   1      24.775 -15.873  -2.236  0.00  0.00     0.148 C 
BRANCH  13  14
ATOM     14  C   UNL d   1      25.718 -15.162  -3.199  0.00  0.00     0.183 C 
BRANCH  14  15
ATOM     15  O   UNL d   1      24.994 -14.675  -4.325  0.00  0.00    -0.399 OA
ATOM     16  H   UNL d   1      24.582 -13.829  -4.075  0.00  0.00     0.209 HD
ENDBRANCH  14  15
ENDBRANCH  13  14
ENDBRANCH   3  13
TORSDOF 5
ENDMDL
MODEL 2
REMARK VINA RESULT:    -5.586      2.291      6.548
REMARK INTER + INTRA:          -8.117
REMARK INTER:                  -7.078
REMARK INTRA:                  -1.039
REMARK CONF_INDEPENDENT:        1.492
REMARK UNBOUND:                -1.039
REMARK  5 active torsions:
REMARK  status: ('A' for Active; 'I' for Inactive)
REMARK    1  A    between atoms: C_2  and  C_3 
REMARK       I    between atoms: C_2  and  N_11 
REMARK    2  A    between atoms: C_4  and  C_5 
REMARK    3  A    between atoms: N_11  and  C_12 
REMARK    4  A    between atoms: C_12  and  C_13 
REMARK    5  A    between atoms: C_13  and  O_14 
ROOT
ATOM      1  O   UNL d   1      24.748 -18.448   0.746  0.00  0.00    -0.269 OA
ATOM      2  C   UNL d   1      23.915 -18.280  -0.141  0.00  0.00     0.241 C 
ATOM      3  N   UNL d   1      22.690 -18.880  -0.057  0.00  0.00    -0.356 N 
ATOM      4  H   UNL d   1      22.585 -19.462   0.768  0.00  0.00     0.162 HD
ENDROOT
BRANCH   2   5
ATOM      5  C   UNL d   1      24.176 -17.434  -1.332  0.00  0.00     0.075 C 
ATOM      6  C   UNL d   1      24.958 -16.347  -1.256  0.00  0.00     0.017 C 
BRANCH   6   7
ATOM      7  C   UNL d   1      25.248 -15.501  -2.422  0.00  0.00    -0.036 A 
ATOM      8  C   UNL d   1      26.433 -15.710  -3.138  0.00  0.00     0.011 A 
ATOM      9  C   UNL d   1      26.778 -14.870  -4.201  0.00  0.00     0.001 A 
ATOM     10  C   UNL d   1      25.912 -13.854  -4.598  0.00  0.00     0.000 A 
ATOM     11  C   UNL d   1      24.726 -13.641  -3.899  0.00  0.00     0.001 A 
ATOM     12  C   UNL d   1      24.403 -14.450  -2.807  0.00  0.00     0.011 A 
ENDBRANCH   6   7
ENDBRANCH   2   5
BRANCH   3  13
ATOM     13  C   UNL d   1      21.607 -18.799  -1.016  0.00  0.00     0.148 C 
BRANCH  13  14
ATOM     14  C   UNL d   1      20.313 -19.455  -0.550  0.00  0.00     0.183 C 
BRANCH  14  15
ATOM     15  O   UNL d   1      20.546 -20.219   0.629  0.00  0.00    -0.399 OA
ATOM     16  H   UNL d   1      21.490 -20.455   0.653  0.00  0.00     0.209 HD
ENDBRANCH  14  15
ENDBRANCH  13  14
ENDBRANCH   3  13
TORSDOF 5
ENDMDL
MODEL 3
REMARK VINA RESULT:    -5.199      4.159      5.741
REMARK INTER + INTRA:          -7.734
REMARK INTER:                  -6.691
REMARK INTRA:                  -1.043
REMARK CONF_INDEPENDENT:        1.492
REMARK UNBOUND:                -1.043
REMARK  5 active torsions:
REMARK  status: ('A' for Active; 'I' for Inactive)
REMARK    1  A    between atoms: C_2  and  C_3 
REMARK       I    between atoms: C_2  and  N_11 
REMARK    2  A    between atoms: C_4  and  C_5 
REMARK    3  A    between atoms: N_11  and  C_12 
REMARK    4  A    between atoms: C_12  and  C_13 
REMARK    5  A    between atoms: C_13  and  O_14 
ROOT
ATOM      1  O   UNL d   1      24.429 -14.350  -4.659  0.00  0.00    -0.269 OA
ATOM      2  C   UNL d   1      25.121 -13.861  -3.768  0.00  0.00     0.241 C 
ATOM      3  N   UNL d   1      25.404 -12.524  -3.774  0.00  0.00    -0.356 N 
ATOM      4  H   UNL d   1      25.013 -12.035  -4.573  0.00  0.00     0.162 HD
ENDROOT
BRANCH   2   5
ATOM      5  C   UNL d   1      25.679 -14.668  -2.655  0.00  0.00     0.075 C 
ATOM      6  C   UNL d   1      25.152 -15.857  -2.326  0.00  0.00     0.017 C 
BRANCH   6   7
ATOM      7  C   UNL d   1      25.696 -16.686  -1.242  0.00  0.00    -0.036 A 
ATOM      8  C   UNL d   1      24.822 -17.465  -0.474  0.00  0.00     0.011 A 
ATOM      9  C   UNL d   1      25.296 -18.200   0.616  0.00  0.00     0.001 A 
ATOM     10  C   UNL d   1      26.657 -18.214   0.911  0.00  0.00     0.000 A 
ATOM     11  C   UNL d   1      27.538 -17.450   0.150  0.00  0.00     0.001 A 
ATOM     12  C   UNL d   1      27.059 -16.677  -0.911  0.00  0.00     0.011 A 
ENDBRANCH   6   7
ENDBRANCH   2   5
BRANCH   3  13
ATOM     13  C   UNL d   1      26.211 -11.795  -2.816  0.00  0.00     0.148 C 
BRANCH  13  14
ATOM     14  C   UNL d   1      26.259 -10.291  -3.059  0.00  0.00     0.183 C 
BRANCH  14  15
ATOM     15  O   UNL d   1      25.463  -9.950  -4.189  0.00  0.00    -0.399 OA
ATOM     16  H   UNL d   1      24.763 -10.621  -4.277  0.00  0.00     0.209 HD
ENDBRANCH  14  15
ENDBRANCH  13  14
ENDBRANCH   3  13
TORSDOF 5
ENDMDL
MODEL 4
REMARK VINA RESULT:    -5.120      3.706      5.240
REMARK INTER + INTRA:          -7.678
REMARK INTER:                  -6.611
REMARK INTRA:                  -1.066
REMARK CONF_INDEPENDENT:        1.492
REMARK UNBOUND:                -1.066
REMARK  5 active torsions:
REMARK  status: ('A' for Active; 'I' for Inactive)
REMARK    1  A    between atoms: C_2  and  C_3 
REMARK       I    between atoms: C_2  and  N_11 
REMARK    2  A    between atoms: C_4  and  C_5 
REMARK    3  A    between atoms: N_11  and  C_12 
REMARK    4  A    between atoms: C_12  and  C_13 
REMARK    5  A    between atoms: C_13  and  O_14 
ROOT
ATOM      1  O   UNL d   1      26.885 -15.196  -5.760  0.00  0.00    -0.269 OA
ATOM      2  C   UNL d   1      26.293 -14.740  -4.784  0.00  0.00     0.241 C 
ATOM      3  N   UNL d   1      26.206 -13.388  -4.603  0.00  0.00    -0.356 N 
ATOM      4  H   UNL d   1      26.686 -12.855  -5.321  0.00  0.00     0.162 HD
ENDROOT
BRANCH   2   5
ATOM      5  C   UNL d   1      25.651 -15.605  -3.763  0.00  0.00     0.075 C 
ATOM      6  C   UNL d   1      26.251 -15.861  -2.592  0.00  0.00     0.017 C 
BRANCH   6   7
ATOM      7  C   UNL d   1      25.631 -16.698  -1.555  0.00  0.00    -0.036 A 
ATOM      8  C   UNL d   1      24.239 -16.842  -1.536  0.00  0.00     0.011 A 
ATOM      9  C   UNL d   1      23.613 -17.563  -0.516  0.00  0.00     0.001 A 
ATOM     10  C   UNL d   1      24.376 -18.201   0.459  0.00  0.00     0.000 A 
ATOM     11  C   UNL d   1      25.763 -18.073   0.447  0.00  0.00     0.001 A 
ATOM     12  C   UNL d   1      26.387 -17.312  -0.546  0.00  0.00     0.011 A 
ENDBRANCH   6   7
ENDBRANCH   2   5
BRANCH   3  13
ATOM     13  C   UNL d   1      25.564 -12.691  -3.506  0.00  0.00     0.148 C 
BRANCH  13  14
ATOM     14  C   UNL d   1      25.534 -11.175  -3.665  0.00  0.00     0.183 C 
BRANCH  14  15
ATOM     15  O   UNL d   1      25.812 -10.817  -5.015  0.00  0.00    -0.399 OA
ATOM     16  H   UNL d   1      25.030 -11.036  -5.552  0.00  0.00     0.209 HD
ENDBRANCH  14  15
ENDBRANCH  13  14
ENDBRANCH   3  13
TORSDOF 5
ENDMDL
MODEL 5
REMARK VINA RESULT:    -5.058      2.580      3.767
REMARK INTER + INTRA:          -7.091
REMARK INTER:                  -6.550
REMARK INTRA:                  -0.541
REMARK CONF_INDEPENDENT:        1.492
REMARK UNBOUND:                -0.541
REMARK  5 active torsions:
REMARK  status: ('A' for Active; 'I' for Inactive)
REMARK    1  A    between atoms: C_2  and  C_3 
REMARK       I    between atoms: C_2  and  N_11 
REMARK    2  A    between atoms: C_4  and  C_5 
REMARK    3  A    between atoms: N_11  and  C_12 
REMARK    4  A    between atoms: C_12  and  C_13 
REMARK    5  A    between atoms: C_13  and  O_14 
ROOT
ATOM      1  O   UNL d   1      28.695 -15.380  -2.238  0.00  0.00    -0.269 OA
ATOM      2  C   UNL d   1      27.529 -15.009  -2.352  0.00  0.00     0.241 C 
ATOM      3  N   UNL d   1      27.250 -13.711  -2.674  0.00  0.00    -0.356 N 
ATOM      4  H   UNL d   1      28.080 -13.134  -2.772  0.00  0.00     0.162 HD
ENDROOT
BRANCH   2   5
ATOM      5  C   UNL d   1      26.376 -15.922  -2.154  0.00  0.00     0.075 C 
ATOM      6  C   UNL d   1      25.692 -15.938  -1.000  0.00  0.00     0.017 C 
BRANCH   6   7
ATOM      7  C   UNL d   1      24.536 -16.818  -0.782  0.00  0.00    -0.036 A 
ATOM      8  C   UNL d   1      24.751 -18.176  -0.520  0.00  0.00     0.011 A 
ATOM      9  C   UNL d   1      23.671 -19.055  -0.390  0.00  0.00     0.001 A 
ATOM     10  C   UNL d   1      22.366 -18.573  -0.458  0.00  0.00     0.000 A 
ATOM     11  C   UNL d   1      22.138 -17.222  -0.711  0.00  0.00     0.001 A 
ATOM     12  C   UNL d   1      23.217 -16.351  -0.889  0.00  0.00     0.011 A 
ENDBRANCH   6   7
ENDBRANCH   2   5
BRANCH   3  13
ATOM     13  C   UNL d   1      25.941 -13.108  -2.831  0.00  0.00     0.148 C 
BRANCH  13  14
ATOM     14  C   UNL d   1      25.362 -13.235  -4.235  0.00  0.00     0.183 C 
BRANCH  14  15
ATOM     15  O   UNL d   1      24.478 -14.350  -4.303  0.00  0.00    -0.399 OA
ATOM     16  H   UNL d   1      23.840 -14.185  -5.020  0.00  0.00     0.209 HD
ENDBRANCH  14  15
ENDBRANCH  13  14
ENDBRANCH   3  13
TORSDOF 5
ENDMDL
MODEL 6
REMARK VINA RESULT:    -5.035      3.927      5.585
REMARK INTER + INTRA:          -7.619
REMARK INTER:                  -6.527
REMARK INTRA:                  -1.093
REMARK CONF_INDEPENDENT:        1.492
REMARK UNBOUND:                -1.093
REMARK  5 active torsions:
REMARK  status: ('A' for Active; 'I' for Inactive)
REMARK    1  A    between atoms: C_2  and  C_3 
REMARK       I    between atoms: C_2  and  N_11 
REMARK    2  A    between atoms: C_4  and  C_5 
REMARK    3  A    between atoms: N_11  and  C_12 
REMARK    4  A    between atoms: C_12  and  C_13 
REMARK    5  A    between atoms: C_13  and  O_14 
ROOT
ATOM      1  O   UNL d   1      24.786 -14.138  -4.645  0.00  0.00    -0.269 OA
ATOM      2  C   UNL d   1      25.880 -14.658  -4.436  0.00  0.00     0.241 C 
ATOM      3  N   UNL d   1      26.885 -14.536  -5.353  0.00  0.00    -0.356 N 
ATOM      4  H   UNL d   1      26.612 -14.018  -6.182  0.00  0.00     0.162 HD
ENDROOT
BRANCH   2   5
ATOM      5  C   UNL d   1      26.175 -15.431  -3.203  0.00  0.00     0.075 C 
ATOM      6  C   UNL d   1      25.193 -15.996  -2.486  0.00  0.00     0.017 C 
BRANCH   6   7
ATOM      7  C   UNL d   1      25.456 -16.782  -1.272  0.00  0.00    -0.036 A 
ATOM      8  C   UNL d   1      26.776 -16.941  -0.835  0.00  0.00     0.011 A 
ATOM      9  C   UNL d   1      27.068 -17.751   0.267  0.00  0.00     0.001 A 
ATOM     10  C   UNL d   1      26.036 -18.357   0.980  0.00  0.00     0.000 A 
ATOM     11  C   UNL d   1      24.718 -18.200   0.560  0.00  0.00     0.001 A 
ATOM     12  C   UNL d   1      24.430 -17.430  -0.570  0.00  0.00     0.011 A 
ENDBRANCH   6   7
ENDBRANCH   2   5
BRANCH   3  13
ATOM     13  C   UNL d   1      28.220 -15.096  -5.270  0.00  0.00     0.148 C 
BRANCH  13  14
ATOM     14  C   UNL d   1      29.104 -14.778  -6.470  0.00  0.00     0.183 C 
BRANCH  14  15
ATOM     15  O   UNL d   1      28.338 -14.148  -7.492  0.00  0.00    -0.399 OA
ATOM     16  H   UNL d   1      28.680 -14.448  -8.352  0.00  0.00     0.209 HD
ENDBRANCH  14  15
ENDBRANCH  13  14
ENDBRANCH   3  13
TORSDOF 5
ENDMDL
MODEL 7
REMARK VINA RESULT:    -5.018      2.927      4.202
REMARK INTER + INTRA:          -7.620
REMARK INTER:                  -6.510
REMARK INTRA:                  -1.110
REMARK CONF_INDEPENDENT:        1.492
REMARK UNBOUND:                -1.110
REMARK  5 active torsions:
REMARK  status: ('A' for Active; 'I' for Inactive)
REMARK    1  A    between atoms: C_2  and  C_3 
REMARK       I    between atoms: C_2  and  N_11 
REMARK    2  A    between atoms: C_4  and  C_5 
REMARK    3  A    between atoms: N_11  and  C_12 
REMARK    4  A    between atoms: C_12  and  C_13 
REMARK    5  A    between atoms: C_13  and  O_14 
ROOT
ATOM      1  O   UNL d   1      28.623 -17.963  -0.477  0.00  0.00    -0.269 OA
ATOM      2  C   UNL d   1      27.867 -17.096  -0.045  0.00  0.00     0.241 C 
ATOM      3  N   UNL d   1      28.350 -16.103   0.760  0.00  0.00    -0.356 N 
ATOM      4  H   UNL d   1      29.341 -16.192   0.957  0.00  0.00     0.162 HD
ENDROOT
BRANCH   2   5
ATOM      5  C   UNL d   1      26.417 -17.069  -0.362  0.00  0.00     0.075 C 
ATOM      6  C   UNL d   1      25.642 -18.144  -0.160  0.00  0.00     0.017 C 
BRANCH   6   7
ATOM      7  C   UNL d   1      24.200 -18.140  -0.447  0.00  0.00    -0.036 A 
ATOM      8  C   UNL d   1      23.540 -16.917  -0.612  0.00  0.00     0.011 A 
ATOM      9  C   UNL d   1      22.156 -16.877  -0.803  0.00  0.00     0.001 A 
ATOM     10  C   UNL d   1      21.428 -18.061  -0.895  0.00  0.00     0.000 A 
ATOM     11  C   UNL d   1      22.075 -19.285  -0.741  0.00  0.00     0.001 A 
ATOM     12  C   UNL d   1      23.451 -19.325  -0.502  0.00  0.00     0.011 A 
ENDBRANCH   6   7
ENDBRANCH   2   5
BRANCH   3  13
ATOM     13  C   UNL d   1      27.598 -15.020   1.363  0.00  0.00     0.148 C 
BRANCH  13  14
ATOM     14  C   UNL d   1      28.420 -14.131   2.288  0.00  0.00     0.183 C 
BRANCH  14  15
ATOM     15  O   UNL d   1      29.761 -14.605   2.361  0.00  0.00    -0.399 OA
ATOM     16  H   UNL d   1      29.741 -15.512   2.715  0.00  0.00     0.209 HD
ENDBRANCH  14  15
ENDBRANCH  13  14
ENDBRANCH   3  13
TORSDOF 5
ENDMDL
MODEL 8
REMARK VINA RESULT:    -4.851     11.476     13.800
REMARK INTER + INTRA:          -7.419
REMARK INTER:                  -6.343
REMARK INTRA:                  -1.076
REMARK CONF_INDEPENDENT:        1.492
REMARK UNBOUND:                -1.076
REMARK  5 active torsions:
REMARK  status: ('A' for Active; 'I' for Inactive)
REMARK    1  A    between atoms: C_2  and  C_3 
REMARK       I    between atoms: C_2  and  N_11 
REMARK    2  A    between atoms: C_4  and  C_5 
REMARK    3  A    between atoms: N_11  and  C_12 
REMARK    4  A    between atoms: C_12  and  C_13 
REMARK    5  A    between atoms: C_13  and  O_14 
ROOT
ATOM      1  O   UNL d   1      30.139 -21.250   5.873  0.00  0.00    -0.269 OA
ATOM      2  C   UNL d   1      31.111 -21.372   5.131  0.00  0.00     0.241 C 
ATOM      3  N   UNL d   1      30.948 -21.334   3.774  0.00  0.00    -0.356 N 
ATOM      4  H   UNL d   1      29.981 -21.227   3.489  0.00  0.00     0.162 HD
ENDROOT
BRANCH   2   5
ATOM      5  C   UNL d   1      32.490 -21.561   5.644  0.00  0.00     0.075 C 
ATOM      6  C   UNL d   1      32.717 -21.864   6.931  0.00  0.00     0.017 C 
BRANCH   6   7
ATOM      7  C   UNL d   1      34.070 -22.076   7.463  0.00  0.00    -0.036 A 
ATOM      8  C   UNL d   1      34.885 -20.966   7.718  0.00  0.00     0.011 A 
ATOM      9  C   UNL d   1      36.205 -21.137   8.146  0.00  0.00     0.001 A 
ATOM     10  C   UNL d   1      36.702 -22.416   8.384  0.00  0.00     0.000 A 
ATOM     11  C   UNL d   1      35.899 -23.528   8.143  0.00  0.00     0.001 A 
ATOM     12  C   UNL d   1      34.595 -23.360   7.669  0.00  0.00     0.011 A 
ENDBRANCH   6   7
ENDBRANCH   2   5
BRANCH   3  13
ATOM     13  C   UNL d   1      31.978 -21.476   2.764  0.00  0.00     0.148 C 
BRANCH  13  14
ATOM     14  C   UNL d   1      31.442 -21.632   1.346  0.00  0.00     0.183 C 
BRANCH  14  15
ATOM     15  O   UNL d   1      30.024 -21.763   1.369  0.00  0.00    -0.399 OA
ATOM     16  H   UNL d   1      29.640 -20.930   1.043  0.00  0.00     0.209 HD
ENDBRANCH  14  15
ENDBRANCH  13  14
ENDBRANCH   3  13
TORSDOF 5
ENDMDL
MODEL 9
REMARK VINA RESULT:    -4.422      4.044      6.132
REMARK INTER + INTRA:          -6.891
REMARK INTER:                  -5.913
REMARK INTRA:                  -0.978
REMARK CONF_INDEPENDENT:        1.492
REMARK UNBOUND:                -0.978
REMARK  5 active torsions:
REMARK  status: ('A' for Active; 'I' for Inactive)
REMARK    1  A    between atoms: C_2  and  C_3 
REMARK       I    between atoms: C_2  and  N_11 
REMARK    2  A    between atoms: C_4  and  C_5 
REMARK    3  A    between atoms: N_11  and  C_12 
REMARK    4  A    between atoms: C_12  and  C_13 
REMARK    5  A    between atoms: C_13  and  O_14 
ROOT
ATOM      1  O   UNL d   1      29.758 -14.798   0.667  0.00  0.00    -0.269 OA
ATOM      2  C   UNL d   1      28.760 -14.833   1.382  0.00  0.00     0.241 C 
ATOM      3  N   UNL d   1      28.845 -14.476   2.698  0.00  0.00    -0.356 N 
ATOM      4  H   UNL d   1      29.784 -14.222   2.986  0.00  0.00     0.162 HD
ENDROOT
BRANCH   2   5
ATOM      5  C   UNL d   1      27.429 -15.254   0.878  0.00  0.00     0.075 C 
ATOM      6  C   UNL d   1      27.212 -16.508   0.453  0.00  0.00     0.017 C 
BRANCH   6   7
ATOM      7  C   UNL d   1      25.900 -16.958  -0.035  0.00  0.00    -0.036 A 
ATOM      8  C   UNL d   1      25.132 -16.095  -0.824  0.00  0.00     0.011 A 
ATOM      9  C   UNL d   1      23.847 -16.461  -1.234  0.00  0.00     0.001 A 
ATOM     10  C   UNL d   1      23.343 -17.718  -0.913  0.00  0.00     0.000 A 
ATOM     11  C   UNL d   1      24.100 -18.590  -0.134  0.00  0.00     0.001 A 
ATOM     12  C   UNL d   1      25.366 -18.207   0.317  0.00  0.00     0.011 A 
ENDBRANCH   6   7
ENDBRANCH   2   5
BRANCH   3  13
ATOM     13  C   UNL d   1      27.776 -14.476   3.677  0.00  0.00     0.148 C 
BRANCH  13  14
ATOM     14  C   UNL d   1      28.227 -14.817   5.092  0.00  0.00     0.183 C 
BRANCH  14  15
ATOM     15  O   UNL d   1      29.598 -15.202   5.091  0.00  0.00    -0.399 OA
ATOM     16  H   UNL d   1      29.779 -15.669   4.257  0.00  0.00     0.209 HD
ENDBRANCH  14  15
ENDBRANCH  13  14
ENDBRANCH   3  13
TORSDOF 5
ENDMDL
