MODEL 1
REMARK VINA RESULT:   -33.138      0.000      0.000
REMARK INTER + INTRA:         -36.722
REMARK INTER:                 -35.823
REMARK INTRA:                  -0.900
REMARK CONF_INDEPENDENT:        2.685
REMARK UNBOUND:                -0.900
REMARK  9 active torsions:
REMARK  status: ('A' for Active; 'I' for Inactive)
REMARK    1  A    between atoms: C_4  and  N_5 
REMARK       I    between atoms: N_5  and  C_6 
REMARK    2  A    between atoms: C_6  and  C_8 
REMARK    3  A    between atoms: C_8  and  S_9 
REMARK    4  A    between atoms: S_9  and  C_10 
REMARK    5  A    between atoms: C_10  and  C_11 
REMARK       I    between atoms: C_11  and  N_13 
REMARK    6  A    between atoms: N_13  and  N_14 
REMARK    7  A    between atoms: N_14  and  C_15 
REMARK    8  A    between atoms: C_15  and  N_17 
REMARK    9  A    between atoms: N_17  and  C_18 
ROOT
ATOM      1  C   UNL d   1      27.179 -16.302   0.098  0.00  0.00     0.245 C 
ATOM      2  O   UNL d   1      26.470 -15.334  -0.208  0.00  0.00    -0.271 OA
ATOM      3  N   UNL d   1      28.308 -16.099   0.870  0.00  0.00    -0.267 N 
ATOM      4  H   UNL d   1      28.952 -16.841   1.140  0.00  0.00     0.190 HD
ENDROOT
BRANCH   1   5
ATOM      5  C   UNL d   1      26.897 -17.785  -0.322  0.00  0.00     0.178 C 
BRANCH   5   6
ATOM      6  S   UNL d   1      25.209 -18.228   0.228  0.00  0.00    -0.150 SA
BRANCH   6   7
ATOM      7  C   UNL d   1      23.993 -17.449  -0.952  0.00  0.00     0.177 C 
BRANCH   7   8
ATOM      8  C   UNL d   1      22.789 -18.426  -1.041  0.00  0.00     0.232 C 
ATOM      9  N   UNL d   1      21.765 -18.294  -0.118  0.00  0.00    -0.309 N 
ATOM     10  H   UNL d   1      21.755 -17.592   0.609  0.00  0.00     0.170 HD
ATOM     11  O   UNL d   1      22.759 -19.295  -1.920  0.00  0.00    -0.272 OA
BRANCH   9  12
ATOM     12  C   UNL d   1      20.649 -19.138  -0.144  0.00  0.00     0.160 A 
ATOM     13  C   UNL d   1      20.131 -19.910   0.921  0.00  0.00     0.087 A 
ATOM     14  C   UNL d   1      19.052 -20.576   0.418  0.00  0.00     0.078 A 
ATOM     15  C   UNL d   1      18.115 -21.532   1.035  0.00  0.00     0.079 C 
ATOM     16  O   UNL d   1      18.900 -20.230  -0.888  0.00  0.00    -0.216 OA
ATOM     17  N   UNL d   1      19.905 -19.323  -1.245  0.00  0.00    -0.110 NA
ENDBRANCH   9  12
ENDBRANCH   7   8
ENDBRANCH   6   7
ENDBRANCH   5   6
ENDBRANCH   1   5
BRANCH   3  18
ATOM     18  N   UNL d   1      28.670 -14.773   1.322  0.00  0.00    -0.274 N 
ATOM     19  H   UNL d   1      29.450 -14.338   0.829  0.00  0.00     0.189 HD
BRANCH  18  20
ATOM     20  C   UNL d   1      28.063 -14.263   2.469  0.00  0.00     0.186 C 
ATOM     21  S   UNL d   1      26.723 -13.245   2.308  0.00  0.00    -0.040 SA
BRANCH  20  22
ATOM     22  N   UNL d   1      28.686 -14.612   3.678  0.00  0.00    -0.361 N 
ATOM     23  H   UNL d   1      29.347 -15.380   3.669  0.00  0.00     0.162 HD
BRANCH  22  24
ATOM     24  C   UNL d   1      28.337 -14.040   5.019  0.00  0.00     0.083 C 
ATOM     25  C   UNL d   1      29.296 -14.411   6.189  0.00  0.00     0.025 C 
ATOM     26  C   UNL d   1      28.907 -13.693   7.507  0.00  0.00     0.002 C 
ATOM     27  C   UNL d   1      28.802 -12.179   7.340  0.00  0.00     0.000 C 
ATOM     28  C   UNL d   1      27.841 -11.845   6.220  0.00  0.00     0.002 C 
ATOM     29  C   UNL d   1      28.287 -12.505   4.932  0.00  0.00     0.025 C 
ENDBRANCH  22  24
ENDBRANCH  20  22
ENDBRANCH  18  20
ENDBRANCH   3  18
TORSDOF 9
ENDMDL
MODEL 2
REMARK VINA RESULT:   -32.648      0.894      1.316
REMARK INTER + INTRA:         -36.656
REMARK INTER:                 -35.333
REMARK INTRA:                  -1.323
REMARK CONF_INDEPENDENT:        2.685
REMARK UNBOUND:                -1.323
REMARK  9 active torsions:
REMARK  status: ('A' for Active; 'I' for Inactive)
REMARK    1  A    between atoms: C_4  and  N_5 
REMARK       I    between atoms: N_5  and  C_6 
REMARK    2  A    between atoms: C_6  and  C_8 
REMARK    3  A    between atoms: C_8  and  S_9 
REMARK    4  A    between atoms: S_9  and  C_10 
REMARK    5  A    between atoms: C_10  and  C_11 
REMARK       I    between atoms: C_11  and  N_13 
REMARK    6  A    between atoms: N_13  and  N_14 
REMARK    7  A    between atoms: N_14  and  C_15 
REMARK    8  A    between atoms: C_15  and  N_17 
REMARK    9  A    between atoms: N_17  and  C_18 
ROOT
ATOM      1  C   UNL d   1      26.824 -16.123   0.403  0.00  0.00     0.245 C 
ATOM      2  O   UNL d   1      26.043 -15.308  -0.106  0.00  0.00    -0.271 OA
ATOM      3  N   UNL d   1      27.785 -15.678   1.291  0.00  0.00    -0.267 N 
ATOM      4  H   UNL d   1      28.477 -16.283   1.729  0.00  0.00     0.190 HD
ENDROOT
BRANCH   1   5
ATOM      5  C   UNL d   1      26.815 -17.664   0.122  0.00  0.00     0.178 C 
BRANCH   5   6
ATOM      6  S   UNL d   1      25.110 -18.283   0.360  0.00  0.00    -0.150 SA
BRANCH   6   7
ATOM      7  C   UNL d   1      24.040 -17.567  -0.989  0.00  0.00     0.177 C 
BRANCH   7   8
ATOM      8  C   UNL d   1      22.790 -18.483  -1.083  0.00  0.00     0.232 C 
ATOM      9  N   UNL d   1      21.791 -18.331  -0.136  0.00  0.00    -0.309 N 
ATOM     10  H   UNL d   1      21.828 -17.652   0.612  0.00  0.00     0.170 HD
ATOM     11  O   UNL d   1      22.701 -19.323  -1.986  0.00  0.00    -0.272 OA
BRANCH   9  12
ATOM     12  C   UNL d   1      20.635 -19.121  -0.164  0.00  0.00     0.160 A 
ATOM     13  C   UNL d   1      20.100 -19.896   0.890  0.00  0.00     0.087 A 
ATOM     14  C   UNL d   1      18.982 -20.497   0.389  0.00  0.00     0.078 A 
ATOM     15  C   UNL d   1      18.011 -21.424   0.997  0.00  0.00     0.079 C 
ATOM     16  O   UNL d   1      18.824 -20.108  -0.905  0.00  0.00    -0.216 OA
ATOM     17  N   UNL d   1      19.865 -19.240  -1.256  0.00  0.00    -0.110 NA
ENDBRANCH   9  12
ENDBRANCH   7   8
ENDBRANCH   6   7
ENDBRANCH   5   6
ENDBRANCH   1   5
BRANCH   3  18
ATOM     18  N   UNL d   1      27.889 -14.275   1.632  0.00  0.00    -0.274 N 
ATOM     19  H   UNL d   1      27.155 -13.676   1.254  0.00  0.00     0.189 HD
BRANCH  18  20
ATOM     20  C   UNL d   1      29.032 -13.824   2.290  0.00  0.00     0.186 C 
ATOM     21  S   UNL d   1      30.046 -12.716   1.513  0.00  0.00    -0.040 SA
BRANCH  20  22
ATOM     22  N   UNL d   1      29.262 -14.401   3.549  0.00  0.00    -0.361 N 
ATOM     23  H   UNL d   1      29.323 -15.412   3.607  0.00  0.00     0.162 HD
BRANCH  22  24
ATOM     24  C   UNL d   1      29.270 -13.653   4.848  0.00  0.00     0.083 C 
ATOM     25  C   UNL d   1      27.895 -13.096   5.323  0.00  0.00     0.025 C 
ATOM     26  C   UNL d   1      27.991 -12.428   6.718  0.00  0.00     0.002 C 
ATOM     27  C   UNL d   1      28.604 -13.350   7.769  0.00  0.00     0.000 C 
ATOM     28  C   UNL d   1      29.951 -13.851   7.298  0.00  0.00     0.002 C 
ATOM     29  C   UNL d   1      29.812 -14.559   5.966  0.00  0.00     0.025 C 
ENDBRANCH  22  24
ENDBRANCH  20  22
ENDBRANCH  18  20
ENDBRANCH   3  18
TORSDOF 9
ENDMDL
MODEL 3
REMARK VINA RESULT:   -32.089      5.488      6.855
REMARK INTER + INTRA:         -36.466
REMARK INTER:                 -34.774
REMARK INTRA:                  -1.692
REMARK CONF_INDEPENDENT:        2.685
REMARK UNBOUND:                -1.692
REMARK  9 active torsions:
REMARK  status: ('A' for Active; 'I' for Inactive)
REMARK    1  A    between atoms: C_4  and  N_5 
REMARK       I    between atoms: N_5  and  C_6 
REMARK    2  A    between atoms: C_6  and  C_8 
REMARK    3  A    between atoms: C_8  and  S_9 
REMARK    4  A    between atoms: S_9  and  C_10 
REMARK    5  A    between atoms: C_10  and  C_11 
REMARK       I    between atoms: C_11  and  N_13 
REMARK    6  A    between atoms: N_13  and  N_14 
REMARK    7  A    between atoms: N_14  and  C_15 
REMARK    8  A    between atoms: C_15  and  N_17 
REMARK    9  A    between atoms: N_17  and  C_18 
ROOT
ATOM      1  C   UNL d   1      25.396 -14.756  -3.350  0.00  0.00     0.245 C 
ATOM      2  O   UNL d   1      25.169 -14.938  -4.553  0.00  0.00    -0.271 OA
ATOM      3  N   UNL d   1      25.500 -13.465  -2.867  0.00  0.00    -0.267 N 
ATOM      4  H   UNL d   1      25.710 -13.237  -1.897  0.00  0.00     0.190 HD
ENDROOT
BRANCH   1   5
ATOM      5  C   UNL d   1      25.579 -15.898  -2.293  0.00  0.00     0.178 C 
BRANCH   5   6
ATOM      6  S   UNL d   1      23.948 -16.257  -1.546  0.00  0.00    -0.150 SA
BRANCH   6   7
ATOM      7  C   UNL d   1      24.110 -17.806  -0.519  0.00  0.00     0.177 C 
BRANCH   7   8
ATOM      8  C   UNL d   1      22.818 -18.629  -0.770  0.00  0.00     0.232 C 
ATOM      9  N   UNL d   1      21.797 -18.554   0.163  0.00  0.00    -0.309 N 
ATOM     10  H   UNL d   1      21.845 -17.987   0.999  0.00  0.00     0.170 HD
ATOM     11  O   UNL d   1      22.715 -19.331  -1.783  0.00  0.00    -0.272 OA
BRANCH   9  12
ATOM     12  C   UNL d   1      20.604 -19.266  -0.002  0.00  0.00     0.160 A 
ATOM     13  C   UNL d   1      19.957 -20.090   0.947  0.00  0.00     0.087 A 
ATOM     14  C   UNL d   1      18.843 -20.578   0.329  0.00  0.00     0.078 A 
ATOM     15  C   UNL d   1      17.783 -21.491   0.795  0.00  0.00     0.079 C 
ATOM     16  O   UNL d   1      18.794 -20.078  -0.935  0.00  0.00    -0.216 OA
ATOM     17  N   UNL d   1      19.903 -19.250  -1.147  0.00  0.00    -0.110 NA
ENDBRANCH   9  12
ENDBRANCH   7   8
ENDBRANCH   6   7
ENDBRANCH   5   6
ENDBRANCH   1   5
BRANCH   3  18
ATOM     18  N   UNL d   1      25.346 -12.327  -3.748  0.00  0.00    -0.274 N 
ATOM     19  H   UNL d   1      24.436 -11.868  -3.717  0.00  0.00     0.189 HD
BRANCH  18  20
ATOM     20  C   UNL d   1      26.354 -12.046  -4.669  0.00  0.00     0.186 C 
ATOM     21  S   UNL d   1      26.899 -10.454  -4.832  0.00  0.00    -0.040 SA
BRANCH  20  22
ATOM     22  N   UNL d   1      26.786 -13.142  -5.433  0.00  0.00    -0.361 N 
ATOM     23  H   UNL d   1      26.098 -13.634  -5.991  0.00  0.00     0.162 HD
BRANCH  22  24
ATOM     24  C   UNL d   1      28.158 -13.743  -5.371  0.00  0.00     0.083 C 
ATOM     25  C   UNL d   1      28.551 -14.408  -4.019  0.00  0.00     0.025 C 
ATOM     26  C   UNL d   1      29.944 -15.085  -4.089  0.00  0.00     0.002 C 
ATOM     27  C   UNL d   1      30.054 -16.079  -5.243  0.00  0.00     0.000 C 
ATOM     28  C   UNL d   1      29.699 -15.401  -6.548  0.00  0.00     0.002 C 
ATOM     29  C   UNL d   1      28.306 -14.810  -6.469  0.00  0.00     0.025 C 
ENDBRANCH  22  24
ENDBRANCH  20  22
ENDBRANCH  18  20
ENDBRANCH   3  18
TORSDOF 9
ENDMDL
MODEL 4
REMARK VINA RESULT:   -31.989      3.860      5.281
REMARK INTER + INTRA:         -36.756
REMARK INTER:                 -34.674
REMARK INTRA:                  -2.082
REMARK CONF_INDEPENDENT:        2.685
REMARK UNBOUND:                -2.082
REMARK  9 active torsions:
REMARK  status: ('A' for Active; 'I' for Inactive)
REMARK    1  A    between atoms: C_4  and  N_5 
REMARK       I    between atoms: N_5  and  C_6 
REMARK    2  A    between atoms: C_6  and  C_8 
REMARK    3  A    between atoms: C_8  and  S_9 
REMARK    4  A    between atoms: S_9  and  C_10 
REMARK    5  A    between atoms: C_10  and  C_11 
REMARK       I    between atoms: C_11  and  N_13 
REMARK    6  A    between atoms: N_13  and  N_14 
REMARK    7  A    between atoms: N_14  and  C_15 
REMARK    8  A    between atoms: C_15  and  N_17 
REMARK    9  A    between atoms: N_17  and  C_18 
ROOT
ATOM      1  C   UNL d   1      27.032 -17.002   0.224  0.00  0.00     0.245 C 
ATOM      2  O   UNL d   1      26.455 -15.924   0.416  0.00  0.00    -0.271 OA
ATOM      3  N   UNL d   1      28.414 -17.044   0.235  0.00  0.00    -0.267 N 
ATOM      4  H   UNL d   1      28.958 -17.887   0.060  0.00  0.00     0.190 HD
ENDROOT
BRANCH   1   5
ATOM      5  C   UNL d   1      26.310 -18.369  -0.034  0.00  0.00     0.178 C 
BRANCH   5   6
ATOM      6  S   UNL d   1      24.600 -18.245   0.604  0.00  0.00    -0.150 SA
BRANCH   6   7
ATOM      7  C   UNL d   1      23.639 -17.117  -0.528  0.00  0.00     0.177 C 
BRANCH   7   8
ATOM      8  C   UNL d   1      22.192 -17.677  -0.573  0.00  0.00     0.232 C 
ATOM      9  N   UNL d   1      21.977 -18.978  -0.150  0.00  0.00    -0.309 N 
ATOM     10  H   UNL d   1      22.712 -19.583   0.192  0.00  0.00     0.170 HD
ATOM     11  O   UNL d   1      21.264 -16.968  -0.978  0.00  0.00    -0.272 OA
BRANCH   9  12
ATOM     12  C   UNL d   1      20.698 -19.545  -0.160  0.00  0.00     0.160 A 
ATOM     13  C   UNL d   1      20.133 -20.407   0.807  0.00  0.00     0.087 A 
ATOM     14  C   UNL d   1      18.878 -20.707   0.362  0.00  0.00     0.078 A 
ATOM     15  C   UNL d   1      17.816 -21.560   0.925  0.00  0.00     0.079 C 
ATOM     16  O   UNL d   1      18.670 -20.059  -0.815  0.00  0.00    -0.216 OA
ATOM     17  N   UNL d   1      19.815 -19.325  -1.146  0.00  0.00    -0.110 NA
ENDBRANCH   9  12
ENDBRANCH   7   8
ENDBRANCH   6   7
ENDBRANCH   5   6
ENDBRANCH   1   5
BRANCH   3  18
ATOM     18  N   UNL d   1      29.191 -15.845   0.467  0.00  0.00    -0.274 N 
ATOM     19  H   UNL d   1      29.587 -15.753   1.403  0.00  0.00     0.189 HD
BRANCH  18  20
ATOM     20  C   UNL d   1      29.209 -14.852  -0.512  0.00  0.00     0.186 C 
ATOM     21  S   UNL d   1      30.693 -14.342  -1.140  0.00  0.00    -0.040 SA
BRANCH  20  22
ATOM     22  N   UNL d   1      27.952 -14.319  -0.842  0.00  0.00    -0.361 N 
ATOM     23  H   UNL d   1      27.330 -14.060  -0.085  0.00  0.00     0.162 HD
BRANCH  22  24
ATOM     24  C   UNL d   1      27.390 -14.245  -2.229  0.00  0.00     0.083 C 
ATOM     25  C   UNL d   1      27.765 -15.420  -3.181  0.00  0.00     0.025 C 
ATOM     26  C   UNL d   1      27.056 -15.302  -4.555  0.00  0.00     0.002 C 
ATOM     27  C   UNL d   1      25.542 -15.163  -4.422  0.00  0.00     0.000 C 
ATOM     28  C   UNL d   1      25.204 -13.997  -3.520  0.00  0.00     0.002 C 
ATOM     29  C   UNL d   1      25.855 -14.177  -2.164  0.00  0.00     0.025 C 
ENDBRANCH  22  24
ENDBRANCH  20  22
ENDBRANCH  18  20
ENDBRANCH   3  18
TORSDOF 9
ENDMDL
MODEL 5
REMARK VINA RESULT:   -31.774      5.338      6.917
REMARK INTER + INTRA:         -36.035
REMARK INTER:                 -34.459
REMARK INTRA:                  -1.576
REMARK CONF_INDEPENDENT:        2.685
REMARK UNBOUND:                -1.576
REMARK  9 active torsions:
REMARK  status: ('A' for Active; 'I' for Inactive)
REMARK    1  A    between atoms: C_4  and  N_5 
REMARK       I    between atoms: N_5  and  C_6 
REMARK    2  A    between atoms: C_6  and  C_8 
REMARK    3  A    between atoms: C_8  and  S_9 
REMARK    4  A    between atoms: S_9  and  C_10 
REMARK    5  A    between atoms: C_10  and  C_11 
REMARK       I    between atoms: C_11  and  N_13 
REMARK    6  A    between atoms: N_13  and  N_14 
REMARK    7  A    between atoms: N_14  and  C_15 
REMARK    8  A    between atoms: C_15  and  N_17 
REMARK    9  A    between atoms: N_17  and  C_18 
ROOT
ATOM      1  C   UNL d   1      25.680 -15.175  -3.232  0.00  0.00     0.245 C 
ATOM      2  O   UNL d   1      24.777 -14.429  -3.636  0.00  0.00    -0.271 OA
ATOM      3  N   UNL d   1      26.760 -15.438  -4.052  0.00  0.00    -0.267 N 
ATOM      4  H   UNL d   1      27.527 -16.060  -3.799  0.00  0.00     0.190 HD
ENDROOT
BRANCH   1   5
ATOM      5  C   UNL d   1      25.705 -15.864  -1.825  0.00  0.00     0.178 C 
BRANCH   5   6
ATOM      6  S   UNL d   1      23.990 -16.305  -1.368  0.00  0.00    -0.150 SA
BRANCH   6   7
ATOM      7  C   UNL d   1      24.054 -17.788  -0.240  0.00  0.00     0.177 C 
BRANCH   7   8
ATOM      8  C   UNL d   1      22.785 -18.627  -0.554  0.00  0.00     0.232 C 
ATOM      9  N   UNL d   1      21.730 -18.585   0.342  0.00  0.00    -0.309 N 
ATOM     10  H   UNL d   1      21.738 -18.034   1.190  0.00  0.00     0.170 HD
ATOM     11  O   UNL d   1      22.731 -19.310  -1.583  0.00  0.00    -0.272 OA
BRANCH   9  12
ATOM     12  C   UNL d   1      20.556 -19.313   0.119  0.00  0.00     0.160 A 
ATOM     13  C   UNL d   1      19.881 -20.156   1.031  0.00  0.00     0.087 A 
ATOM     14  C   UNL d   1      18.801 -20.653   0.361  0.00  0.00     0.078 A 
ATOM     15  C   UNL d   1      17.737 -21.586   0.773  0.00  0.00     0.079 C 
ATOM     16  O   UNL d   1      18.799 -20.139  -0.898  0.00  0.00    -0.216 OA
ATOM     17  N   UNL d   1      19.903 -19.293  -1.053  0.00  0.00    -0.110 NA
ENDBRANCH   9  12
ENDBRANCH   7   8
ENDBRANCH   6   7
ENDBRANCH   5   6
ENDBRANCH   1   5
BRANCH   3  18
ATOM     18  N   UNL d   1      26.850 -14.854  -5.373  0.00  0.00    -0.274 N 
ATOM     19  H   UNL d   1      26.781 -15.512  -6.150  0.00  0.00     0.189 HD
BRANCH  18  20
ATOM     20  C   UNL d   1      27.181 -13.505  -5.494  0.00  0.00     0.186 C 
ATOM     21  S   UNL d   1      28.767 -13.080  -5.896  0.00  0.00    -0.040 SA
BRANCH  20  22
ATOM     22  N   UNL d   1      26.141 -12.608  -5.201  0.00  0.00    -0.361 N 
ATOM     23  H   UNL d   1      25.193 -12.964  -5.193  0.00  0.00     0.162 HD
BRANCH  22  24
ATOM     24  C   UNL d   1      26.305 -11.126  -5.049  0.00  0.00     0.083 C 
ATOM     25  C   UNL d   1      25.455 -10.244  -6.011  0.00  0.00     0.025 C 
ATOM     26  C   UNL d   1      25.618  -8.733  -5.708  0.00  0.00     0.002 C 
ATOM     27  C   UNL d   1      25.327  -8.393  -4.249  0.00  0.00     0.000 C 
ATOM     28  C   UNL d   1      26.187  -9.239  -3.336  0.00  0.00     0.002 C 
ATOM     29  C   UNL d   1      25.953 -10.710  -3.610  0.00  0.00     0.025 C 
ENDBRANCH  22  24
ENDBRANCH  20  22
ENDBRANCH  18  20
ENDBRANCH   3  18
TORSDOF 9
ENDMDL
MODEL 6
REMARK VINA RESULT:   -31.674      2.521      3.231
REMARK INTER + INTRA:         -35.984
REMARK INTER:                 -34.359
REMARK INTRA:                  -1.625
REMARK CONF_INDEPENDENT:        2.685
REMARK UNBOUND:                -1.625
REMARK  9 active torsions:
REMARK  status: ('A' for Active; 'I' for Inactive)
REMARK    1  A    between atoms: C_4  and  N_5 
REMARK       I    between atoms: N_5  and  C_6 
REMARK    2  A    between atoms: C_6  and  C_8 
REMARK    3  A    between atoms: C_8  and  S_9 
REMARK    4  A    between atoms: S_9  and  C_10 
REMARK    5  A    between atoms: C_10  and  C_11 
REMARK       I    between atoms: C_11  and  N_13 
REMARK    6  A    between atoms: N_13  and  N_14 
REMARK    7  A    between atoms: N_14  and  C_15 
REMARK    8  A    between atoms: C_15  and  N_17 
REMARK    9  A    between atoms: N_17  and  C_18 
ROOT
ATOM      1  C   UNL d   1      27.142 -17.122  -0.199  0.00  0.00     0.245 C 
ATOM      2  O   UNL d   1      26.685 -16.245  -0.945  0.00  0.00    -0.271 OA
ATOM      3  N   UNL d   1      28.495 -17.400  -0.229  0.00  0.00    -0.267 N 
ATOM      4  H   UNL d   1      28.939 -18.123   0.335  0.00  0.00     0.190 HD
ENDROOT
BRANCH   1   5
ATOM      5  C   UNL d   1      26.292 -17.967   0.811  0.00  0.00     0.178 C 
BRANCH   5   6
ATOM      6  S   UNL d   1      24.812 -18.592  -0.064  0.00  0.00    -0.150 SA
BRANCH   6   7
ATOM      7  C   UNL d   1      23.723 -17.135  -0.473  0.00  0.00     0.177 C 
BRANCH   7   8
ATOM      8  C   UNL d   1      22.269 -17.679  -0.517  0.00  0.00     0.232 C 
ATOM      9  N   UNL d   1      22.043 -18.984  -0.112  0.00  0.00    -0.309 N 
ATOM     10  H   UNL d   1      22.773 -19.602   0.217  0.00  0.00     0.170 HD
ATOM     11  O   UNL d   1      21.346 -16.955  -0.906  0.00  0.00    -0.272 OA
BRANCH   9  12
ATOM     12  C   UNL d   1      20.757 -19.537  -0.122  0.00  0.00     0.160 A 
ATOM     13  C   UNL d   1      20.175 -20.375   0.856  0.00  0.00     0.087 A 
ATOM     14  C   UNL d   1      18.921 -20.670   0.407  0.00  0.00     0.078 A 
ATOM     15  C   UNL d   1      17.845 -21.500   0.977  0.00  0.00     0.079 C 
ATOM     16  O   UNL d   1      18.729 -20.040  -0.784  0.00  0.00    -0.216 OA
ATOM     17  N   UNL d   1      19.885 -19.325  -1.119  0.00  0.00    -0.110 NA
ENDBRANCH   9  12
ENDBRANCH   7   8
ENDBRANCH   6   7
ENDBRANCH   5   6
ENDBRANCH   1   5
BRANCH   3  18
ATOM     18  N   UNL d   1      29.382 -16.682  -1.119  0.00  0.00    -0.274 N 
ATOM     19  H   UNL d   1      29.386 -17.001  -2.088  0.00  0.00     0.189 HD
BRANCH  18  20
ATOM     20  C   UNL d   1      30.264 -15.746  -0.581  0.00  0.00     0.186 C 
ATOM     21  S   UNL d   1      31.512 -15.139  -1.547  0.00  0.00    -0.040 SA
BRANCH  20  22
ATOM     22  N   UNL d   1      30.053 -15.438   0.773  0.00  0.00    -0.361 N 
ATOM     23  H   UNL d   1      30.386 -16.094   1.469  0.00  0.00     0.162 HD
BRANCH  22  24
ATOM     24  C   UNL d   1      29.233 -14.286   1.272  0.00  0.00     0.083 C 
ATOM     25  C   UNL d   1      28.502 -13.445   0.184  0.00  0.00     0.025 C 
ATOM     26  C   UNL d   1      27.606 -12.345   0.806  0.00  0.00     0.002 C 
ATOM     27  C   UNL d   1      26.617 -12.902   1.826  0.00  0.00     0.000 C 
ATOM     28  C   UNL d   1      27.353 -13.687   2.889  0.00  0.00     0.002 C 
ATOM     29  C   UNL d   1      28.165 -14.797   2.254  0.00  0.00     0.025 C 
ENDBRANCH  22  24
ENDBRANCH  20  22
ENDBRANCH  18  20
ENDBRANCH   3  18
TORSDOF 9
ENDMDL
MODEL 7
REMARK VINA RESULT:   -31.658      4.104      7.349
REMARK INTER + INTRA:         -35.691
REMARK INTER:                 -34.343
REMARK INTRA:                  -1.348
REMARK CONF_INDEPENDENT:        2.685
REMARK UNBOUND:                -1.348
REMARK  9 active torsions:
REMARK  status: ('A' for Active; 'I' for Inactive)
REMARK    1  A    between atoms: C_4  and  N_5 
REMARK       I    between atoms: N_5  and  C_6 
REMARK    2  A    between atoms: C_6  and  C_8 
REMARK    3  A    between atoms: C_8  and  S_9 
REMARK    4  A    between atoms: S_9  and  C_10 
REMARK    5  A    between atoms: C_10  and  C_11 
REMARK       I    between atoms: C_11  and  N_13 
REMARK    6  A    between atoms: N_13  and  N_14 
REMARK    7  A    between atoms: N_14  and  C_15 
REMARK    8  A    between atoms: C_15  and  N_17 
REMARK    9  A    between atoms: N_17  and  C_18 
ROOT
ATOM      1  C   UNL d   1      27.564 -17.021  -0.465  0.00  0.00     0.245 C 
ATOM      2  O   UNL d   1      27.230 -16.237  -1.363  0.00  0.00    -0.271 OA
ATOM      3  N   UNL d   1      28.814 -17.608  -0.506  0.00  0.00    -0.267 N 
ATOM      4  H   UNL d   1      29.149 -18.281   0.182  0.00  0.00     0.190 HD
ENDROOT
BRANCH   1   5
ATOM      5  C   UNL d   1      26.664 -17.416   0.756  0.00  0.00     0.178 C 
BRANCH   5   6
ATOM      6  S   UNL d   1      25.372 -18.570   0.169  0.00  0.00    -0.150 SA
BRANCH   6   7
ATOM      7  C   UNL d   1      24.133 -17.595  -0.827  0.00  0.00     0.177 C 
BRANCH   7   8
ATOM      8  C   UNL d   1      22.881 -18.501  -0.969  0.00  0.00     0.232 C 
ATOM      9  N   UNL d   1      21.867 -18.374  -0.034  0.00  0.00    -0.309 N 
ATOM     10  H   UNL d   1      21.895 -17.719   0.735  0.00  0.00     0.170 HD
ATOM     11  O   UNL d   1      22.803 -19.312  -1.899  0.00  0.00    -0.272 OA
BRANCH   9  12
ATOM     12  C   UNL d   1      20.709 -19.157  -0.105  0.00  0.00     0.160 A 
ATOM     13  C   UNL d   1      20.203 -20.033   0.882  0.00  0.00     0.087 A 
ATOM     14  C   UNL d   1      19.068 -20.581   0.359  0.00  0.00     0.078 A 
ATOM     15  C   UNL d   1      18.113 -21.564   0.901  0.00  0.00     0.079 C 
ATOM     16  O   UNL d   1      18.873 -20.065  -0.885  0.00  0.00    -0.216 OA
ATOM     17  N   UNL d   1      19.905 -19.167  -1.179  0.00  0.00    -0.110 NA
ENDBRANCH   9  12
ENDBRANCH   7   8
ENDBRANCH   6   7
ENDBRANCH   5   6
ENDBRANCH   1   5
BRANCH   3  18
ATOM     18  N   UNL d   1      29.736 -17.317  -1.583  0.00  0.00    -0.274 N 
ATOM     19  H   UNL d   1      29.529 -16.478  -2.124  0.00  0.00     0.189 HD
BRANCH  18  20
ATOM     20  C   UNL d   1      30.714 -18.257  -1.906  0.00  0.00     0.186 C 
ATOM     21  S   UNL d   1      31.033 -19.518  -0.826  0.00  0.00    -0.040 SA
BRANCH  20  22
ATOM     22  N   UNL d   1      31.396 -18.017  -3.110  0.00  0.00    -0.361 N 
ATOM     23  H   UNL d   1      32.304 -17.568  -3.062  0.00  0.00     0.162 HD
BRANCH  22  24
ATOM     24  C   UNL d   1      30.823 -18.229  -4.478  0.00  0.00     0.083 C 
ATOM     25  C   UNL d   1      31.362 -17.290  -5.597  0.00  0.00     0.025 C 
ATOM     26  C   UNL d   1      30.784 -17.654  -6.989  0.00  0.00     0.002 C 
ATOM     27  C   UNL d   1      31.004 -19.121  -7.348  0.00  0.00     0.000 C 
ATOM     28  C   UNL d   1      30.443 -20.013  -6.262  0.00  0.00     0.002 C 
ATOM     29  C   UNL d   1      31.079 -19.677  -4.929  0.00  0.00     0.025 C 
ENDBRANCH  22  24
ENDBRANCH  20  22
ENDBRANCH  18  20
ENDBRANCH   3  18
TORSDOF 9
ENDMDL
MODEL 8
REMARK VINA RESULT:   -31.638      5.274      7.400
REMARK INTER + INTRA:         -35.663
REMARK INTER:                 -34.323
REMARK INTRA:                  -1.340
REMARK CONF_INDEPENDENT:        2.685
REMARK UNBOUND:                -1.340
REMARK  9 active torsions:
REMARK  status: ('A' for Active; 'I' for Inactive)
REMARK    1  A    between atoms: C_4  and  N_5 
REMARK       I    between atoms: N_5  and  C_6 
REMARK    2  A    between atoms: C_6  and  C_8 
REMARK    3  A    between atoms: C_8  and  S_9 
REMARK    4  A    between atoms: S_9  and  C_10 
REMARK    5  A    between atoms: C_10  and  C_11 
REMARK       I    between atoms: C_11  and  N_13 
REMARK    6  A    between atoms: N_13  and  N_14 
REMARK    7  A    between atoms: N_14  and  C_15 
REMARK    8  A    between atoms: C_15  and  N_17 
REMARK    9  A    between atoms: N_17  and  C_18 
ROOT
ATOM      1  C   UNL d   1      25.841 -15.126  -3.345  0.00  0.00     0.245 C 
ATOM      2  O   UNL d   1      24.865 -14.742  -4.004  0.00  0.00    -0.271 OA
ATOM      3  N   UNL d   1      27.080 -15.206  -3.952  0.00  0.00    -0.267 N 
ATOM      4  H   UNL d   1      27.921 -15.536  -3.483  0.00  0.00     0.190 HD
ENDROOT
BRANCH   1   5
ATOM      5  C   UNL d   1      25.792 -15.537  -1.834  0.00  0.00     0.178 C 
BRANCH   5   6
ATOM      6  S   UNL d   1      24.142 -16.243  -1.482  0.00  0.00    -0.150 SA
BRANCH   6   7
ATOM      7  C   UNL d   1      24.381 -17.811  -0.501  0.00  0.00     0.177 C 
BRANCH   7   8
ATOM      8  C   UNL d   1      23.064 -18.621  -0.651  0.00  0.00     0.232 C 
ATOM      9  N   UNL d   1      21.981 -18.267   0.135  0.00  0.00    -0.309 N 
ATOM     10  H   UNL d   1      21.997 -17.505   0.800  0.00  0.00     0.170 HD
ATOM     11  O   UNL d   1      22.999 -19.556  -1.457  0.00  0.00    -0.272 OA
BRANCH   9  12
ATOM     12  C   UNL d   1      20.763 -18.951   0.048  0.00  0.00     0.160 A 
ATOM     13  C   UNL d   1      20.301 -19.993   0.884  0.00  0.00     0.087 A 
ATOM     14  C   UNL d   1      19.075 -20.351   0.404  0.00  0.00     0.078 A 
ATOM     15  C   UNL d   1      18.111 -21.375   0.843  0.00  0.00     0.079 C 
ATOM     16  O   UNL d   1      18.785 -19.566  -0.669  0.00  0.00    -0.216 OA
ATOM     17  N   UNL d   1      19.846 -18.683  -0.895  0.00  0.00    -0.110 NA
ENDBRANCH   9  12
ENDBRANCH   7   8
ENDBRANCH   6   7
ENDBRANCH   5   6
ENDBRANCH   1   5
BRANCH   3  18
ATOM     18  N   UNL d   1      27.250 -14.849  -5.344  0.00  0.00    -0.274 N 
ATOM     19  H   UNL d   1      26.403 -14.875  -5.912  0.00  0.00     0.189 HD
BRANCH  18  20
ATOM     20  C   UNL d   1      28.540 -14.661  -5.839  0.00  0.00     0.186 C 
ATOM     21  S   UNL d   1      28.761 -13.715  -7.223  0.00  0.00    -0.040 SA
BRANCH  20  22
ATOM     22  N   UNL d   1      29.549 -15.350  -5.148  0.00  0.00    -0.361 N 
ATOM     23  H   UNL d   1      30.239 -14.804  -4.643  0.00  0.00     0.162 HD
BRANCH  22  24
ATOM     24  C   UNL d   1      29.784 -16.828  -5.221  0.00  0.00     0.083 C 
ATOM     25  C   UNL d   1      30.405 -17.355  -6.549  0.00  0.00     0.025 C 
ATOM     26  C   UNL d   1      30.700 -18.876  -6.487  0.00  0.00     0.002 C 
ATOM     27  C   UNL d   1      31.563 -19.257  -5.288  0.00  0.00     0.000 C 
ATOM     28  C   UNL d   1      30.923 -18.762  -4.009  0.00  0.00     0.002 C 
ATOM     29  C   UNL d   1      30.712 -17.264  -4.074  0.00  0.00     0.025 C 
ENDBRANCH  22  24
ENDBRANCH  20  22
ENDBRANCH  18  20
ENDBRANCH   3  18
TORSDOF 9
ENDMDL
MODEL 9
REMARK VINA RESULT:   -31.498      4.293      6.347
REMARK INTER + INTRA:         -35.901
REMARK INTER:                 -34.182
REMARK INTRA:                  -1.718
REMARK CONF_INDEPENDENT:        2.685
REMARK UNBOUND:                -1.718
REMARK  9 active torsions:
REMARK  status: ('A' for Active; 'I' for Inactive)
REMARK    1  A    between atoms: C_4  and  N_5 
REMARK       I    between atoms: N_5  and  C_6 
REMARK    2  A    between atoms: C_6  and  C_8 
REMARK    3  A    between atoms: C_8  and  S_9 
REMARK    4  A    between atoms: S_9  and  C_10 
REMARK    5  A    between atoms: C_10  and  C_11 
REMARK       I    between atoms: C_11  and  N_13 
REMARK    6  A    between atoms: N_13  and  N_14 
REMARK    7  A    between atoms: N_14  and  C_15 
REMARK    8  A    between atoms: C_15  and  N_17 
REMARK    9  A    between atoms: N_17  and  C_18 
ROOT
ATOM      1  C   UNL d   1      27.172 -17.090  -0.254  0.00  0.00     0.245 C 
ATOM      2  O   UNL d   1      26.817 -16.650  -1.356  0.00  0.00    -0.271 OA
ATOM      3  N   UNL d   1      28.392 -16.706   0.269  0.00  0.00    -0.267 N 
ATOM      4  H   UNL d   1      28.762 -17.045   1.156  0.00  0.00     0.190 HD
ENDROOT
BRANCH   1   5
ATOM      5  C   UNL d   1      26.329 -18.073   0.628  0.00  0.00     0.178 C 
BRANCH   5   6
ATOM      6  S   UNL d   1      24.853 -18.581  -0.325  0.00  0.00    -0.150 SA
BRANCH   6   7
ATOM      7  C   UNL d   1      23.721 -17.106  -0.469  0.00  0.00     0.177 C 
BRANCH   7   8
ATOM      8  C   UNL d   1      22.276 -17.671  -0.519  0.00  0.00     0.232 C 
ATOM      9  N   UNL d   1      22.064 -18.972  -0.094  0.00  0.00    -0.309 N 
ATOM     10  H   UNL d   1      22.799 -19.574   0.252  0.00  0.00     0.170 HD
ATOM     11  O   UNL d   1      21.347 -16.967  -0.929  0.00  0.00    -0.272 OA
BRANCH   9  12
ATOM     12  C   UNL d   1      20.786 -19.544  -0.109  0.00  0.00     0.160 A 
ATOM     13  C   UNL d   1      20.222 -20.410   0.856  0.00  0.00     0.087 A 
ATOM     14  C   UNL d   1      18.970 -20.714   0.407  0.00  0.00     0.078 A 
ATOM     15  C   UNL d   1      17.909 -21.571   0.966  0.00  0.00     0.079 C 
ATOM     16  O   UNL d   1      18.762 -20.063  -0.770  0.00  0.00    -0.216 OA
ATOM     17  N   UNL d   1      19.905 -19.325  -1.097  0.00  0.00    -0.110 NA
ENDBRANCH   9  12
ENDBRANCH   7   8
ENDBRANCH   6   7
ENDBRANCH   5   6
ENDBRANCH   1   5
BRANCH   3  18
ATOM     18  N   UNL d   1      29.257 -15.798  -0.452  0.00  0.00    -0.274 N 
ATOM     19  H   UNL d   1      29.289 -14.843  -0.094  0.00  0.00     0.189 HD
BRANCH  18  20
ATOM     20  C   UNL d   1      29.839 -16.225  -1.646  0.00  0.00     0.186 C 
ATOM     21  S   UNL d   1      31.493 -16.574  -1.676  0.00  0.00    -0.040 SA
BRANCH  20  22
ATOM     22  N   UNL d   1      28.973 -16.265  -2.750  0.00  0.00    -0.361 N 
ATOM     23  H   UNL d   1      28.259 -16.985  -2.770  0.00  0.00     0.162 HD
BRANCH  22  24
ATOM     24  C   UNL d   1      29.114 -15.424  -3.982  0.00  0.00     0.083 C 
ATOM     25  C   UNL d   1      29.999 -16.019  -5.117  0.00  0.00     0.025 C 
ATOM     26  C   UNL d   1      30.000 -15.123  -6.382  0.00  0.00     0.002 C 
ATOM     27  C   UNL d   1      28.592 -14.818  -6.885  0.00  0.00     0.000 C 
ATOM     28  C   UNL d   1      27.763 -14.211  -5.774  0.00  0.00     0.002 C 
ATOM     29  C   UNL d   1      27.725 -15.142  -4.580  0.00  0.00     0.025 C 
ENDBRANCH  22  24
ENDBRANCH  20  22
ENDBRANCH  18  20
ENDBRANCH   3  18
TORSDOF 9
ENDMDL
