MODEL 1
REMARK VINA RESULT:   -10.897      0.000      0.000
REMARK INTER + INTRA:         -14.390
REMARK INTER:                 -12.687
REMARK INTRA:                  -1.703
REMARK CONF_INDEPENDENT:        1.790
REMARK UNBOUND:                -1.703
REMARK  6 active torsions:
REMARK  status: ('A' for Active; 'I' for Inactive)
REMARK    1  A    between atoms: O_2  and  C_3 
REMARK    2  A    between atoms: C_8  and  N_9 
REMARK    3  A    between atoms: N_9  and  S_10 
REMARK    4  A    between atoms: S_10  and  C_13 
REMARK    5  A    between atoms: C_17  and  N_18 
REMARK       I    between atoms: N_18  and  C_19 
REMARK    6  A    between atoms: C_19  and  C_21 
ROOT
ATOM      1  C   UNL d   1      23.957 -18.020  -0.837  0.00  0.00     0.082 A 
ATOM      2  C   UNL d   1      24.702 -18.181   0.324  0.00  0.00     0.025 A 
ATOM      3  C   UNL d   1      25.967 -17.619   0.357  0.00  0.00     0.004 A 
ATOM      4  C   UNL d   1      26.473 -16.944  -0.781  0.00  0.00     0.029 A 
ATOM      5  C   UNL d   1      25.670 -16.712  -1.913  0.00  0.00     0.036 A 
ATOM      6  C   UNL d   1      24.399 -17.237  -1.885  0.00  0.00     0.054 A 
ENDROOT
BRANCH   5   7
ATOM      7  N   UNL d   1      26.098 -15.947  -3.041  0.00  0.00    -0.325 N 
ATOM      8  C   UNL d   1      25.370 -14.872  -3.583  0.00  0.00     0.254 C 
ATOM      9  O   UNL d   1      24.300 -14.460  -3.121  0.00  0.00    -0.270 OA
ATOM     10  H   UNL d   1      27.001 -16.190  -3.424  0.00  0.00     0.169 HD
BRANCH   8  11
ATOM     11  C   UNL d   1      25.948 -14.141  -4.802  0.00  0.00     0.245 C 
ATOM     12  C   UNL d   1      25.979 -12.624  -4.636  0.00  0.00     0.218 C 
ATOM     13  O   UNL d   1      26.870 -11.918  -5.524  0.00  0.00    -0.345 OA
ATOM     14  C   UNL d   1      27.898 -12.660  -6.036  0.00  0.00     0.102 A 
ATOM     15  C   UNL d   1      28.779 -12.045  -6.930  0.00  0.00     0.039 A 
ATOM     16  C   UNL d   1      28.074 -14.005  -5.745  0.00  0.00     0.103 A 
ATOM     17  C   UNL d   1      29.759 -12.802  -7.587  0.00  0.00     0.003 A 
ATOM     18  C   UNL d   1      29.935 -14.147  -7.270  0.00  0.00     0.003 A 
ATOM     19  C   UNL d   1      29.101 -14.743  -6.329  0.00  0.00     0.040 A 
ATOM     20  O   UNL d   1      27.279 -14.681  -4.883  0.00  0.00    -0.331 OA
ENDBRANCH   8  11
ENDBRANCH   5   7
BRANCH   1  21
ATOM     21  S   UNL d   1      22.235 -18.102  -0.708  0.00  0.00     0.263 S 
ATOM     22  O   UNL d   1      22.063 -19.183  -1.689  0.00  0.00    -0.200 OA
ATOM     23  O   UNL d   1      21.749 -16.767  -0.895  0.00  0.00    -0.200 OA
BRANCH  21  24
ATOM     24  N   UNL d   1      21.698 -18.650   0.796  0.00  0.00    -0.278 N 
ATOM     25  H   UNL d   1      22.410 -18.756   1.521  0.00  0.00     0.179 HD
BRANCH  24  26
ATOM     26  C   UNL d   1      20.443 -19.417   0.990  0.00  0.00     0.075 A 
ATOM     27  C   UNL d   1      19.716 -19.648  -0.208  0.00  0.00     0.033 A 
ATOM     28  C   UNL d   1      18.557 -20.450  -0.247  0.00  0.00     0.002 A 
ATOM     29  C   UNL d   1      18.072 -21.038   0.910  0.00  0.00     0.003 A 
ATOM     30  C   UNL d   1      18.722 -20.798   2.105  0.00  0.00     0.039 A 
ATOM     31  C   UNL d   1      19.913 -20.057   2.158  0.00  0.00     0.095 A 
BRANCH  31  32
ATOM     32  O   UNL d   1      20.419 -20.183   3.442  0.00  0.00    -0.354 OA
ATOM     33  C   UNL d   1      19.530 -20.825   4.315  0.00  0.00     0.210 C 
ENDBRANCH  31  32
ENDBRANCH  24  26
ENDBRANCH  21  24
ENDBRANCH   1  21
TORSDOF 6
ENDMDL
MODEL 2
REMARK VINA RESULT:   -10.490      2.517     10.485
REMARK INTER + INTRA:         -13.440
REMARK INTER:                 -12.279
REMARK INTRA:                  -1.161
REMARK CONF_INDEPENDENT:        1.790
REMARK UNBOUND:                -1.161
REMARK  6 active torsions:
REMARK  status: ('A' for Active; 'I' for Inactive)
REMARK    1  A    between atoms: O_2  and  C_3 
REMARK    2  A    between atoms: C_8  and  N_9 
REMARK    3  A    between atoms: N_9  and  S_10 
REMARK    4  A    between atoms: S_10  and  C_13 
REMARK    5  A    between atoms: C_17  and  N_18 
REMARK       I    between atoms: N_18  and  C_19 
REMARK    6  A    between atoms: C_19  and  C_21 
ROOT
ATOM      1  C   UNL d   1      26.050 -15.078  -2.826  0.00  0.00     0.082 A 
ATOM      2  C   UNL d   1      27.203 -15.590  -2.246  0.00  0.00     0.025 A 
ATOM      3  C   UNL d   1      27.051 -16.510  -1.222  0.00  0.00     0.004 A 
ATOM      4  C   UNL d   1      25.755 -16.867  -0.776  0.00  0.00     0.029 A 
ATOM      5  C   UNL d   1      24.600 -16.408  -1.436  0.00  0.00     0.036 A 
ATOM      6  C   UNL d   1      24.794 -15.540  -2.485  0.00  0.00     0.054 A 
ENDROOT
BRANCH   5   7
ATOM      7  N   UNL d   1      23.277 -16.821  -1.091  0.00  0.00    -0.325 N 
ATOM      8  C   UNL d   1      22.876 -18.166  -0.990  0.00  0.00     0.254 C 
ATOM      9  O   UNL d   1      23.634 -19.127  -1.159  0.00  0.00    -0.270 OA
ATOM     10  H   UNL d   1      22.624 -16.081  -0.872  0.00  0.00     0.169 HD
BRANCH   8  11
ATOM     11  C   UNL d   1      21.418 -18.466  -0.614  0.00  0.00     0.245 C 
ATOM     12  C   UNL d   1      20.693 -19.325  -1.645  0.00  0.00     0.218 C 
ATOM     13  O   UNL d   1      19.498 -19.986  -1.178  0.00  0.00    -0.345 OA
ATOM     14  C   UNL d   1      19.423 -20.175   0.173  0.00  0.00     0.102 A 
ATOM     15  C   UNL d   1      18.276 -20.779   0.695  0.00  0.00     0.039 A 
ATOM     16  C   UNL d   1      20.411 -19.750   1.050  0.00  0.00     0.103 A 
ATOM     17  C   UNL d   1      18.094 -20.865   2.083  0.00  0.00     0.003 A 
ATOM     18  C   UNL d   1      19.104 -20.450   2.949  0.00  0.00     0.003 A 
ATOM     19  C   UNL d   1      20.274 -19.910   2.427  0.00  0.00     0.040 A 
ATOM     20  O   UNL d   1      21.560 -19.165   0.636  0.00  0.00    -0.331 OA
ENDBRANCH   8  11
ENDBRANCH   5   7
BRANCH   1  21
ATOM     21  S   UNL d   1      26.157 -14.486  -4.447  0.00  0.00     0.263 S 
ATOM     22  O   UNL d   1      24.746 -14.088  -4.554  0.00  0.00    -0.200 OA
ATOM     23  O   UNL d   1      26.755 -15.532  -5.223  0.00  0.00    -0.200 OA
BRANCH  21  24
ATOM     24  N   UNL d   1      27.118 -13.106  -4.597  0.00  0.00    -0.278 N 
ATOM     25  H   UNL d   1      28.060 -13.165  -4.209  0.00  0.00     0.179 HD
BRANCH  24  26
ATOM     26  C   UNL d   1      26.568 -11.741  -4.788  0.00  0.00     0.075 A 
ATOM     27  C   UNL d   1      26.226 -11.438  -6.133  0.00  0.00     0.033 A 
ATOM     28  C   UNL d   1      25.589 -10.234  -6.498  0.00  0.00     0.002 A 
ATOM     29  C   UNL d   1      25.283  -9.283  -5.538  0.00  0.00     0.003 A 
ATOM     30  C   UNL d   1      25.645  -9.518  -4.226  0.00  0.00     0.039 A 
ATOM     31  C   UNL d   1      26.221 -10.735  -3.828  0.00  0.00     0.095 A 
BRANCH  31  32
ATOM     32  O   UNL d   1      26.259 -10.739  -2.443  0.00  0.00    -0.354 OA
ATOM     33  C   UNL d   1      27.524 -11.068  -1.935  0.00  0.00     0.210 C 
ENDBRANCH  31  32
ENDBRANCH  24  26
ENDBRANCH  21  24
ENDBRANCH   1  21
TORSDOF 6
ENDMDL
MODEL 3
REMARK VINA RESULT:   -10.432      2.121     10.958
REMARK INTER + INTRA:         -13.164
REMARK INTER:                 -12.221
REMARK INTRA:                  -0.943
REMARK CONF_INDEPENDENT:        1.790
REMARK UNBOUND:                -0.943
REMARK  6 active torsions:
REMARK  status: ('A' for Active; 'I' for Inactive)
REMARK    1  A    between atoms: O_2  and  C_3 
REMARK    2  A    between atoms: C_8  and  N_9 
REMARK    3  A    between atoms: N_9  and  S_10 
REMARK    4  A    between atoms: S_10  and  C_13 
REMARK    5  A    between atoms: C_17  and  N_18 
REMARK       I    between atoms: N_18  and  C_19 
REMARK    6  A    between atoms: C_19  and  C_21 
ROOT
ATOM      1  C   UNL d   1      26.368 -15.124  -2.834  0.00  0.00     0.082 A 
ATOM      2  C   UNL d   1      27.468 -15.597  -2.131  0.00  0.00     0.025 A 
ATOM      3  C   UNL d   1      27.231 -16.470  -1.083  0.00  0.00     0.004 A 
ATOM      4  C   UNL d   1      25.902 -16.819  -0.737  0.00  0.00     0.029 A 
ATOM      5  C   UNL d   1      24.809 -16.403  -1.517  0.00  0.00     0.036 A 
ATOM      6  C   UNL d   1      25.090 -15.582  -2.584  0.00  0.00     0.054 A 
ENDROOT
BRANCH   5   7
ATOM      7  N   UNL d   1      23.462 -16.812  -1.271  0.00  0.00    -0.325 N 
ATOM      8  C   UNL d   1      23.108 -18.059  -0.722  0.00  0.00     0.254 C 
ATOM      9  O   UNL d   1      23.927 -18.915  -0.369  0.00  0.00    -0.270 OA
ATOM     10  H   UNL d   1      22.747 -16.128  -1.475  0.00  0.00     0.169 HD
BRANCH   8  11
ATOM     11  C   UNL d   1      21.620 -18.369  -0.516  0.00  0.00     0.245 C 
ATOM     12  C   UNL d   1      21.014 -19.198  -1.644  0.00  0.00     0.218 C 
ATOM     13  O   UNL d   1      19.777 -19.872  -1.330  0.00  0.00    -0.345 OA
ATOM     14  C   UNL d   1      19.556 -20.099  -0.000  0.00  0.00     0.102 A 
ATOM     15  C   UNL d   1      18.361 -20.718   0.376  0.00  0.00     0.039 A 
ATOM     16  C   UNL d   1      20.441 -19.699   0.990  0.00  0.00     0.103 A 
ATOM     17  C   UNL d   1      18.028 -20.844   1.733  0.00  0.00     0.003 A 
ATOM     18  C   UNL d   1      18.936 -20.453   2.715  0.00  0.00     0.003 A 
ATOM     19  C   UNL d   1      20.155 -19.899   2.339  0.00  0.00     0.040 A 
ATOM     20  O   UNL d   1      21.626 -19.103   0.721  0.00  0.00    -0.331 OA
ENDBRANCH   8  11
ENDBRANCH   5   7
BRANCH   1  21
ATOM     21  S   UNL d   1      26.616 -14.607  -4.465  0.00  0.00     0.263 S 
ATOM     22  O   UNL d   1      25.190 -14.451  -4.790  0.00  0.00    -0.200 OA
ATOM     23  O   UNL d   1      27.473 -15.580  -5.075  0.00  0.00    -0.200 OA
BRANCH  21  24
ATOM     24  N   UNL d   1      27.363 -13.098  -4.587  0.00  0.00    -0.278 N 
ATOM     25  H   UNL d   1      27.364 -12.523  -3.743  0.00  0.00     0.179 HD
BRANCH  24  26
ATOM     26  C   UNL d   1      27.563 -12.382  -5.872  0.00  0.00     0.075 A 
ATOM     27  C   UNL d   1      28.725 -12.784  -6.582  0.00  0.00     0.033 A 
ATOM     28  C   UNL d   1      29.028 -12.299  -7.871  0.00  0.00     0.002 A 
ATOM     29  C   UNL d   1      28.191 -11.387  -8.493  0.00  0.00     0.003 A 
ATOM     30  C   UNL d   1      27.076 -10.934  -7.815  0.00  0.00     0.039 A 
ATOM     31  C   UNL d   1      26.719 -11.449  -6.558  0.00  0.00     0.095 A 
BRANCH  31  32
ATOM     32  O   UNL d   1      25.460 -10.959  -6.255  0.00  0.00    -0.354 OA
ATOM     33  C   UNL d   1      25.457  -9.577  -6.018  0.00  0.00     0.210 C 
ENDBRANCH  31  32
ENDBRANCH  24  26
ENDBRANCH  21  24
ENDBRANCH   1  21
TORSDOF 6
ENDMDL
MODEL 4
REMARK VINA RESULT:   -10.104      2.010     10.865
REMARK INTER + INTRA:         -12.887
REMARK INTER:                 -11.894
REMARK INTRA:                  -0.993
REMARK CONF_INDEPENDENT:        1.790
REMARK UNBOUND:                -0.993
REMARK  6 active torsions:
REMARK  status: ('A' for Active; 'I' for Inactive)
REMARK    1  A    between atoms: O_2  and  C_3 
REMARK    2  A    between atoms: C_8  and  N_9 
REMARK    3  A    between atoms: N_9  and  S_10 
REMARK    4  A    between atoms: S_10  and  C_13 
REMARK    5  A    between atoms: C_17  and  N_18 
REMARK       I    between atoms: N_18  and  C_19 
REMARK    6  A    between atoms: C_19  and  C_21 
ROOT
ATOM      1  C   UNL d   1      26.041 -15.195  -2.656  0.00  0.00     0.082 A 
ATOM      2  C   UNL d   1      27.187 -15.699  -2.056  0.00  0.00     0.025 A 
ATOM      3  C   UNL d   1      27.024 -16.597  -1.014  0.00  0.00     0.004 A 
ATOM      4  C   UNL d   1      25.723 -16.939  -0.571  0.00  0.00     0.029 A 
ATOM      5  C   UNL d   1      24.575 -16.490  -1.249  0.00  0.00     0.036 A 
ATOM      6  C   UNL d   1      24.781 -15.646  -2.315  0.00  0.00     0.054 A 
ENDROOT
BRANCH   5   7
ATOM      7  N   UNL d   1      23.247 -16.891  -0.907  0.00  0.00    -0.325 N 
ATOM      8  C   UNL d   1      22.734 -18.181  -1.131  0.00  0.00     0.254 C 
ATOM      9  O   UNL d   1      23.388 -19.109  -1.619  0.00  0.00    -0.270 OA
ATOM     10  H   UNL d   1      22.682 -16.196  -0.439  0.00  0.00     0.169 HD
BRANCH   8  11
ATOM     11  C   UNL d   1      21.286 -18.473  -0.715  0.00  0.00     0.245 C 
ATOM     12  C   UNL d   1      20.528 -19.327  -1.727  0.00  0.00     0.218 C 
ATOM     13  O   UNL d   1      19.342 -19.981  -1.228  0.00  0.00    -0.345 OA
ATOM     14  C   UNL d   1      19.303 -20.170   0.125  0.00  0.00     0.102 A 
ATOM     15  C   UNL d   1      18.167 -20.768   0.678  0.00  0.00     0.039 A 
ATOM     16  C   UNL d   1      20.317 -19.751   0.975  0.00  0.00     0.103 A 
ATOM     17  C   UNL d   1      18.022 -20.853   2.070  0.00  0.00     0.003 A 
ATOM     18  C   UNL d   1      19.057 -20.444   2.909  0.00  0.00     0.003 A 
ATOM     19  C   UNL d   1      20.216 -19.912   2.355  0.00  0.00     0.040 A 
ATOM     20  O   UNL d   1      21.457 -19.173   0.530  0.00  0.00    -0.331 OA
ENDBRANCH   8  11
ENDBRANCH   5   7
BRANCH   1  21
ATOM     21  S   UNL d   1      26.164 -14.639  -4.288  0.00  0.00     0.263 S 
ATOM     22  O   UNL d   1      24.809 -14.073  -4.355  0.00  0.00    -0.200 OA
ATOM     23  O   UNL d   1      26.602 -15.759  -5.068  0.00  0.00    -0.200 OA
BRANCH  21  24
ATOM     24  N   UNL d   1      27.280 -13.388  -4.491  0.00  0.00    -0.278 N 
ATOM     25  H   UNL d   1      26.992 -12.466  -4.162  0.00  0.00     0.179 HD
BRANCH  24  26
ATOM     26  C   UNL d   1      28.372 -13.418  -5.496  0.00  0.00     0.075 A 
ATOM     27  C   UNL d   1      28.901 -12.139  -5.812  0.00  0.00     0.033 A 
ATOM     28  C   UNL d   1      30.014 -11.970  -6.661  0.00  0.00     0.002 A 
ATOM     29  C   UNL d   1      30.631 -13.069  -7.236  0.00  0.00     0.003 A 
ATOM     30  C   UNL d   1      30.116 -14.328  -6.993  0.00  0.00     0.039 A 
ATOM     31  C   UNL d   1      29.049 -14.526  -6.101  0.00  0.00     0.095 A 
BRANCH  31  32
ATOM     32  O   UNL d   1      28.919 -15.893  -5.914  0.00  0.00    -0.354 OA
ATOM     33  C   UNL d   1      30.132 -16.515  -5.585  0.00  0.00     0.210 C 
ENDBRANCH  31  32
ENDBRANCH  24  26
ENDBRANCH  21  24
ENDBRANCH   1  21
TORSDOF 6
ENDMDL
MODEL 5
REMARK VINA RESULT:   -10.073      2.512     10.637
REMARK INTER + INTRA:         -12.966
REMARK INTER:                 -11.863
REMARK INTRA:                  -1.104
REMARK CONF_INDEPENDENT:        1.790
REMARK UNBOUND:                -1.104
REMARK  6 active torsions:
REMARK  status: ('A' for Active; 'I' for Inactive)
REMARK    1  A    between atoms: O_2  and  C_3 
REMARK    2  A    between atoms: C_8  and  N_9 
REMARK    3  A    between atoms: N_9  and  S_10 
REMARK    4  A    between atoms: S_10  and  C_13 
REMARK    5  A    between atoms: C_17  and  N_18 
REMARK       I    between atoms: N_18  and  C_19 
REMARK    6  A    between atoms: C_19  and  C_21 
ROOT
ATOM      1  C   UNL d   1      27.096 -15.427  -2.504  0.00  0.00     0.082 A 
ATOM      2  C   UNL d   1      28.103 -16.008  -1.745  0.00  0.00     0.025 A 
ATOM      3  C   UNL d   1      27.734 -16.965  -0.815  0.00  0.00     0.004 A 
ATOM      4  C   UNL d   1      26.367 -17.291  -0.637  0.00  0.00     0.029 A 
ATOM      5  C   UNL d   1      25.372 -16.759  -1.477  0.00  0.00     0.036 A 
ATOM      6  C   UNL d   1      25.785 -15.854  -2.427  0.00  0.00     0.054 A 
ENDROOT
BRANCH   5   7
ATOM      7  N   UNL d   1      23.995 -17.135  -1.406  0.00  0.00    -0.325 N 
ATOM      8  C   UNL d   1      23.423 -17.820  -0.319  0.00  0.00     0.254 C 
ATOM      9  O   UNL d   1      24.045 -18.140   0.700  0.00  0.00    -0.270 OA
ATOM     10  H   UNL d   1      23.415 -16.840  -2.180  0.00  0.00     0.169 HD
BRANCH   8  11
ATOM     11  C   UNL d   1      21.929 -18.164  -0.378  0.00  0.00     0.245 C 
ATOM     12  C   UNL d   1      21.540 -18.951  -1.626  0.00  0.00     0.218 C 
ATOM     13  O   UNL d   1      20.285 -19.660  -1.552  0.00  0.00    -0.345 OA
ATOM     14  C   UNL d   1      19.851 -19.951  -0.289  0.00  0.00     0.102 A 
ATOM     15  C   UNL d   1      18.625 -20.607  -0.144  0.00  0.00     0.039 A 
ATOM     16  C   UNL d   1      20.548 -19.582   0.852  0.00  0.00     0.103 A 
ATOM     17  C   UNL d   1      18.074 -20.800   1.131  0.00  0.00     0.003 A 
ATOM     18  C   UNL d   1      18.796 -20.439   2.267  0.00  0.00     0.003 A 
ATOM     19  C   UNL d   1      20.047 -19.848   2.124  0.00  0.00     0.040 A 
ATOM     20  O   UNL d   1      21.747 -18.954   0.811  0.00  0.00    -0.331 OA
ENDBRANCH   8  11
ENDBRANCH   5   7
BRANCH   1  21
ATOM     21  S   UNL d   1      27.525 -14.770  -4.045  0.00  0.00     0.263 S 
ATOM     22  O   UNL d   1      27.144 -13.386  -3.727  0.00  0.00    -0.200 OA
ATOM     23  O   UNL d   1      26.864 -15.575  -5.029  0.00  0.00    -0.200 OA
BRANCH  21  24
ATOM     24  N   UNL d   1      29.183 -14.813  -4.357  0.00  0.00    -0.278 N 
ATOM     25  H   UNL d   1      29.662 -13.913  -4.394  0.00  0.00     0.179 HD
BRANCH  24  26
ATOM     26  C   UNL d   1      29.861 -15.947  -5.034  0.00  0.00     0.075 A 
ATOM     27  C   UNL d   1      29.924 -17.132  -4.254  0.00  0.00     0.033 A 
ATOM     28  C   UNL d   1      30.431 -18.346  -4.762  0.00  0.00     0.002 A 
ATOM     29  C   UNL d   1      30.905 -18.419  -6.062  0.00  0.00     0.003 A 
ATOM     30  C   UNL d   1      30.907 -17.276  -6.838  0.00  0.00     0.039 A 
ATOM     31  C   UNL d   1      30.348 -16.073  -6.376  0.00  0.00     0.095 A 
BRANCH  31  32
ATOM     32  O   UNL d   1      30.310 -15.198  -7.450  0.00  0.00    -0.354 OA
ATOM     33  C   UNL d   1      29.404 -14.144  -7.260  0.00  0.00     0.210 C 
ENDBRANCH  31  32
ENDBRANCH  24  26
ENDBRANCH  21  24
ENDBRANCH   1  21
TORSDOF 6
ENDMDL
MODEL 6
REMARK VINA RESULT:   -10.003      1.361      2.328
REMARK INTER + INTRA:         -13.419
REMARK INTER:                 -11.793
REMARK INTRA:                  -1.627
REMARK CONF_INDEPENDENT:        1.790
REMARK UNBOUND:                -1.627
REMARK  6 active torsions:
REMARK  status: ('A' for Active; 'I' for Inactive)
REMARK    1  A    between atoms: O_2  and  C_3 
REMARK    2  A    between atoms: C_8  and  N_9 
REMARK    3  A    between atoms: N_9  and  S_10 
REMARK    4  A    between atoms: S_10  and  C_13 
REMARK    5  A    between atoms: C_17  and  N_18 
REMARK       I    between atoms: N_18  and  C_19 
REMARK    6  A    between atoms: C_19  and  C_21 
ROOT
ATOM      1  C   UNL d   1      24.021 -17.905  -1.014  0.00  0.00     0.082 A 
ATOM      2  C   UNL d   1      24.825 -18.390   0.010  0.00  0.00     0.025 A 
ATOM      3  C   UNL d   1      26.072 -17.811   0.175  0.00  0.00     0.004 A 
ATOM      4  C   UNL d   1      26.502 -16.790  -0.708  0.00  0.00     0.029 A 
ATOM      5  C   UNL d   1      25.640 -16.250  -1.680  0.00  0.00     0.036 A 
ATOM      6  C   UNL d   1      24.389 -16.814  -1.776  0.00  0.00     0.054 A 
ENDROOT
BRANCH   5   7
ATOM      7  N   UNL d   1      25.990 -15.151  -2.523  0.00  0.00    -0.325 N 
ATOM      8  C   UNL d   1      27.286 -14.928  -3.025  0.00  0.00     0.254 C 
ATOM      9  O   UNL d   1      28.247 -15.676  -2.813  0.00  0.00    -0.270 OA
ATOM     10  H   UNL d   1      25.232 -14.539  -2.791  0.00  0.00     0.169 HD
BRANCH   8  11
ATOM     11  C   UNL d   1      27.521 -13.703  -3.918  0.00  0.00     0.245 C 
ATOM     12  C   UNL d   1      27.551 -14.037  -5.406  0.00  0.00     0.218 C 
ATOM     13  O   UNL d   1      27.345 -12.925  -6.301  0.00  0.00    -0.345 OA
ATOM     14  C   UNL d   1      26.683 -11.856  -5.764  0.00  0.00     0.102 A 
ATOM     15  C   UNL d   1      26.480 -10.730  -6.568  0.00  0.00     0.039 A 
ATOM     16  C   UNL d   1      26.251 -11.822  -4.446  0.00  0.00     0.103 A 
ATOM     17  C   UNL d   1      25.933  -9.561  -6.018  0.00  0.00     0.003 A 
ATOM     18  C   UNL d   1      25.488  -9.550  -4.698  0.00  0.00     0.003 A 
ATOM     19  C   UNL d   1      25.629 -10.693  -3.918  0.00  0.00     0.040 A 
ATOM     20  O   UNL d   1      26.394 -12.867  -3.598  0.00  0.00    -0.331 OA
ENDBRANCH   8  11
ENDBRANCH   5   7
BRANCH   1  21
ATOM     21  S   UNL d   1      22.311 -18.100  -0.857  0.00  0.00     0.263 S 
ATOM     22  O   UNL d   1      22.175 -19.089  -1.937  0.00  0.00    -0.200 OA
ATOM     23  O   UNL d   1      21.745 -16.784  -0.902  0.00  0.00    -0.200 OA
BRANCH  21  24
ATOM     24  N   UNL d   1      21.846 -18.824   0.596  0.00  0.00    -0.278 N 
ATOM     25  H   UNL d   1      22.601 -19.140   1.207  0.00  0.00     0.179 HD
BRANCH  24  26
ATOM     26  C   UNL d   1      20.518 -19.448   0.814  0.00  0.00     0.075 A 
ATOM     27  C   UNL d   1      19.821 -19.756  -0.385  0.00  0.00     0.033 A 
ATOM     28  C   UNL d   1      18.593 -20.450  -0.388  0.00  0.00     0.002 A 
ATOM     29  C   UNL d   1      18.010 -20.850   0.804  0.00  0.00     0.003 A 
ATOM     30  C   UNL d   1      18.632 -20.526   1.994  0.00  0.00     0.039 A 
ATOM     31  C   UNL d   1      19.885 -19.892   2.020  0.00  0.00     0.095 A 
BRANCH  31  32
ATOM     32  O   UNL d   1      20.325 -19.907   3.334  0.00  0.00    -0.354 OA
ATOM     33  C   UNL d   1      19.627 -20.825   4.131  0.00  0.00     0.210 C 
ENDBRANCH  31  32
ENDBRANCH  24  26
ENDBRANCH  21  24
ENDBRANCH   1  21
TORSDOF 6
ENDMDL
MODEL 7
REMARK VINA RESULT:    -9.435      2.426      9.872
REMARK INTER + INTRA:         -13.229
REMARK INTER:                 -11.225
REMARK INTRA:                  -2.005
REMARK CONF_INDEPENDENT:        1.790
REMARK UNBOUND:                -2.005
REMARK  6 active torsions:
REMARK  status: ('A' for Active; 'I' for Inactive)
REMARK    1  A    between atoms: O_2  and  C_3 
REMARK    2  A    between atoms: C_8  and  N_9 
REMARK    3  A    between atoms: N_9  and  S_10 
REMARK    4  A    between atoms: S_10  and  C_13 
REMARK    5  A    between atoms: C_17  and  N_18 
REMARK       I    between atoms: N_18  and  C_19 
REMARK    6  A    between atoms: C_19  and  C_21 
ROOT
ATOM      1  C   UNL d   1      27.046 -15.843  -0.095  0.00  0.00     0.082 A 
ATOM      2  C   UNL d   1      28.136 -16.704  -0.129  0.00  0.00     0.025 A 
ATOM      3  C   UNL d   1      27.882 -18.063  -0.059  0.00  0.00     0.004 A 
ATOM      4  C   UNL d   1      26.552 -18.529   0.081  0.00  0.00     0.029 A 
ATOM      5  C   UNL d   1      25.456 -17.649   0.021  0.00  0.00     0.036 A 
ATOM      6  C   UNL d   1      25.747 -16.311  -0.105  0.00  0.00     0.054 A 
ENDROOT
BRANCH   5   7
ATOM      7  N   UNL d   1      24.094 -18.080   0.052  0.00  0.00    -0.325 N 
ATOM      8  C   UNL d   1      23.052 -17.440  -0.644  0.00  0.00     0.254 C 
ATOM      9  O   UNL d   1      23.213 -16.459  -1.377  0.00  0.00    -0.270 OA
ATOM     10  H   UNL d   1      23.908 -18.921   0.581  0.00  0.00     0.169 HD
BRANCH   8  11
ATOM     11  C   UNL d   1      21.633 -18.010  -0.517  0.00  0.00     0.245 C 
ATOM     12  C   UNL d   1      21.264 -18.968  -1.645  0.00  0.00     0.218 C 
ATOM     13  O   UNL d   1      20.150 -19.846  -1.380  0.00  0.00    -0.345 OA
ATOM     14  C   UNL d   1      19.883 -20.071  -0.058  0.00  0.00     0.102 A 
ATOM     15  C   UNL d   1      18.796 -20.886   0.270  0.00  0.00     0.039 A 
ATOM     16  C   UNL d   1      20.613 -19.488   0.968  0.00  0.00     0.103 A 
ATOM     17  C   UNL d   1      18.401 -21.030   1.607  0.00  0.00     0.003 A 
ATOM     18  C   UNL d   1      19.155 -20.452   2.627  0.00  0.00     0.003 A 
ATOM     19  C   UNL d   1      20.277 -19.697   2.304  0.00  0.00     0.040 A 
ATOM     20  O   UNL d   1      21.688 -18.695   0.748  0.00  0.00    -0.331 OA
ENDBRANCH   8  11
ENDBRANCH   5   7
BRANCH   1  21
ATOM     21  S   UNL d   1      27.230 -14.281  -0.812  0.00  0.00     0.263 S 
ATOM     22  O   UNL d   1      28.376 -14.641  -1.660  0.00  0.00    -0.200 OA
ATOM     23  O   UNL d   1      27.298 -13.342   0.268  0.00  0.00    -0.200 OA
BRANCH  21  24
ATOM     24  N   UNL d   1      25.940 -13.843  -1.809  0.00  0.00    -0.278 N 
ATOM     25  H   UNL d   1      25.132 -14.467  -1.807  0.00  0.00     0.179 HD
BRANCH  24  26
ATOM     26  C   UNL d   1      26.080 -12.953  -2.989  0.00  0.00     0.075 A 
ATOM     27  C   UNL d   1      26.768 -11.740  -2.719  0.00  0.00     0.033 A 
ATOM     28  C   UNL d   1      27.096 -10.815  -3.732  0.00  0.00     0.002 A 
ATOM     29  C   UNL d   1      26.738 -11.060  -5.048  0.00  0.00     0.003 A 
ATOM     30  C   UNL d   1      26.024 -12.205  -5.344  0.00  0.00     0.039 A 
ATOM     31  C   UNL d   1      25.742 -13.170  -4.364  0.00  0.00     0.095 A 
BRANCH  31  32
ATOM     32  O   UNL d   1      25.218 -14.276  -5.015  0.00  0.00    -0.354 OA
ATOM     33  C   UNL d   1      25.843 -15.474  -4.640  0.00  0.00     0.210 C 
ENDBRANCH  31  32
ENDBRANCH  24  26
ENDBRANCH  21  24
ENDBRANCH   1  21
TORSDOF 6
ENDMDL
MODEL 8
REMARK VINA RESULT:    -9.078      4.217      9.733
REMARK INTER + INTRA:         -12.820
REMARK INTER:                 -10.868
REMARK INTRA:                  -1.953
REMARK CONF_INDEPENDENT:        1.790
REMARK UNBOUND:                -1.953
REMARK  6 active torsions:
REMARK  status: ('A' for Active; 'I' for Inactive)
REMARK    1  A    between atoms: O_2  and  C_3 
REMARK    2  A    between atoms: C_8  and  N_9 
REMARK    3  A    between atoms: N_9  and  S_10 
REMARK    4  A    between atoms: S_10  and  C_13 
REMARK    5  A    between atoms: C_17  and  N_18 
REMARK       I    between atoms: N_18  and  C_19 
REMARK    6  A    between atoms: C_19  and  C_21 
ROOT
ATOM      1  C   UNL d   1      27.145 -15.884   0.027  0.00  0.00     0.082 A 
ATOM      2  C   UNL d   1      28.229 -16.747  -0.064  0.00  0.00     0.025 A 
ATOM      3  C   UNL d   1      27.967 -18.106  -0.082  0.00  0.00     0.004 A 
ATOM      4  C   UNL d   1      26.634 -18.573   0.030  0.00  0.00     0.029 A 
ATOM      5  C   UNL d   1      25.544 -17.684   0.030  0.00  0.00     0.036 A 
ATOM      6  C   UNL d   1      25.843 -16.342  -0.011  0.00  0.00     0.054 A 
ENDROOT
BRANCH   5   7
ATOM      7  N   UNL d   1      24.180 -18.108   0.036  0.00  0.00    -0.325 N 
ATOM      8  C   UNL d   1      23.139 -17.413  -0.607  0.00  0.00     0.254 C 
ATOM      9  O   UNL d   1      23.302 -16.381  -1.267  0.00  0.00    -0.270 OA
ATOM     10  H   UNL d   1      23.990 -18.984   0.502  0.00  0.00     0.169 HD
BRANCH   8  11
ATOM     11  C   UNL d   1      21.717 -17.982  -0.515  0.00  0.00     0.245 C 
ATOM     12  C   UNL d   1      21.379 -18.950  -1.645  0.00  0.00     0.218 C 
ATOM     13  O   UNL d   1      20.258 -19.826  -1.403  0.00  0.00    -0.345 OA
ATOM     14  C   UNL d   1      19.955 -20.040  -0.088  0.00  0.00     0.102 A 
ATOM     15  C   UNL d   1      18.859 -20.852   0.216  0.00  0.00     0.039 A 
ATOM     16  C   UNL d   1      20.655 -19.448   0.953  0.00  0.00     0.103 A 
ATOM     17  C   UNL d   1      18.426 -20.985   1.543  0.00  0.00     0.003 A 
ATOM     18  C   UNL d   1      19.151 -20.398   2.579  0.00  0.00     0.003 A 
ATOM     19  C   UNL d   1      20.282 -19.645   2.281  0.00  0.00     0.040 A 
ATOM     20  O   UNL d   1      21.735 -18.656   0.756  0.00  0.00    -0.331 OA
ENDBRANCH   8  11
ENDBRANCH   5   7
BRANCH   1  21
ATOM     21  S   UNL d   1      27.337 -14.280  -0.588  0.00  0.00     0.263 S 
ATOM     22  O   UNL d   1      25.924 -14.089  -0.948  0.00  0.00    -0.200 OA
ATOM     23  O   UNL d   1      28.405 -14.335  -1.542  0.00  0.00    -0.200 OA
BRANCH  21  24
ATOM     24  N   UNL d   1      27.748 -13.149   0.596  0.00  0.00    -0.278 N 
ATOM     25  H   UNL d   1      28.090 -12.247   0.263  0.00  0.00     0.179 HD
BRANCH  24  26
ATOM     26  C   UNL d   1      28.102 -13.514   1.990  0.00  0.00     0.075 A 
ATOM     27  C   UNL d   1      27.031 -13.381   2.913  0.00  0.00     0.033 A 
ATOM     28  C   UNL d   1      27.140 -13.783   4.261  0.00  0.00     0.002 A 
ATOM     29  C   UNL d   1      28.324 -14.318   4.740  0.00  0.00     0.003 A 
ATOM     30  C   UNL d   1      29.406 -14.417   3.886  0.00  0.00     0.039 A 
ATOM     31  C   UNL d   1      29.302 -14.085   2.526  0.00  0.00     0.095 A 
BRANCH  31  32
ATOM     32  O   UNL d   1      30.474 -14.497   1.912  0.00  0.00    -0.354 OA
ATOM     33  C   UNL d   1      31.531 -14.669   2.817  0.00  0.00     0.210 C 
ENDBRANCH  31  32
ENDBRANCH  24  26
ENDBRANCH  21  24
ENDBRANCH   1  21
TORSDOF 6
ENDMDL
MODEL 9
REMARK VINA RESULT:    -8.802      2.483      9.599
REMARK INTER + INTRA:         -12.802
REMARK INTER:                 -10.592
REMARK INTRA:                  -2.210
REMARK CONF_INDEPENDENT:        1.790
REMARK UNBOUND:                -2.210
REMARK  6 active torsions:
REMARK  status: ('A' for Active; 'I' for Inactive)
REMARK    1  A    between atoms: O_2  and  C_3 
REMARK    2  A    between atoms: C_8  and  N_9 
REMARK    3  A    between atoms: N_9  and  S_10 
REMARK    4  A    between atoms: S_10  and  C_13 
REMARK    5  A    between atoms: C_17  and  N_18 
REMARK       I    between atoms: N_18  and  C_19 
REMARK    6  A    between atoms: C_19  and  C_21 
ROOT
ATOM      1  C   UNL d   1      27.242 -15.970   0.427  0.00  0.00     0.082 A 
ATOM      2  C   UNL d   1      28.301 -16.816   0.124  0.00  0.00     0.025 A 
ATOM      3  C   UNL d   1      28.006 -18.142  -0.143  0.00  0.00     0.004 A 
ATOM      4  C   UNL d   1      26.668 -18.601  -0.062  0.00  0.00     0.029 A 
ATOM      5  C   UNL d   1      25.600 -17.713   0.157  0.00  0.00     0.036 A 
ATOM      6  C   UNL d   1      25.929 -16.393   0.361  0.00  0.00     0.054 A 
ENDROOT
BRANCH   5   7
ATOM      7  N   UNL d   1      24.228 -18.109   0.143  0.00  0.00    -0.325 N 
ATOM      8  C   UNL d   1      23.227 -17.445  -0.589  0.00  0.00     0.254 C 
ATOM      9  O   UNL d   1      23.437 -16.470  -1.320  0.00  0.00    -0.270 OA
ATOM     10  H   UNL d   1      24.002 -18.943   0.667  0.00  0.00     0.169 HD
BRANCH   8  11
ATOM     11  C   UNL d   1      21.790 -17.978  -0.509  0.00  0.00     0.245 C 
ATOM     12  C   UNL d   1      21.437 -18.938  -1.642  0.00  0.00     0.218 C 
ATOM     13  O   UNL d   1      20.293 -19.785  -1.409  0.00  0.00    -0.345 OA
ATOM     14  C   UNL d   1      19.974 -19.991  -0.096  0.00  0.00     0.102 A 
ATOM     15  C   UNL d   1      18.855 -20.776   0.199  0.00  0.00     0.039 A 
ATOM     16  C   UNL d   1      20.680 -19.417   0.951  0.00  0.00     0.103 A 
ATOM     17  C   UNL d   1      18.408 -20.897   1.523  0.00  0.00     0.003 A 
ATOM     18  C   UNL d   1      19.140 -20.329   2.564  0.00  0.00     0.003 A 
ATOM     19  C   UNL d   1      20.291 -19.605   2.275  0.00  0.00     0.040 A 
ATOM     20  O   UNL d   1      21.782 -18.652   0.762  0.00  0.00    -0.331 OA
ENDBRANCH   8  11
ENDBRANCH   5   7
BRANCH   1  21
ATOM     21  S   UNL d   1      27.446 -14.281   0.122  0.00  0.00     0.263 S 
ATOM     22  O   UNL d   1      28.590 -14.104   1.028  0.00  0.00    -0.200 OA
ATOM     23  O   UNL d   1      26.164 -13.673   0.324  0.00  0.00    -0.200 OA
BRANCH  21  24
ATOM     24  N   UNL d   1      27.950 -13.938  -1.453  0.00  0.00    -0.278 N 
ATOM     25  H   UNL d   1      28.525 -13.103  -1.573  0.00  0.00     0.179 HD
BRANCH  24  26
ATOM     26  C   UNL d   1      27.252 -14.437  -2.664  0.00  0.00     0.075 A 
ATOM     27  C   UNL d   1      25.945 -13.910  -2.837  0.00  0.00     0.033 A 
ATOM     28  C   UNL d   1      25.167 -14.179  -3.982  0.00  0.00     0.002 A 
ATOM     29  C   UNL d   1      25.659 -14.995  -4.989  0.00  0.00     0.003 A 
ATOM     30  C   UNL d   1      26.906 -15.568  -4.835  0.00  0.00     0.039 A 
ATOM     31  C   UNL d   1      27.725 -15.263  -3.735  0.00  0.00     0.095 A 
BRANCH  31  32
ATOM     32  O   UNL d   1      28.971 -15.816  -3.985  0.00  0.00    -0.354 OA
ATOM     33  C   UNL d   1      29.310 -15.801  -5.345  0.00  0.00     0.210 C 
ENDBRANCH  31  32
ENDBRANCH  24  26
ENDBRANCH  21  24
ENDBRANCH   1  21
TORSDOF 6
ENDMDL
