MODEL 1
REMARK VINA RESULT:    -8.955      0.000      0.000
REMARK INTER + INTRA:         -10.326
REMARK INTER:                  -9.551
REMARK INTRA:                  -0.774
REMARK CONF_INDEPENDENT:        0.597
REMARK UNBOUND:                -0.774
REMARK  2 active torsions:
REMARK  status: ('A' for Active; 'I' for Inactive)
REMARK    1  A    between atoms: C_6  and  C_7 
REMARK    2  A    between atoms: C_11  and  C_10 
ROOT
ATOM      1  C   UNL d   1      21.861 -18.722  -0.598  0.00  0.00     0.189 A 
ATOM      2  N   UNL d   1      22.556 -19.189  -1.642  0.00  0.00    -0.105 NA
ATOM      3  O   UNL d   1      23.471 -18.174  -1.887  0.00  0.00    -0.193 OA
ATOM      4  C   UNL d   1      23.281 -17.246  -0.907  0.00  0.00     0.207 A 
ATOM      5  N   UNL d   1      22.261 -17.501  -0.125  0.00  0.00    -0.202 NA
ENDROOT
BRANCH   4   6
ATOM      6  C   UNL d   1      24.369 -16.245  -0.732  0.00  0.00     0.307 C 
ATOM      7  C   UNL d   1      24.344 -15.371  -2.020  0.00  0.00     0.103 C 
ATOM      8  C   UNL d   1      25.628 -15.424  -2.707  0.00  0.00     0.037 A 
ATOM      9  N   UNL d   1      25.922 -14.918  -3.954  0.00  0.00    -0.354 N 
ATOM     10  C   UNL d   1      26.756 -16.050  -2.263  0.00  0.00     0.061 A 
ATOM     11  C   UNL d   1      27.187 -15.196  -4.279  0.00  0.00     0.180 A 
ATOM     12  H   UNL d   1      25.267 -14.416  -4.552  0.00  0.00     0.166 HD
ATOM     13  N   UNL d   1      27.699 -15.892  -3.259  0.00  0.00    -0.353 N 
ATOM     14  H   UNL d   1      28.647 -16.262  -3.233  0.00  0.00     0.166 HD
ATOM     15  C   UNL d   1      26.876 -16.804  -1.009  0.00  0.00     0.332 C 
ATOM     16  N   UNL d   1      25.644 -16.877  -0.213  0.00  0.00     0.102 N 
ATOM     17  C   UNL d   1      25.463 -18.268   0.254  0.00  0.00     0.311 C 
ENDBRANCH   4   6
BRANCH   1  18
ATOM     18  C   UNL d   1      20.681 -19.344  -0.077  0.00  0.00     0.015 A 
ATOM     19  C   UNL d   1      19.614 -19.700  -0.899  0.00  0.00     0.015 A 
ATOM     20  C   UNL d   1      18.499 -20.304  -0.327  0.00  0.00     0.002 A 
ATOM     21  C   UNL d   1      18.461 -20.544   1.051  0.00  0.00     0.007 A 
ATOM     22  C   UNL d   1      19.538 -20.196   1.873  0.00  0.00    -0.061 A 
ATOM     23  C   UNL d   1      19.532 -20.450   3.346  0.00  0.00     0.048 C 
ATOM     24  C   UNL d   1      20.653 -19.599   1.296  0.00  0.00     0.022 A 
ENDBRANCH   1  18
TORSDOF 2
ENDMDL
MODEL 2
REMARK VINA RESULT:    -8.183      1.834      2.399
REMARK INTER + INTRA:          -9.465
REMARK INTER:                  -8.780
REMARK INTRA:                  -0.685
REMARK CONF_INDEPENDENT:        0.597
REMARK UNBOUND:                -0.685
REMARK  2 active torsions:
REMARK  status: ('A' for Active; 'I' for Inactive)
REMARK    1  A    between atoms: C_6  and  C_7 
REMARK    2  A    between atoms: C_11  and  C_10 
ROOT
ATOM      1  C   UNL d   1      20.115 -19.372   0.165  0.00  0.00     0.189 A 
ATOM      2  N   UNL d   1      19.904 -18.612  -0.918  0.00  0.00    -0.105 NA
ATOM      3  O   UNL d   1      20.926 -17.676  -0.846  0.00  0.00    -0.193 OA
ATOM      4  C   UNL d   1      21.691 -18.030   0.226  0.00  0.00     0.207 A 
ATOM      5  N   UNL d   1      21.203 -19.027   0.920  0.00  0.00    -0.202 NA
ENDROOT
BRANCH   4   6
ATOM      6  C   UNL d   1      23.043 -17.409   0.300  0.00  0.00     0.307 C 
ATOM      7  C   UNL d   1      22.888 -15.995  -0.334  0.00  0.00     0.103 C 
ATOM      8  C   UNL d   1      23.783 -15.837  -1.472  0.00  0.00     0.037 A 
ATOM      9  N   UNL d   1      23.803 -14.794  -2.372  0.00  0.00    -0.354 N 
ATOM     10  C   UNL d   1      24.722 -16.734  -1.893  0.00  0.00     0.061 A 
ATOM     11  C   UNL d   1      24.726 -15.013  -3.313  0.00  0.00     0.180 A 
ATOM     12  H   UNL d   1      23.193 -13.979  -2.338  0.00  0.00     0.166 HD
ATOM     13  N   UNL d   1      25.283 -16.194  -3.032  0.00  0.00    -0.353 N 
ATOM     14  H   UNL d   1      26.010 -16.636  -3.592  0.00  0.00     0.166 HD
ATOM     15  C   UNL d   1      24.989 -18.040  -1.276  0.00  0.00     0.332 C 
ATOM     16  N   UNL d   1      24.134 -18.367  -0.129  0.00  0.00     0.102 N 
ATOM     17  C   UNL d   1      23.668 -19.763  -0.268  0.00  0.00     0.311 C 
ENDBRANCH   4   6
BRANCH   1  18
ATOM     18  C   UNL d   1      19.212 -20.385   0.622  0.00  0.00     0.015 A 
ATOM     19  C   UNL d   1      19.343 -21.716   0.234  0.00  0.00     0.015 A 
ATOM     20  C   UNL d   1      18.432 -22.649   0.718  0.00  0.00     0.002 A 
ATOM     21  C   UNL d   1      17.404 -22.245   1.577  0.00  0.00     0.007 A 
ATOM     22  C   UNL d   1      17.281 -20.909   1.974  0.00  0.00    -0.061 A 
ATOM     23  C   UNL d   1      16.201 -20.449   2.900  0.00  0.00     0.048 C 
ATOM     24  C   UNL d   1      18.198 -19.982   1.493  0.00  0.00     0.022 A 
ENDBRANCH   1  18
TORSDOF 2
ENDMDL
MODEL 3
REMARK VINA RESULT:    -7.893      3.675      6.253
REMARK INTER + INTRA:          -9.200
REMARK INTER:                  -8.490
REMARK INTRA:                  -0.710
REMARK CONF_INDEPENDENT:        0.597
REMARK UNBOUND:                -0.710
REMARK  2 active torsions:
REMARK  status: ('A' for Active; 'I' for Inactive)
REMARK    1  A    between atoms: C_6  and  C_7 
REMARK    2  A    between atoms: C_11  and  C_10 
ROOT
ATOM      1  C   UNL d   1      25.280 -15.024  -2.303  0.00  0.00     0.189 A 
ATOM      2  N   UNL d   1      24.405 -14.766  -3.284  0.00  0.00    -0.105 NA
ATOM      3  O   UNL d   1      24.779 -13.499  -3.709  0.00  0.00    -0.193 OA
ATOM      4  C   UNL d   1      25.892 -13.171  -2.994  0.00  0.00     0.207 A 
ATOM      5  N   UNL d   1      26.207 -14.044  -2.071  0.00  0.00    -0.202 NA
ENDROOT
BRANCH   4   6
ATOM      6  C   UNL d   1      26.693 -12.028  -3.515  0.00  0.00     0.307 C 
ATOM      7  C   UNL d   1      25.907 -10.747  -3.108  0.00  0.00     0.103 C 
ATOM      8  C   UNL d   1      25.551  -9.963  -4.283  0.00  0.00     0.037 A 
ATOM      9  N   UNL d   1      24.718  -8.866  -4.326  0.00  0.00    -0.354 N 
ATOM     10  C   UNL d   1      25.927 -10.219  -5.569  0.00  0.00     0.061 A 
ATOM     11  C   UNL d   1      24.585  -8.436  -5.584  0.00  0.00     0.180 A 
ATOM     12  H   UNL d   1      24.255  -8.450  -3.520  0.00  0.00     0.166 HD
ATOM     13  N   UNL d   1      25.312  -9.258  -6.346  0.00  0.00    -0.353 N 
ATOM     14  H   UNL d   1      25.386  -9.189  -7.360  0.00  0.00     0.166 HD
ATOM     15  C   UNL d   1      26.754 -11.351  -6.007  0.00  0.00     0.332 C 
ATOM     16  N   UNL d   1      27.165 -12.265  -4.934  0.00  0.00     0.102 N 
ATOM     17  C   UNL d   1      26.967 -13.656  -5.395  0.00  0.00     0.311 C 
ENDBRANCH   4   6
BRANCH   1  18
ATOM     18  C   UNL d   1      25.196 -16.158  -1.432  0.00  0.00     0.015 A 
ATOM     19  C   UNL d   1      26.312 -16.653  -0.760  0.00  0.00     0.015 A 
ATOM     20  C   UNL d   1      26.160 -17.757   0.072  0.00  0.00     0.002 A 
ATOM     21  C   UNL d   1      24.903 -18.353   0.223  0.00  0.00     0.007 A 
ATOM     22  C   UNL d   1      23.782 -17.848  -0.445  0.00  0.00    -0.061 A 
ATOM     23  C   UNL d   1      22.424 -18.457  -0.295  0.00  0.00     0.048 C 
ATOM     24  C   UNL d   1      23.937 -16.741  -1.270  0.00  0.00     0.022 A 
ENDBRANCH   1  18
TORSDOF 2
ENDMDL
MODEL 4
REMARK VINA RESULT:    -7.345      3.138      5.984
REMARK INTER + INTRA:          -8.697
REMARK INTER:                  -7.942
REMARK INTRA:                  -0.755
REMARK CONF_INDEPENDENT:        0.597
REMARK UNBOUND:                -0.755
REMARK  2 active torsions:
REMARK  status: ('A' for Active; 'I' for Inactive)
REMARK    1  A    between atoms: C_6  and  C_7 
REMARK    2  A    between atoms: C_11  and  C_10 
ROOT
ATOM      1  C   UNL d   1      25.893 -15.652  -2.828  0.00  0.00     0.189 A 
ATOM      2  N   UNL d   1      25.157 -15.389  -3.915  0.00  0.00    -0.105 NA
ATOM      3  O   UNL d   1      25.873 -14.377  -4.539  0.00  0.00    -0.193 OA
ATOM      4  C   UNL d   1      27.007 -14.203  -3.803  0.00  0.00     0.207 A 
ATOM      5  N   UNL d   1      27.041 -14.916  -2.705  0.00  0.00    -0.202 NA
ENDROOT
BRANCH   4   6
ATOM      6  C   UNL d   1      28.104 -13.439  -4.458  0.00  0.00     0.307 C 
ATOM      7  C   UNL d   1      27.409 -12.249  -5.184  0.00  0.00     0.103 C 
ATOM      8  C   UNL d   1      27.690 -12.278  -6.613  0.00  0.00     0.037 A 
ATOM      9  N   UNL d   1      27.115 -11.493  -7.587  0.00  0.00    -0.354 N 
ATOM     10  C   UNL d   1      28.529 -13.143  -7.253  0.00  0.00     0.061 A 
ATOM     11  C   UNL d   1      27.581 -11.833  -8.791  0.00  0.00     0.180 A 
ATOM     12  H   UNL d   1      26.421 -10.766  -7.419  0.00  0.00     0.166 HD
ATOM     13  N   UNL d   1      28.436 -12.842  -8.597  0.00  0.00    -0.353 N 
ATOM     14  H   UNL d   1      28.936 -13.325  -9.342  0.00  0.00     0.166 HD
ATOM     15  C   UNL d   1      29.294 -14.221  -6.613  0.00  0.00     0.332 C 
ATOM     16  N   UNL d   1      29.087 -14.348  -5.166  0.00  0.00     0.102 N 
ATOM     17  C   UNL d   1      28.906 -15.778  -4.837  0.00  0.00     0.311 C 
ENDBRANCH   4   6
BRANCH   1  18
ATOM     18  C   UNL d   1      25.476 -16.519  -1.768  0.00  0.00     0.015 A 
ATOM     19  C   UNL d   1      26.388 -17.091  -0.884  0.00  0.00     0.015 A 
ATOM     20  C   UNL d   1      25.914 -17.923   0.125  0.00  0.00     0.002 A 
ATOM     21  C   UNL d   1      24.542 -18.175   0.240  0.00  0.00     0.007 A 
ATOM     22  C   UNL d   1      23.627 -17.591  -0.642  0.00  0.00    -0.061 A 
ATOM     23  C   UNL d   1      22.155 -17.832  -0.539  0.00  0.00     0.048 C 
ATOM     24  C   UNL d   1      24.105 -16.755  -1.645  0.00  0.00     0.022 A 
ENDBRANCH   1  18
TORSDOF 2
ENDMDL
MODEL 5
REMARK VINA RESULT:    -7.177      4.187      7.586
REMARK INTER + INTRA:          -8.196
REMARK INTER:                  -7.774
REMARK INTRA:                  -0.422
REMARK CONF_INDEPENDENT:        0.597
REMARK UNBOUND:                -0.422
REMARK  2 active torsions:
REMARK  status: ('A' for Active; 'I' for Inactive)
REMARK    1  A    between atoms: C_6  and  C_7 
REMARK    2  A    between atoms: C_11  and  C_10 
ROOT
ATOM      1  C   UNL d   1      27.037 -13.713   1.222  0.00  0.00     0.189 A 
ATOM      2  N   UNL d   1      26.896 -12.934   0.142  0.00  0.00    -0.105 NA
ATOM      3  O   UNL d   1      26.726 -13.852  -0.885  0.00  0.00    -0.193 OA
ATOM      4  C   UNL d   1      26.697 -15.081  -0.295  0.00  0.00     0.207 A 
ATOM      5  N   UNL d   1      26.947 -15.059   0.990  0.00  0.00    -0.202 NA
ENDROOT
BRANCH   4   6
ATOM      6  C   UNL d   1      26.164 -16.195  -1.128  0.00  0.00     0.307 C 
ATOM      7  C   UNL d   1      24.640 -15.910  -1.280  0.00  0.00     0.103 C 
ATOM      8  C   UNL d   1      23.852 -17.020  -0.761  0.00  0.00     0.037 A 
ATOM      9  N   UNL d   1      22.487 -17.052  -0.575  0.00  0.00    -0.354 N 
ATOM     10  C   UNL d   1      24.337 -18.208  -0.298  0.00  0.00     0.061 A 
ATOM     11  C   UNL d   1      22.122 -18.216  -0.034  0.00  0.00     0.180 A 
ATOM     12  H   UNL d   1      21.847 -16.292  -0.802  0.00  0.00     0.166 HD
ATOM     13  N   UNL d   1      23.242 -18.922   0.145  0.00  0.00    -0.353 N 
ATOM     14  H   UNL d   1      23.278 -19.850   0.563  0.00  0.00     0.166 HD
ATOM     15  C   UNL d   1      25.756 -18.579  -0.224  0.00  0.00     0.332 C 
ATOM     16  N   UNL d   1      26.689 -17.542  -0.680  0.00  0.00     0.102 N 
ATOM     17  C   UNL d   1      27.801 -17.446   0.290  0.00  0.00     0.311 C 
ENDBRANCH   4   6
BRANCH   1  18
ATOM     18  C   UNL d   1      27.408 -13.228   2.518  0.00  0.00     0.015 A 
ATOM     19  C   UNL d   1      27.389 -11.870   2.827  0.00  0.00     0.015 A 
ATOM     20  C   UNL d   1      27.759 -11.468   4.106  0.00  0.00     0.002 A 
ATOM     21  C   UNL d   1      28.143 -12.420   5.057  0.00  0.00     0.007 A 
ATOM     22  C   UNL d   1      28.151 -13.784   4.747  0.00  0.00    -0.061 A 
ATOM     23  C   UNL d   1      28.546 -14.826   5.744  0.00  0.00     0.048 C 
ATOM     24  C   UNL d   1      27.774 -14.182   3.470  0.00  0.00     0.022 A 
ENDBRANCH   1  18
TORSDOF 2
ENDMDL
MODEL 6
REMARK VINA RESULT:    -7.172      3.807      6.222
REMARK INTER + INTRA:          -8.535
REMARK INTER:                  -7.769
REMARK INTRA:                  -0.766
REMARK CONF_INDEPENDENT:        0.597
REMARK UNBOUND:                -0.766
REMARK  2 active torsions:
REMARK  status: ('A' for Active; 'I' for Inactive)
REMARK    1  A    between atoms: C_6  and  C_7 
REMARK    2  A    between atoms: C_11  and  C_10 
ROOT
ATOM      1  C   UNL d   1      25.868 -15.519  -3.021  0.00  0.00     0.189 A 
ATOM      2  N   UNL d   1      25.157 -15.245  -4.122  0.00  0.00    -0.105 NA
ATOM      3  O   UNL d   1      25.930 -14.288  -4.763  0.00  0.00    -0.193 OA
ATOM      4  C   UNL d   1      27.065 -14.155  -4.019  0.00  0.00     0.207 A 
ATOM      5  N   UNL d   1      27.052 -14.842  -2.904  0.00  0.00    -0.202 NA
ENDROOT
BRANCH   4   6
ATOM      6  C   UNL d   1      28.206 -13.465  -4.681  0.00  0.00     0.307 C 
ATOM      7  C   UNL d   1      27.585 -12.241  -5.416  0.00  0.00     0.103 C 
ATOM      8  C   UNL d   1      27.862 -12.299  -6.845  0.00  0.00     0.037 A 
ATOM      9  N   UNL d   1      27.335 -11.487  -7.825  0.00  0.00    -0.354 N 
ATOM     10  C   UNL d   1      28.646 -13.218  -7.479  0.00  0.00     0.061 A 
ATOM     11  C   UNL d   1      27.779 -11.865  -9.027  0.00  0.00     0.180 A 
ATOM     12  H   UNL d   1      26.688 -10.717  -7.663  0.00  0.00     0.166 HD
ATOM     13  N   UNL d   1      28.570 -12.923  -8.825  0.00  0.00    -0.353 N 
ATOM     14  H   UNL d   1      29.038 -13.442  -9.566  0.00  0.00     0.166 HD
ATOM     15  C   UNL d   1      29.344 -14.336  -6.830  0.00  0.00     0.332 C 
ATOM     16  N   UNL d   1      29.131 -14.439  -5.382  0.00  0.00     0.102 N 
ATOM     17  C   UNL d   1      28.862 -15.852  -5.041  0.00  0.00     0.311 C 
ENDBRANCH   4   6
BRANCH   1  18
ATOM     18  C   UNL d   1      25.397 -16.338  -1.945  0.00  0.00     0.015 A 
ATOM     19  C   UNL d   1      24.041 -16.445  -1.643  0.00  0.00     0.015 A 
ATOM     20  C   UNL d   1      23.651 -17.260  -0.585  0.00  0.00     0.002 A 
ATOM     21  C   UNL d   1      24.613 -17.954   0.157  0.00  0.00     0.007 A 
ATOM     22  C   UNL d   1      25.973 -17.853  -0.155  0.00  0.00    -0.061 A 
ATOM     23  C   UNL d   1      27.024 -18.590   0.612  0.00  0.00     0.048 C 
ATOM     24  C   UNL d   1      26.358 -17.043  -1.217  0.00  0.00     0.022 A 
ENDBRANCH   1  18
TORSDOF 2
ENDMDL
MODEL 7
REMARK VINA RESULT:    -7.144      3.085      5.678
REMARK INTER + INTRA:          -8.530
REMARK INTER:                  -7.740
REMARK INTRA:                  -0.790
REMARK CONF_INDEPENDENT:        0.597
REMARK UNBOUND:                -0.790
REMARK  2 active torsions:
REMARK  status: ('A' for Active; 'I' for Inactive)
REMARK    1  A    between atoms: C_6  and  C_7 
REMARK    2  A    between atoms: C_11  and  C_10 
ROOT
ATOM      1  C   UNL d   1      25.445 -15.584  -2.455  0.00  0.00     0.189 A 
ATOM      2  N   UNL d   1      25.155 -15.659  -3.760  0.00  0.00    -0.105 NA
ATOM      3  O   UNL d   1      25.469 -14.389  -4.223  0.00  0.00    -0.193 OA
ATOM      4  C   UNL d   1      25.995 -13.716  -3.161  0.00  0.00     0.207 A 
ATOM      5  N   UNL d   1      25.946 -14.381  -2.034  0.00  0.00    -0.202 NA
ENDROOT
BRANCH   4   6
ATOM      6  C   UNL d   1      26.741 -12.467  -3.480  0.00  0.00     0.307 C 
ATOM      7  C   UNL d   1      25.725 -11.554  -4.228  0.00  0.00     0.103 C 
ATOM      8  C   UNL d   1      26.218 -11.208  -5.554  0.00  0.00     0.037 A 
ATOM      9  N   UNL d   1      25.524 -10.563  -6.554  0.00  0.00    -0.354 N 
ATOM     10  C   UNL d   1      27.441 -11.525  -6.069  0.00  0.00     0.061 A 
ATOM     11  C   UNL d   1      26.280 -10.461  -7.650  0.00  0.00     0.180 A 
ATOM     12  H   UNL d   1      24.566 -10.225  -6.478  0.00  0.00     0.166 HD
ATOM     13  N   UNL d   1      27.445 -11.051  -7.365  0.00  0.00    -0.353 N 
ATOM     14  H   UNL d   1      28.218 -11.146  -8.022  0.00  0.00     0.166 HD
ATOM     15  C   UNL d   1      28.484 -12.295  -5.378  0.00  0.00     0.332 C 
ATOM     16  N   UNL d   1      28.121 -12.754  -4.032  0.00  0.00     0.102 N 
ATOM     17  C   UNL d   1      28.530 -14.167  -3.887  0.00  0.00     0.311 C 
ENDBRANCH   4   6
BRANCH   1  18
ATOM     18  C   UNL d   1      25.130 -16.606  -1.503  0.00  0.00     0.015 A 
ATOM     19  C   UNL d   1      26.095 -17.141  -0.652  0.00  0.00     0.015 A 
ATOM     20  C   UNL d   1      25.720 -18.130   0.251  0.00  0.00     0.002 A 
ATOM     21  C   UNL d   1      24.393 -18.574   0.293  0.00  0.00     0.007 A 
ATOM     22  C   UNL d   1      23.424 -18.028  -0.555  0.00  0.00    -0.061 A 
ATOM     23  C   UNL d   1      21.997 -18.473  -0.525  0.00  0.00     0.048 C 
ATOM     24  C   UNL d   1      23.802 -17.035  -1.451  0.00  0.00     0.022 A 
ENDBRANCH   1  18
TORSDOF 2
ENDMDL
MODEL 8
REMARK VINA RESULT:    -7.060      3.013      5.788
REMARK INTER + INTRA:          -8.406
REMARK INTER:                  -7.656
REMARK INTRA:                  -0.750
REMARK CONF_INDEPENDENT:        0.597
REMARK UNBOUND:                -0.750
REMARK  2 active torsions:
REMARK  status: ('A' for Active; 'I' for Inactive)
REMARK    1  A    between atoms: C_6  and  C_7 
REMARK    2  A    between atoms: C_11  and  C_10 
ROOT
ATOM      1  C   UNL d   1      25.292 -15.446  -2.697  0.00  0.00     0.189 A 
ATOM      2  N   UNL d   1      24.226 -14.768  -3.142  0.00  0.00    -0.105 NA
ATOM      3  O   UNL d   1      24.780 -13.873  -4.046  0.00  0.00    -0.193 OA
ATOM      4  C   UNL d   1      26.109 -14.170  -4.109  0.00  0.00     0.207 A 
ATOM      5  N   UNL d   1      26.490 -15.086  -3.254  0.00  0.00    -0.202 NA
ENDROOT
BRANCH   4   6
ATOM      6  C   UNL d   1      26.853 -13.601  -5.267  0.00  0.00     0.307 C 
ATOM      7  C   UNL d   1      27.460 -14.825  -6.015  0.00  0.00     0.103 C 
ATOM      8  C   UNL d   1      28.911 -14.720  -6.087  0.00  0.00     0.037 A 
ATOM      9  N   UNL d   1      29.792 -15.686  -6.521  0.00  0.00    -0.354 N 
ATOM     10  C   UNL d   1      29.666 -13.662  -5.670  0.00  0.00     0.061 A 
ATOM     11  C   UNL d   1      31.050 -15.253  -6.400  0.00  0.00     0.180 A 
ATOM     12  H   UNL d   1      29.527 -16.606  -6.870  0.00  0.00     0.166 HD
ATOM     13  N   UNL d   1      30.982 -14.026  -5.876  0.00  0.00    -0.353 N 
ATOM     14  H   UNL d   1      31.791 -13.450  -5.649  0.00  0.00     0.166 HD
ATOM     15  C   UNL d   1      29.147 -12.435  -5.053  0.00  0.00     0.332 C 
ATOM     16  N   UNL d   1      27.691 -12.403  -4.873  0.00  0.00     0.102 N 
ATOM     17  C   UNL d   1      27.391 -11.898  -3.516  0.00  0.00     0.311 C 
ENDBRANCH   4   6
BRANCH   1  18
ATOM     18  C   UNL d   1      25.254 -16.379  -1.612  0.00  0.00     0.015 A 
ATOM     19  C   UNL d   1      26.378 -16.649  -0.834  0.00  0.00     0.015 A 
ATOM     20  C   UNL d   1      26.270 -17.565   0.207  0.00  0.00     0.002 A 
ATOM     21  C   UNL d   1      25.049 -18.200   0.458  0.00  0.00     0.007 A 
ATOM     22  C   UNL d   1      23.918 -17.919  -0.317  0.00  0.00    -0.061 A 
ATOM     23  C   UNL d   1      22.597 -18.573  -0.066  0.00  0.00     0.048 C 
ATOM     24  C   UNL d   1      24.029 -16.998  -1.352  0.00  0.00     0.022 A 
ENDBRANCH   1  18
TORSDOF 2
ENDMDL
MODEL 9
REMARK VINA RESULT:    -6.600     10.588     13.044
REMARK INTER + INTRA:          -7.910
REMARK INTER:                  -7.196
REMARK INTRA:                  -0.714
REMARK CONF_INDEPENDENT:        0.597
REMARK UNBOUND:                -0.714
REMARK  2 active torsions:
REMARK  status: ('A' for Active; 'I' for Inactive)
REMARK    1  A    between atoms: C_6  and  C_7 
REMARK    2  A    between atoms: C_11  and  C_10 
ROOT
ATOM      1  C   UNL d   1      32.923 -21.642   5.981  0.00  0.00     0.189 A 
ATOM      2  N   UNL d   1      31.627 -21.424   6.239  0.00  0.00    -0.105 NA
ATOM      3  O   UNL d   1      31.174 -20.823   5.072  0.00  0.00    -0.193 OA
ATOM      4  C   UNL d   1      32.229 -20.824   4.209  0.00  0.00     0.207 A 
ATOM      5  N   UNL d   1      33.346 -21.258   4.737  0.00  0.00    -0.202 NA
ENDROOT
BRANCH   4   6
ATOM      6  C   UNL d   1      31.905 -20.570   2.778  0.00  0.00     0.307 C 
ATOM      7  C   UNL d   1      31.859 -21.974   2.105  0.00  0.00     0.103 C 
ATOM      8  C   UNL d   1      32.824 -22.059   1.017  0.00  0.00     0.037 A 
ATOM      9  N   UNL d   1      33.181 -23.186   0.311  0.00  0.00    -0.354 N 
ATOM     10  C   UNL d   1      33.601 -21.041   0.546  0.00  0.00     0.061 A 
ATOM     11  C   UNL d   1      34.132 -22.893  -0.580  0.00  0.00     0.180 A 
ATOM     12  H   UNL d   1      32.790 -24.116   0.455  0.00  0.00     0.166 HD
ATOM     13  N   UNL d   1      34.398 -21.591  -0.438  0.00  0.00    -0.353 N 
ATOM     14  H   UNL d   1      35.102 -21.086  -0.973  0.00  0.00     0.166 HD
ATOM     15  C   UNL d   1      33.618 -19.668   1.068  0.00  0.00     0.332 C 
ATOM     16  N   UNL d   1      32.719 -19.430   2.204  0.00  0.00     0.102 N 
ATOM     17  C   UNL d   1      33.447 -18.653   3.230  0.00  0.00     0.311 C 
ENDBRANCH   4   6
BRANCH   1  18
ATOM     18  C   UNL d   1      33.869 -22.098   6.955  0.00  0.00     0.015 A 
ATOM     19  C   UNL d   1      34.155 -23.451   7.124  0.00  0.00     0.015 A 
ATOM     20  C   UNL d   1      35.086 -23.825   8.087  0.00  0.00     0.002 A 
ATOM     21  C   UNL d   1      35.716 -22.851   8.868  0.00  0.00     0.007 A 
ATOM     22  C   UNL d   1      35.436 -21.491   8.689  0.00  0.00    -0.061 A 
ATOM     23  C   UNL d   1      36.101 -20.427   9.500  0.00  0.00     0.048 C 
ATOM     24  C   UNL d   1      34.510 -21.122   7.721  0.00  0.00     0.022 A 
ENDBRANCH   1  18
TORSDOF 2
ENDMDL
