MODEL 1
REMARK VINA RESULT:   -30.827      0.000      0.000
REMARK INTER + INTRA:         -34.639
REMARK INTER:                 -33.512
REMARK INTRA:                  -1.127
REMARK CONF_INDEPENDENT:        2.685
REMARK UNBOUND:                -1.127
REMARK  9 active torsions:
REMARK  status: ('A' for Active; 'I' for Inactive)
REMARK    1  A    between atoms: C_2  and  C_3 
REMARK       I    between atoms: C_2  and  N_15 
REMARK    2  A    between atoms: C_3  and  S_4 
REMARK    3  A    between atoms: S_4  and  C_5 
REMARK    4  A    between atoms: C_5  and  C_6 
REMARK    5  A    between atoms: N_15  and  C_16 
REMARK    6  A    between atoms: C_16  and  C_17 
REMARK    7  A    between atoms: C_17  and  N_18 
REMARK    8  A    between atoms: N_18  and  C_19 
REMARK    9  A    between atoms: C_24  and  N_25 
ROOT
ATOM      1  O   UNL d   1      26.017 -18.474   0.748  0.00  0.00    -0.273 OA
ATOM      2  C   UNL d   1      26.015 -17.755  -0.249  0.00  0.00     0.226 C 
ATOM      3  N   UNL d   1      27.208 -17.232  -0.652  0.00  0.00    -0.359 N 
ATOM      4  H   UNL d   1      27.997 -17.606  -0.126  0.00  0.00     0.162 HD
ENDROOT
BRANCH   2   5
ATOM      5  C   UNL d   1      24.783 -17.388  -1.080  0.00  0.00     0.177 C 
BRANCH   5   6
ATOM      6  S   UNL d   1      23.290 -17.529  -0.046  0.00  0.00    -0.152 SA
BRANCH   6   7
ATOM      7  C   UNL d   1      22.014 -17.953  -1.270  0.00  0.00     0.152 C 
BRANCH   7   8
ATOM      8  C   UNL d   1      20.976 -18.809  -0.611  0.00  0.00     0.114 A 
ATOM      9  N   UNL d   1      19.905 -19.325  -1.180  0.00  0.00    -0.233 NA
ATOM     10  C   UNL d   1      19.268 -20.041  -0.194  0.00  0.00     0.085 A 
ATOM     11  C   UNL d   1      18.078 -20.779  -0.253  0.00  0.00     0.034 A 
ATOM     12  C   UNL d   1      19.961 -19.963   1.008  0.00  0.00     0.062 A 
ATOM     13  C   UNL d   1      17.616 -21.405   0.912  0.00  0.00     0.002 A 
ATOM     14  C   UNL d   1      18.338 -21.317   2.105  0.00  0.00     0.002 A 
ATOM     15  C   UNL d   1      19.537 -20.596   2.179  0.00  0.00     0.032 A 
ATOM     16  N   UNL d   1      21.043 -19.173   0.717  0.00  0.00    -0.342 N 
ATOM     17  H   UNL d   1      21.786 -18.924   1.356  0.00  0.00     0.167 HD
ENDBRANCH   7   8
ENDBRANCH   6   7
ENDBRANCH   5   6
ENDBRANCH   2   5
BRANCH   3  18
ATOM     18  C   UNL d   1      27.442 -16.380  -1.808  0.00  0.00     0.142 C 
BRANCH  18  19
ATOM     19  C   UNL d   1      27.733 -14.965  -1.346  0.00  0.00     0.139 C 
BRANCH  19  20
ATOM     20  N   UNL d   1      26.674 -14.006  -1.553  0.00  0.00    -0.386 N 
ATOM     21  H   UNL d   1      25.810 -14.144  -1.030  0.00  0.00     0.159 HD
BRANCH  20  22
ATOM     22  C   UNL d   1      26.528 -13.240  -2.712  0.00  0.00     0.061 A 
ATOM     23  C   UNL d   1      26.573 -11.834  -2.455  0.00  0.00     0.031 A 
ATOM     24  C   UNL d   1      26.362 -10.861  -3.440  0.00  0.00     0.002 A 
ATOM     25  C   UNL d   1      26.157 -11.254  -4.747  0.00  0.00     0.003 A 
ATOM     26  C   UNL d   1      26.143 -12.607  -5.049  0.00  0.00     0.038 A 
ATOM     27  C   UNL d   1      26.331 -13.617  -4.072  0.00  0.00     0.129 A 
BRANCH  27  28
ATOM     28  N   UNL d   1      26.230 -14.988  -4.657  0.00  0.00    -0.113 N 
ATOM     29  O   UNL d   1      27.303 -15.575  -4.908  0.00  0.00    -0.532 OA
ATOM     30  O   UNL d   1      25.159 -15.507  -4.922  0.00  0.00    -0.532 OA
ENDBRANCH  27  28
ENDBRANCH  20  22
ENDBRANCH  19  20
ENDBRANCH  18  19
ENDBRANCH   3  18
TORSDOF 9
ENDMDL
MODEL 2
REMARK VINA RESULT:   -30.178      4.063      5.039
REMARK INTER + INTRA:         -33.927
REMARK INTER:                 -32.863
REMARK INTRA:                  -1.064
REMARK CONF_INDEPENDENT:        2.685
REMARK UNBOUND:                -1.064
REMARK  9 active torsions:
REMARK  status: ('A' for Active; 'I' for Inactive)
REMARK    1  A    between atoms: C_2  and  C_3 
REMARK       I    between atoms: C_2  and  N_15 
REMARK    2  A    between atoms: C_3  and  S_4 
REMARK    3  A    between atoms: S_4  and  C_5 
REMARK    4  A    between atoms: C_5  and  C_6 
REMARK    5  A    between atoms: N_15  and  C_16 
REMARK    6  A    between atoms: C_16  and  C_17 
REMARK    7  A    between atoms: C_17  and  N_18 
REMARK    8  A    between atoms: N_18  and  C_19 
REMARK    9  A    between atoms: C_24  and  N_25 
ROOT
ATOM      1  O   UNL d   1      26.177 -18.289   0.162  0.00  0.00    -0.273 OA
ATOM      2  C   UNL d   1      25.861 -17.134  -0.112  0.00  0.00     0.226 C 
ATOM      3  N   UNL d   1      26.770 -16.152   0.151  0.00  0.00    -0.359 N 
ATOM      4  H   UNL d   1      27.671 -16.523   0.449  0.00  0.00     0.162 HD
ENDROOT
BRANCH   2   5
ATOM      5  C   UNL d   1      24.529 -16.695  -0.725  0.00  0.00     0.177 C 
BRANCH   5   6
ATOM      6  S   UNL d   1      23.158 -17.486   0.177  0.00  0.00    -0.152 SA
BRANCH   6   7
ATOM      7  C   UNL d   1      22.033 -17.958  -1.171  0.00  0.00     0.152 C 
BRANCH   7   8
ATOM      8  C   UNL d   1      20.962 -18.847  -0.618  0.00  0.00     0.114 A 
ATOM      9  N   UNL d   1      19.905 -19.300  -1.263  0.00  0.00    -0.233 NA
ATOM     10  C   UNL d   1      19.224 -20.081  -0.359  0.00  0.00     0.085 A 
ATOM     11  C   UNL d   1      18.027 -20.793  -0.518  0.00  0.00     0.034 A 
ATOM     12  C   UNL d   1      19.874 -20.109   0.868  0.00  0.00     0.062 A 
ATOM     13  C   UNL d   1      17.516 -21.502   0.577  0.00  0.00     0.002 A 
ATOM     14  C   UNL d   1      18.195 -21.519   1.798  0.00  0.00     0.002 A 
ATOM     15  C   UNL d   1      19.400 -20.825   1.971  0.00  0.00     0.032 A 
ATOM     16  N   UNL d   1      20.976 -19.315   0.679  0.00  0.00    -0.342 N 
ATOM     17  H   UNL d   1      21.698 -19.128   1.360  0.00  0.00     0.167 HD
ENDBRANCH   7   8
ENDBRANCH   6   7
ENDBRANCH   5   6
ENDBRANCH   2   5
BRANCH   3  18
ATOM     18  C   UNL d   1      26.620 -14.728  -0.111  0.00  0.00     0.142 C 
BRANCH  18  19
ATOM     19  C   UNL d   1      27.726 -13.963   0.591  0.00  0.00     0.139 C 
BRANCH  19  20
ATOM     20  N   UNL d   1      27.364 -12.661   1.098  0.00  0.00    -0.386 N 
ATOM     21  H   UNL d   1      27.325 -11.893   0.430  0.00  0.00     0.159 HD
BRANCH  20  22
ATOM     22  C   UNL d   1      27.545 -12.261   2.425  0.00  0.00     0.061 A 
ATOM     23  C   UNL d   1      28.163 -13.270   3.227  0.00  0.00     0.031 A 
ATOM     24  C   UNL d   1      28.368 -13.141   4.607  0.00  0.00     0.002 A 
ATOM     25  C   UNL d   1      28.020 -11.964   5.237  0.00  0.00     0.003 A 
ATOM     26  C   UNL d   1      27.453 -10.943   4.489  0.00  0.00     0.038 A 
ATOM     27  C   UNL d   1      27.211 -11.050   3.097  0.00  0.00     0.129 A 
BRANCH  27  28
ATOM     28  N   UNL d   1      26.556  -9.824   2.547  0.00  0.00    -0.113 N 
ATOM     29  O   UNL d   1      26.294  -9.824   1.326  0.00  0.00    -0.532 OA
ATOM     30  O   UNL d   1      26.319  -8.847   3.235  0.00  0.00    -0.532 OA
ENDBRANCH  27  28
ENDBRANCH  20  22
ENDBRANCH  19  20
ENDBRANCH  18  19
ENDBRANCH   3  18
TORSDOF 9
ENDMDL
MODEL 3
REMARK VINA RESULT:   -30.100      1.614      2.054
REMARK INTER + INTRA:         -34.693
REMARK INTER:                 -32.785
REMARK INTRA:                  -1.909
REMARK CONF_INDEPENDENT:        2.685
REMARK UNBOUND:                -1.909
REMARK  9 active torsions:
REMARK  status: ('A' for Active; 'I' for Inactive)
REMARK    1  A    between atoms: C_2  and  C_3 
REMARK       I    between atoms: C_2  and  N_15 
REMARK    2  A    between atoms: C_3  and  S_4 
REMARK    3  A    between atoms: S_4  and  C_5 
REMARK    4  A    between atoms: C_5  and  C_6 
REMARK    5  A    between atoms: N_15  and  C_16 
REMARK    6  A    between atoms: C_16  and  C_17 
REMARK    7  A    between atoms: C_17  and  N_18 
REMARK    8  A    between atoms: N_18  and  C_19 
REMARK    9  A    between atoms: C_24  and  N_25 
ROOT
ATOM      1  O   UNL d   1      24.721 -17.767  -2.856  0.00  0.00    -0.273 OA
ATOM      2  C   UNL d   1      24.865 -16.701  -2.262  0.00  0.00     0.226 C 
ATOM      3  N   UNL d   1      25.464 -15.680  -2.938  0.00  0.00    -0.359 N 
ATOM      4  H   UNL d   1      25.623 -15.899  -3.920  0.00  0.00     0.162 HD
ENDROOT
BRANCH   2   5
ATOM      5  C   UNL d   1      24.431 -16.417  -0.822  0.00  0.00     0.177 C 
BRANCH   5   6
ATOM      6  S   UNL d   1      23.511 -17.848  -0.173  0.00  0.00    -0.152 SA
BRANCH   6   7
ATOM      7  C   UNL d   1      22.000 -17.824  -1.186  0.00  0.00     0.152 C 
BRANCH   7   8
ATOM      8  C   UNL d   1      20.975 -18.710  -0.547  0.00  0.00     0.114 A 
ATOM      9  N   UNL d   1      19.905 -19.219  -1.125  0.00  0.00    -0.233 NA
ATOM     10  C   UNL d   1      19.282 -19.971  -0.158  0.00  0.00     0.085 A 
ATOM     11  C   UNL d   1      18.098 -20.719  -0.233  0.00  0.00     0.034 A 
ATOM     12  C   UNL d   1      19.982 -19.925   1.041  0.00  0.00     0.062 A 
ATOM     13  C   UNL d   1      17.650 -21.386   0.915  0.00  0.00     0.002 A 
ATOM     14  C   UNL d   1      18.380 -21.328   2.106  0.00  0.00     0.002 A 
ATOM     15  C   UNL d   1      19.572 -20.598   2.195  0.00  0.00     0.032 A 
ATOM     16  N   UNL d   1      21.055 -19.115   0.769  0.00  0.00    -0.342 N 
ATOM     17  H   UNL d   1      21.799 -18.879   1.410  0.00  0.00     0.167 HD
ENDBRANCH   7   8
ENDBRANCH   6   7
ENDBRANCH   5   6
ENDBRANCH   2   5
BRANCH   3  18
ATOM     18  C   UNL d   1      25.716 -14.334  -2.444  0.00  0.00     0.142 C 
BRANCH  18  19
ATOM     19  C   UNL d   1      24.777 -13.358  -3.127  0.00  0.00     0.139 C 
BRANCH  19  20
ATOM     20  N   UNL d   1      24.984 -13.175  -4.544  0.00  0.00    -0.386 N 
ATOM     21  H   UNL d   1      24.336 -13.643  -5.175  0.00  0.00     0.159 HD
BRANCH  20  22
ATOM     22  C   UNL d   1      26.217 -12.854  -5.119  0.00  0.00     0.061 A 
ATOM     23  C   UNL d   1      26.455 -11.445  -5.166  0.00  0.00     0.031 A 
ATOM     24  C   UNL d   1      27.577 -10.872  -5.777  0.00  0.00     0.002 A 
ATOM     25  C   UNL d   1      28.548 -11.690  -6.315  0.00  0.00     0.003 A 
ATOM     26  C   UNL d   1      28.377 -13.065  -6.257  0.00  0.00     0.038 A 
ATOM     27  C   UNL d   1      27.242 -13.677  -5.667  0.00  0.00     0.129 A 
BRANCH  27  28
ATOM     28  N   UNL d   1      27.290 -15.166  -5.775  0.00  0.00    -0.113 N 
ATOM     29  O   UNL d   1      28.417 -15.686  -5.911  0.00  0.00    -0.532 OA
ATOM     30  O   UNL d   1      26.283 -15.853  -5.773  0.00  0.00    -0.532 OA
ENDBRANCH  27  28
ENDBRANCH  20  22
ENDBRANCH  19  20
ENDBRANCH  18  19
ENDBRANCH   3  18
TORSDOF 9
ENDMDL
MODEL 4
REMARK VINA RESULT:   -29.917      1.891      2.154
REMARK INTER + INTRA:         -34.245
REMARK INTER:                 -32.602
REMARK INTRA:                  -1.643
REMARK CONF_INDEPENDENT:        2.685
REMARK UNBOUND:                -1.643
REMARK  9 active torsions:
REMARK  status: ('A' for Active; 'I' for Inactive)
REMARK    1  A    between atoms: C_2  and  C_3 
REMARK       I    between atoms: C_2  and  N_15 
REMARK    2  A    between atoms: C_3  and  S_4 
REMARK    3  A    between atoms: S_4  and  C_5 
REMARK    4  A    between atoms: C_5  and  C_6 
REMARK    5  A    between atoms: N_15  and  C_16 
REMARK    6  A    between atoms: C_16  and  C_17 
REMARK    7  A    between atoms: C_17  and  N_18 
REMARK    8  A    between atoms: N_18  and  C_19 
REMARK    9  A    between atoms: C_24  and  N_25 
ROOT
ATOM      1  O   UNL d   1      23.764 -15.721  -1.532  0.00  0.00    -0.273 OA
ATOM      2  C   UNL d   1      24.731 -16.354  -1.114  0.00  0.00     0.226 C 
ATOM      3  N   UNL d   1      25.945 -16.097  -1.677  0.00  0.00    -0.359 N 
ATOM      4  H   UNL d   1      25.919 -15.304  -2.318  0.00  0.00     0.162 HD
ENDROOT
BRANCH   2   5
ATOM      5  C   UNL d   1      24.691 -17.417  -0.013  0.00  0.00     0.177 C 
BRANCH   5   6
ATOM      6  S   UNL d   1      23.595 -18.779  -0.523  0.00  0.00    -0.152 SA
BRANCH   6   7
ATOM      7  C   UNL d   1      22.017 -17.917  -0.801  0.00  0.00     0.152 C 
BRANCH   7   8
ATOM      8  C   UNL d   1      20.896 -18.810  -0.367  0.00  0.00     0.114 A 
ATOM      9  N   UNL d   1      19.902 -19.246  -1.115  0.00  0.00    -0.233 NA
ATOM     10  C   UNL d   1      19.137 -20.039  -0.293  0.00  0.00     0.085 A 
ATOM     11  C   UNL d   1      17.957 -20.742  -0.575  0.00  0.00     0.034 A 
ATOM     12  C   UNL d   1      19.669 -20.091   0.990  0.00  0.00     0.062 A 
ATOM     13  C   UNL d   1      17.343 -21.467   0.455  0.00  0.00     0.002 A 
ATOM     14  C   UNL d   1      17.906 -21.508   1.734  0.00  0.00     0.002 A 
ATOM     15  C   UNL d   1      19.092 -20.823   2.030  0.00  0.00     0.032 A 
ATOM     16  N   UNL d   1      20.787 -19.300   0.918  0.00  0.00    -0.342 N 
ATOM     17  H   UNL d   1      21.443 -19.129   1.667  0.00  0.00     0.167 HD
ENDBRANCH   7   8
ENDBRANCH   6   7
ENDBRANCH   5   6
ENDBRANCH   2   5
BRANCH   3  18
ATOM     18  C   UNL d   1      27.219 -16.707  -1.326  0.00  0.00     0.142 C 
BRANCH  18  19
ATOM     19  C   UNL d   1      28.355 -15.831  -1.819  0.00  0.00     0.139 C 
BRANCH  19  20
ATOM     20  N   UNL d   1      28.771 -16.050  -3.184  0.00  0.00    -0.386 N 
ATOM     21  H   UNL d   1      29.489 -16.755  -3.346  0.00  0.00     0.159 HD
BRANCH  20  22
ATOM     22  C   UNL d   1      28.663 -15.094  -4.198  0.00  0.00     0.061 A 
ATOM     23  C   UNL d   1      29.893 -14.408  -4.443  0.00  0.00     0.031 A 
ATOM     24  C   UNL d   1      30.018 -13.346  -5.348  0.00  0.00     0.002 A 
ATOM     25  C   UNL d   1      28.925 -12.962  -6.096  0.00  0.00     0.003 A 
ATOM     26  C   UNL d   1      27.720 -13.625  -5.918  0.00  0.00     0.038 A 
ATOM     27  C   UNL d   1      27.555 -14.688  -4.995  0.00  0.00     0.129 A 
BRANCH  27  28
ATOM     28  N   UNL d   1      26.150 -15.197  -4.974  0.00  0.00    -0.113 N 
ATOM     29  O   UNL d   1      25.420 -14.801  -4.041  0.00  0.00    -0.532 OA
ATOM     30  O   UNL d   1      25.731 -15.992  -5.797  0.00  0.00    -0.532 OA
ENDBRANCH  27  28
ENDBRANCH  20  22
ENDBRANCH  19  20
ENDBRANCH  18  19
ENDBRANCH   3  18
TORSDOF 9
ENDMDL
MODEL 5
REMARK VINA RESULT:   -29.021      2.638      4.085
REMARK INTER + INTRA:         -32.795
REMARK INTER:                 -31.706
REMARK INTRA:                  -1.090
REMARK CONF_INDEPENDENT:        2.685
REMARK UNBOUND:                -1.090
REMARK  9 active torsions:
REMARK  status: ('A' for Active; 'I' for Inactive)
REMARK    1  A    between atoms: C_2  and  C_3 
REMARK       I    between atoms: C_2  and  N_15 
REMARK    2  A    between atoms: C_3  and  S_4 
REMARK    3  A    between atoms: S_4  and  C_5 
REMARK    4  A    between atoms: C_5  and  C_6 
REMARK    5  A    between atoms: N_15  and  C_16 
REMARK    6  A    between atoms: C_16  and  C_17 
REMARK    7  A    between atoms: C_17  and  N_18 
REMARK    8  A    between atoms: N_18  and  C_19 
REMARK    9  A    between atoms: C_24  and  N_25 
ROOT
ATOM      1  O   UNL d   1      26.218 -18.415   0.974  0.00  0.00    -0.273 OA
ATOM      2  C   UNL d   1      26.092 -17.615   0.050  0.00  0.00     0.226 C 
ATOM      3  N   UNL d   1      27.188 -16.888  -0.308  0.00  0.00    -0.359 N 
ATOM      4  H   UNL d   1      28.033 -17.189   0.176  0.00  0.00     0.162 HD
ENDROOT
BRANCH   2   5
ATOM      5  C   UNL d   1      24.804 -17.357  -0.736  0.00  0.00     0.177 C 
BRANCH   5   6
ATOM      6  S   UNL d   1      23.629 -18.717  -0.438  0.00  0.00    -0.152 SA
BRANCH   6   7
ATOM      7  C   UNL d   1      22.042 -17.963  -0.904  0.00  0.00     0.152 C 
BRANCH   7   8
ATOM      8  C   UNL d   1      20.929 -18.843  -0.425  0.00  0.00     0.114 A 
ATOM      9  N   UNL d   1      19.905 -19.273  -1.136  0.00  0.00    -0.233 NA
ATOM     10  C   UNL d   1      19.163 -20.056  -0.283  0.00  0.00     0.085 A 
ATOM     11  C   UNL d   1      17.968 -20.749  -0.520  0.00  0.00     0.034 A 
ATOM     12  C   UNL d   1      19.740 -20.107   0.979  0.00  0.00     0.062 A 
ATOM     13  C   UNL d   1      17.385 -21.464   0.534  0.00  0.00     0.002 A 
ATOM     14  C   UNL d   1      17.992 -21.505   1.792  0.00  0.00     0.002 A 
ATOM     15  C   UNL d   1      19.194 -20.830   2.043  0.00  0.00     0.032 A 
ATOM     16  N   UNL d   1      20.862 -19.327   0.864  0.00  0.00    -0.342 N 
ATOM     17  H   UNL d   1      21.546 -19.158   1.589  0.00  0.00     0.167 HD
ENDBRANCH   7   8
ENDBRANCH   6   7
ENDBRANCH   5   6
ENDBRANCH   2   5
BRANCH   3  18
ATOM     18  C   UNL d   1      27.274 -15.907  -1.379  0.00  0.00     0.142 C 
BRANCH  18  19
ATOM     19  C   UNL d   1      28.721 -15.501  -1.582  0.00  0.00     0.139 C 
BRANCH  19  20
ATOM     20  N   UNL d   1      29.317 -15.905  -2.834  0.00  0.00    -0.386 N 
ATOM     21  H   UNL d   1      28.852 -15.607  -3.690  0.00  0.00     0.159 HD
BRANCH  20  22
ATOM     22  C   UNL d   1      30.136 -17.027  -2.984  0.00  0.00     0.061 A 
ATOM     23  C   UNL d   1      30.710 -17.461  -1.749  0.00  0.00     0.031 A 
ATOM     24  C   UNL d   1      31.636 -18.509  -1.654  0.00  0.00     0.002 A 
ATOM     25  C   UNL d   1      31.981 -19.213  -2.788  0.00  0.00     0.003 A 
ATOM     26  C   UNL d   1      31.419 -18.850  -4.003  0.00  0.00     0.038 A 
ATOM     27  C   UNL d   1      30.498 -17.781  -4.137  0.00  0.00     0.129 A 
BRANCH  27  28
ATOM     28  N   UNL d   1      30.079 -17.578  -5.557  0.00  0.00    -0.113 N 
ATOM     29  O   UNL d   1      30.400 -18.468  -6.373  0.00  0.00    -0.532 OA
ATOM     30  O   UNL d   1      29.487 -16.580  -5.927  0.00  0.00    -0.532 OA
ENDBRANCH  27  28
ENDBRANCH  20  22
ENDBRANCH  19  20
ENDBRANCH  18  19
ENDBRANCH   3  18
TORSDOF 9
ENDMDL
MODEL 6
REMARK VINA RESULT:   -28.880      2.295      2.906
REMARK INTER + INTRA:         -33.163
REMARK INTER:                 -31.564
REMARK INTRA:                  -1.599
REMARK CONF_INDEPENDENT:        2.685
REMARK UNBOUND:                -1.599
REMARK  9 active torsions:
REMARK  status: ('A' for Active; 'I' for Inactive)
REMARK    1  A    between atoms: C_2  and  C_3 
REMARK       I    between atoms: C_2  and  N_15 
REMARK    2  A    between atoms: C_3  and  S_4 
REMARK    3  A    between atoms: S_4  and  C_5 
REMARK    4  A    between atoms: C_5  and  C_6 
REMARK    5  A    between atoms: N_15  and  C_16 
REMARK    6  A    between atoms: C_16  and  C_17 
REMARK    7  A    between atoms: C_17  and  N_18 
REMARK    8  A    between atoms: N_18  and  C_19 
REMARK    9  A    between atoms: C_24  and  N_25 
ROOT
ATOM      1  O   UNL d   1      26.351 -17.329   0.318  0.00  0.00    -0.273 OA
ATOM      2  C   UNL d   1      25.788 -16.502  -0.396  0.00  0.00     0.226 C 
ATOM      3  N   UNL d   1      26.571 -15.601  -1.054  0.00  0.00    -0.359 N 
ATOM      4  H   UNL d   1      27.566 -15.803  -0.959  0.00  0.00     0.162 HD
ENDROOT
BRANCH   2   5
ATOM      5  C   UNL d   1      24.277 -16.389  -0.608  0.00  0.00     0.177 C 
BRANCH   5   6
ATOM      6  S   UNL d   1      23.525 -18.045  -0.502  0.00  0.00    -0.152 SA
BRANCH   6   7
ATOM      7  C   UNL d   1      21.898 -17.778  -1.269  0.00  0.00     0.152 C 
BRANCH   7   8
ATOM      8  C   UNL d   1      20.900 -18.681  -0.613  0.00  0.00     0.114 A 
ATOM      9  N   UNL d   1      19.879 -19.280  -1.195  0.00  0.00    -0.233 NA
ATOM     10  C   UNL d   1      19.263 -20.010  -0.205  0.00  0.00     0.085 A 
ATOM     11  C   UNL d   1      18.124 -20.824  -0.275  0.00  0.00     0.034 A 
ATOM     12  C   UNL d   1      19.916 -19.856   1.011  0.00  0.00     0.062 A 
ATOM     13  C   UNL d   1      17.672 -21.449   0.896  0.00  0.00     0.002 A 
ATOM     14  C   UNL d   1      18.353 -21.282   2.104  0.00  0.00     0.002 A 
ATOM     15  C   UNL d   1      19.501 -20.483   2.189  0.00  0.00     0.032 A 
ATOM     16  N   UNL d   1      20.953 -19.005   0.727  0.00  0.00    -0.342 N 
ATOM     17  H   UNL d   1      21.660 -18.692   1.376  0.00  0.00     0.167 HD
ENDBRANCH   7   8
ENDBRANCH   6   7
ENDBRANCH   5   6
ENDBRANCH   2   5
BRANCH   3  18
ATOM     18  C   UNL d   1      26.126 -14.554  -1.963  0.00  0.00     0.142 C 
BRANCH  18  19
ATOM     19  C   UNL d   1      26.256 -15.035  -3.395  0.00  0.00     0.139 C 
BRANCH  19  20
ATOM     20  N   UNL d   1      27.103 -14.238  -4.250  0.00  0.00    -0.386 N 
ATOM     21  H   UNL d   1      26.701 -13.391  -4.648  0.00  0.00     0.159 HD
BRANCH  20  22
ATOM     22  C   UNL d   1      28.196 -14.744  -4.960  0.00  0.00     0.061 A 
ATOM     23  C   UNL d   1      28.283 -14.221  -6.288  0.00  0.00     0.031 A 
ATOM     24  C   UNL d   1      29.237 -14.642  -7.222  0.00  0.00     0.002 A 
ATOM     25  C   UNL d   1      30.192 -15.564  -6.848  0.00  0.00     0.003 A 
ATOM     26  C   UNL d   1      30.169 -16.070  -5.556  0.00  0.00     0.038 A 
ATOM     27  C   UNL d   1      29.203 -15.682  -4.594  0.00  0.00     0.129 A 
BRANCH  27  28
ATOM     28  N   UNL d   1      29.382 -16.406  -3.299  0.00  0.00    -0.113 N 
ATOM     29  O   UNL d   1      29.732 -17.603  -3.365  0.00  0.00    -0.532 OA
ATOM     30  O   UNL d   1      29.161 -15.881  -2.221  0.00  0.00    -0.532 OA
ENDBRANCH  27  28
ENDBRANCH  20  22
ENDBRANCH  19  20
ENDBRANCH  18  19
ENDBRANCH   3  18
TORSDOF 9
ENDMDL
MODEL 7
REMARK VINA RESULT:   -28.388      2.916      3.644
REMARK INTER + INTRA:         -32.047
REMARK INTER:                 -31.072
REMARK INTRA:                  -0.974
REMARK CONF_INDEPENDENT:        2.685
REMARK UNBOUND:                -0.974
REMARK  9 active torsions:
REMARK  status: ('A' for Active; 'I' for Inactive)
REMARK    1  A    between atoms: C_2  and  C_3 
REMARK       I    between atoms: C_2  and  N_15 
REMARK    2  A    between atoms: C_3  and  S_4 
REMARK    3  A    between atoms: S_4  and  C_5 
REMARK    4  A    between atoms: C_5  and  C_6 
REMARK    5  A    between atoms: N_15  and  C_16 
REMARK    6  A    between atoms: C_16  and  C_17 
REMARK    7  A    between atoms: C_17  and  N_18 
REMARK    8  A    between atoms: N_18  and  C_19 
REMARK    9  A    between atoms: C_24  and  N_25 
ROOT
ATOM      1  O   UNL d   1      26.369 -18.289   0.275  0.00  0.00    -0.273 OA
ATOM      2  C   UNL d   1      25.983 -17.226  -0.206  0.00  0.00     0.226 C 
ATOM      3  N   UNL d   1      26.807 -16.147  -0.093  0.00  0.00    -0.359 N 
ATOM      4  H   UNL d   1      27.721 -16.389   0.289  0.00  0.00     0.162 HD
ENDROOT
BRANCH   2   5
ATOM      5  C   UNL d   1      24.647 -17.005  -0.921  0.00  0.00     0.177 C 
BRANCH   5   6
ATOM      6  S   UNL d   1      23.668 -18.539  -0.863  0.00  0.00    -0.152 SA
BRANCH   6   7
ATOM      7  C   UNL d   1      22.001 -17.946  -1.286  0.00  0.00     0.152 C 
BRANCH   7   8
ATOM      8  C   UNL d   1      20.992 -18.772  -0.548  0.00  0.00     0.114 A 
ATOM      9  N   UNL d   1      19.905 -19.322  -1.053  0.00  0.00    -0.233 NA
ATOM     10  C   UNL d   1      19.307 -19.989  -0.010  0.00  0.00     0.085 A 
ATOM     11  C   UNL d   1      18.120 -20.735   0.009  0.00  0.00     0.034 A 
ATOM     12  C   UNL d   1      20.040 -19.847   1.161  0.00  0.00     0.062 A 
ATOM     13  C   UNL d   1      17.703 -21.303   1.220  0.00  0.00     0.002 A 
ATOM     14  C   UNL d   1      18.465 -21.151   2.381  0.00  0.00     0.002 A 
ATOM     15  C   UNL d   1      19.661 -20.421   2.377  0.00  0.00     0.032 A 
ATOM     16  N   UNL d   1      21.107 -19.067   0.794  0.00  0.00    -0.342 N 
ATOM     17  H   UNL d   1      21.869 -18.783   1.392  0.00  0.00     0.167 HD
ENDBRANCH   7   8
ENDBRANCH   6   7
ENDBRANCH   5   6
ENDBRANCH   2   5
BRANCH   3  18
ATOM     18  C   UNL d   1      26.566 -14.805  -0.604  0.00  0.00     0.142 C 
BRANCH  18  19
ATOM     19  C   UNL d   1      27.878 -14.049  -0.687  0.00  0.00     0.139 C 
BRANCH  19  20
ATOM     20  N   UNL d   1      28.017 -12.931   0.216  0.00  0.00    -0.386 N 
ATOM     21  H   UNL d   1      27.863 -13.108   1.207  0.00  0.00     0.159 HD
BRANCH  20  22
ATOM     22  C   UNL d   1      27.849 -11.595  -0.162  0.00  0.00     0.061 A 
ATOM     23  C   UNL d   1      28.397 -11.313  -1.452  0.00  0.00     0.031 A 
ATOM     24  C   UNL d   1      28.433 -10.029  -2.011  0.00  0.00     0.002 A 
ATOM     25  C   UNL d   1      27.863  -8.976  -1.328  0.00  0.00     0.003 A 
ATOM     26  C   UNL d   1      27.285  -9.211  -0.089  0.00  0.00     0.038 A 
ATOM     27  C   UNL d   1      27.253 -10.493   0.515  0.00  0.00     0.129 A 
BRANCH  27  28
ATOM     28  N   UNL d   1      26.609 -10.460   1.863  0.00  0.00    -0.113 N 
ATOM     29  O   UNL d   1      25.828  -9.513   2.093  0.00  0.00    -0.532 OA
ATOM     30  O   UNL d   1      26.853 -11.287   2.724  0.00  0.00    -0.532 OA
ENDBRANCH  27  28
ENDBRANCH  20  22
ENDBRANCH  19  20
ENDBRANCH  18  19
ENDBRANCH   3  18
TORSDOF 9
ENDMDL
MODEL 8
REMARK VINA RESULT:   -28.354      2.551      3.211
REMARK INTER + INTRA:         -31.970
REMARK INTER:                 -31.039
REMARK INTRA:                  -0.931
REMARK CONF_INDEPENDENT:        2.685
REMARK UNBOUND:                -0.931
REMARK  9 active torsions:
REMARK  status: ('A' for Active; 'I' for Inactive)
REMARK    1  A    between atoms: C_2  and  C_3 
REMARK       I    between atoms: C_2  and  N_15 
REMARK    2  A    between atoms: C_3  and  S_4 
REMARK    3  A    between atoms: S_4  and  C_5 
REMARK    4  A    between atoms: C_5  and  C_6 
REMARK    5  A    between atoms: N_15  and  C_16 
REMARK    6  A    between atoms: C_16  and  C_17 
REMARK    7  A    between atoms: C_17  and  N_18 
REMARK    8  A    between atoms: N_18  and  C_19 
REMARK    9  A    between atoms: C_24  and  N_25 
ROOT
ATOM      1  O   UNL d   1      26.654 -18.222   0.374  0.00  0.00    -0.273 OA
ATOM      2  C   UNL d   1      26.113 -17.536  -0.490  0.00  0.00     0.226 C 
ATOM      3  N   UNL d   1      26.700 -16.348  -0.810  0.00  0.00    -0.359 N 
ATOM      4  H   UNL d   1      27.606 -16.225  -0.360  0.00  0.00     0.162 HD
ENDROOT
BRANCH   2   5
ATOM      5  C   UNL d   1      24.828 -17.896  -1.239  0.00  0.00     0.177 C 
BRANCH   5   6
ATOM      6  S   UNL d   1      23.468 -18.102  -0.046  0.00  0.00    -0.152 SA
BRANCH   6   7
ATOM      7  C   UNL d   1      21.999 -17.958  -1.108  0.00  0.00     0.152 C 
BRANCH   7   8
ATOM      8  C   UNL d   1      20.924 -18.853  -0.572  0.00  0.00     0.114 A 
ATOM      9  N   UNL d   1      19.885 -19.320  -1.236  0.00  0.00    -0.233 NA
ATOM     10  C   UNL d   1      19.192 -20.101  -0.341  0.00  0.00     0.085 A 
ATOM     11  C   UNL d   1      18.005 -20.825  -0.520  0.00  0.00     0.034 A 
ATOM     12  C   UNL d   1      19.816 -20.114   0.900  0.00  0.00     0.062 A 
ATOM     13  C   UNL d   1      17.477 -21.530   0.570  0.00  0.00     0.002 A 
ATOM     14  C   UNL d   1      18.131 -21.532   1.805  0.00  0.00     0.002 A 
ATOM     15  C   UNL d   1      19.326 -20.826   1.998  0.00  0.00     0.032 A 
ATOM     16  N   UNL d   1      20.915 -19.311   0.729  0.00  0.00    -0.342 N 
ATOM     17  H   UNL d   1      21.621 -19.113   1.424  0.00  0.00     0.167 HD
ENDBRANCH   7   8
ENDBRANCH   6   7
ENDBRANCH   5   6
ENDBRANCH   2   5
BRANCH   3  18
ATOM     18  C   UNL d   1      26.250 -15.391  -1.811  0.00  0.00     0.142 C 
BRANCH  18  19
ATOM     19  C   UNL d   1      27.011 -14.090  -1.649  0.00  0.00     0.139 C 
BRANCH  19  20
ATOM     20  N   UNL d   1      27.457 -13.785  -0.310  0.00  0.00    -0.386 N 
ATOM     21  H   UNL d   1      27.456 -14.546   0.367  0.00  0.00     0.159 HD
BRANCH  20  22
ATOM     22  C   UNL d   1      27.410 -12.509   0.258  0.00  0.00     0.061 A 
ATOM     23  C   UNL d   1      26.943 -12.523   1.609  0.00  0.00     0.031 A 
ATOM     24  C   UNL d   1      26.724 -11.362   2.362  0.00  0.00     0.002 A 
ATOM     25  C   UNL d   1      27.024 -10.132   1.814  0.00  0.00     0.003 A 
ATOM     26  C   UNL d   1      27.516 -10.074   0.519  0.00  0.00     0.038 A 
ATOM     27  C   UNL d   1      27.728 -11.228  -0.278  0.00  0.00     0.129 A 
BRANCH  27  28
ATOM     28  N   UNL d   1      28.225 -10.881  -1.643  0.00  0.00    -0.113 N 
ATOM     29  O   UNL d   1      29.370 -11.279  -1.944  0.00  0.00    -0.532 OA
ATOM     30  O   UNL d   1      27.574 -10.210  -2.424  0.00  0.00    -0.532 OA
ENDBRANCH  27  28
ENDBRANCH  20  22
ENDBRANCH  19  20
ENDBRANCH  18  19
ENDBRANCH   3  18
TORSDOF 9
ENDMDL
