MODEL 1
REMARK VINA RESULT:    -7.833      0.000      0.000
REMARK INTER + INTRA:         -15.987
REMARK INTER:                 -11.711
REMARK INTRA:                  -4.276
REMARK CONF_INDEPENDENT:        3.878
REMARK UNBOUND:                -4.276
REMARK  13 active torsions:
REMARK  status: ('A' for Active; 'I' for Inactive)
REMARK    1  A    between atoms: C_2  and  C_3 
REMARK    2  A    between atoms: C_3  and  N_4 
REMARK       I    between atoms: N_4  and  C_5 
REMARK    3  A    between atoms: N_4  and  C_21 
REMARK    4  A    between atoms: C_5  and  C_7 
REMARK    5  A    between atoms: C_7  and  O_8 
REMARK    6  A    between atoms: C_7  and  C_9 
REMARK    7  A    between atoms: C_7  and  C_15 
REMARK    8  A    between atoms: C_21  and  C_22 
REMARK    9  A    between atoms: C_21  and  C_31 
REMARK       I    between atoms: C_22  and  N_24 
REMARK   10  A    between atoms: N_24  and  C_25 
REMARK   11  A    between atoms: C_32  and  O_33 
REMARK   12  A    between atoms: C_35  and  O_36 
REMARK   13  A    between atoms: C_38  and  O_39 
ROOT
ATOM      1  C   UNL d   1      29.286 -14.791  -3.917  0.00  0.00     0.218 C 
ENDROOT
BRANCH   1   2
ATOM      2  N   UNL d   1      28.907 -15.628  -2.698  0.00  0.00    -0.331 N 
ATOM      3  C   UNL d   1      28.667 -14.914  -1.487  0.00  0.00     0.265 C 
ATOM      4  O   UNL d   1      28.882 -13.706  -1.404  0.00  0.00    -0.269 OA
BRANCH   2   5
ATOM      5  C   UNL d   1      29.308 -17.075  -2.819  0.00  0.00     0.127 C 
BRANCH   5   6
ATOM      6  C   UNL d   1      30.615 -17.547  -2.266  0.00  0.00     0.015 C 
ATOM      7  C   UNL d   1      31.155 -18.932  -2.326  0.00  0.00     0.006 C 
ENDBRANCH   5   6
ENDBRANCH   2   5
BRANCH   3   8
ATOM      8  C   UNL d   1      28.197 -15.637  -0.182  0.00  0.00     0.194 C 
BRANCH   8   9
ATOM      9  O   UNL d   1      29.157 -16.657   0.158  0.00  0.00    -0.371 OA
ATOM     10  H   UNL d   1      29.414 -16.560   1.091  0.00  0.00     0.212 HD
ENDBRANCH   8   9
BRANCH   8  11
ATOM     11  C   UNL d   1      27.894 -14.516   0.844  0.00  0.00    -0.010 C 
ATOM     12  C   UNL d   1      28.620 -14.496   2.077  0.00  0.00     0.011 C 
ATOM     13  C   UNL d   1      28.147 -13.801   3.178  0.00  0.00     0.001 C 
ATOM     14  C   UNL d   1      27.030 -12.993   3.028  0.00  0.00     0.000 C 
ATOM     15  C   UNL d   1      26.360 -12.922   1.798  0.00  0.00     0.001 C 
ATOM     16  C   UNL d   1      26.788 -13.673   0.699  0.00  0.00     0.011 C 
ENDBRANCH   8  11
BRANCH   8  17
ATOM     17  C   UNL d   1      26.917 -16.432  -0.341  0.00  0.00    -0.010 A 
ATOM     18  C   UNL d   1      26.587 -17.458   0.561  0.00  0.00     0.011 A 
ATOM     19  C   UNL d   1      25.438 -18.200   0.373  0.00  0.00     0.001 A 
ATOM     20  C   UNL d   1      24.562 -17.857  -0.653  0.00  0.00     0.000 A 
ATOM     21  C   UNL d   1      24.845 -16.803  -1.516  0.00  0.00     0.001 A 
ATOM     22  C   UNL d   1      26.014 -16.092  -1.356  0.00  0.00     0.011 A 
ENDBRANCH   8  17
ENDBRANCH   3   8
ENDBRANCH   1   2
BRANCH   1  23
ATOM     23  C   UNL d   1      29.366 -15.677  -5.194  0.00  0.00     0.245 C 
ATOM     24  O   UNL d   1      28.535 -15.588  -6.080  0.00  0.00    -0.271 OA
ATOM     25  N   UNL d   1      30.393 -16.604  -5.290  0.00  0.00    -0.354 N 
ATOM     26  H   UNL d   1      31.177 -16.605  -4.656  0.00  0.00     0.162 HD
BRANCH  25  27
ATOM     27  C   UNL d   1      30.405 -17.528  -6.412  0.00  0.00     0.084 C 
ATOM     28  C   UNL d   1      31.566 -17.218  -7.377  0.00  0.00     0.025 C 
ATOM     29  C   UNL d   1      31.745 -18.296  -8.435  0.00  0.00     0.002 C 
ATOM     30  C   UNL d   1      31.846 -19.681  -7.804  0.00  0.00     0.000 C 
ATOM     31  C   UNL d   1      30.608 -19.997  -6.972  0.00  0.00     0.002 C 
ATOM     32  C   UNL d   1      30.405 -18.967  -5.883  0.00  0.00     0.025 C 
ENDBRANCH  25  27
ENDBRANCH   1  23
BRANCH   1  33
ATOM     33  C   UNL d   1      28.310 -13.673  -4.288  0.00  0.00     0.040 A 
ATOM     34  C   UNL d   1      26.994 -13.970  -4.732  0.00  0.00     0.080 A 
ATOM     35  C   UNL d   1      26.080 -12.974  -5.020  0.00  0.00     0.073 A 
ATOM     36  C   UNL d   1      26.474 -11.653  -4.883  0.00  0.00     0.071 A 
ATOM     37  C   UNL d   1      27.773 -11.316  -4.506  0.00  0.00     0.073 A 
ATOM     38  C   UNL d   1      28.686 -12.326  -4.200  0.00  0.00     0.080 A 
BRANCH  34  39
ATOM     39  O   UNL d   1      26.488 -15.247  -4.806  0.00  0.00    -0.360 OA
ATOM     40  H   UNL d   1      27.027 -15.747  -5.434  0.00  0.00     0.217 HD
ENDBRANCH  34  39
BRANCH  36  41
ATOM     41  O   UNL d   1      25.581 -10.644  -5.100  0.00  0.00    -0.361 OA
ATOM     42  H   UNL d   1      24.780 -11.046  -5.479  0.00  0.00     0.217 HD
ENDBRANCH  36  41
BRANCH  38  43
ATOM     43  O   UNL d   1      29.955 -12.009  -3.793  0.00  0.00    -0.360 OA
ATOM     44  H   UNL d   1      30.094 -12.377  -2.903  0.00  0.00     0.217 HD
ENDBRANCH  38  43
ENDBRANCH   1  33
TORSDOF 13
ENDMDL
MODEL 2
REMARK VINA RESULT:    -7.073      1.234      3.121
REMARK INTER + INTRA:         -15.772
REMARK INTER:                 -10.951
REMARK INTRA:                  -4.821
REMARK CONF_INDEPENDENT:        3.878
REMARK UNBOUND:                -4.821
REMARK  13 active torsions:
REMARK  status: ('A' for Active; 'I' for Inactive)
REMARK    1  A    between atoms: C_2  and  C_3 
REMARK    2  A    between atoms: C_3  and  N_4 
REMARK       I    between atoms: N_4  and  C_5 
REMARK    3  A    between atoms: N_4  and  C_21 
REMARK    4  A    between atoms: C_5  and  C_7 
REMARK    5  A    between atoms: C_7  and  O_8 
REMARK    6  A    between atoms: C_7  and  C_9 
REMARK    7  A    between atoms: C_7  and  C_15 
REMARK    8  A    between atoms: C_21  and  C_22 
REMARK    9  A    between atoms: C_21  and  C_31 
REMARK       I    between atoms: C_22  and  N_24 
REMARK   10  A    between atoms: N_24  and  C_25 
REMARK   11  A    between atoms: C_32  and  O_33 
REMARK   12  A    between atoms: C_35  and  O_36 
REMARK   13  A    between atoms: C_38  and  O_39 
ROOT
ATOM      1  C   UNL d   1      28.662 -14.419  -3.728  0.00  0.00     0.218 C 
ENDROOT
BRANCH   1   2
ATOM      2  N   UNL d   1      28.190 -14.941  -2.374  0.00  0.00    -0.331 N 
ATOM      3  C   UNL d   1      27.755 -13.961  -1.432  0.00  0.00     0.265 C 
ATOM      4  O   UNL d   1      27.880 -12.759  -1.659  0.00  0.00    -0.269 OA
BRANCH   2   5
ATOM      5  C   UNL d   1      28.696 -16.324  -2.057  0.00  0.00     0.127 C 
BRANCH   5   6
ATOM      6  C   UNL d   1      30.101 -16.526  -1.584  0.00  0.00     0.015 C 
ATOM      7  C   UNL d   1      30.770 -17.829  -1.323  0.00  0.00     0.006 C 
ENDBRANCH   5   6
ENDBRANCH   2   5
BRANCH   3   8
ATOM      8  C   UNL d   1      27.174 -14.359  -0.036  0.00  0.00     0.194 C 
BRANCH   8   9
ATOM      9  O   UNL d   1      26.274 -13.324   0.408  0.00  0.00    -0.371 OA
ATOM     10  H   UNL d   1      26.241 -12.618  -0.259  0.00  0.00     0.212 HD
ENDBRANCH   8   9
BRANCH   8  11
ATOM     11  C   UNL d   1      26.640 -15.806  -0.190  0.00  0.00    -0.010 C 
ATOM     12  C   UNL d   1      25.465 -16.028  -0.975  0.00  0.00     0.011 C 
ATOM     13  C   UNL d   1      24.716 -17.184  -0.837  0.00  0.00     0.001 C 
ATOM     14  C   UNL d   1      25.204 -18.203  -0.032  0.00  0.00     0.000 C 
ATOM     15  C   UNL d   1      26.408 -18.044   0.670  0.00  0.00     0.001 C 
ATOM     16  C   UNL d   1      27.137 -16.854   0.592  0.00  0.00     0.011 C 
ENDBRANCH   8  11
BRANCH   8  17
ATOM     17  C   UNL d   1      28.202 -14.396   1.076  0.00  0.00    -0.010 A 
ATOM     18  C   UNL d   1      29.578 -14.410   0.790  0.00  0.00     0.011 A 
ATOM     19  C   UNL d   1      30.497 -14.488   1.816  0.00  0.00     0.001 A 
ATOM     20  C   UNL d   1      30.054 -14.450   3.137  0.00  0.00     0.000 A 
ATOM     21  C   UNL d   1      28.697 -14.372   3.436  0.00  0.00     0.001 A 
ATOM     22  C   UNL d   1      27.778 -14.341   2.410  0.00  0.00     0.011 A 
ENDBRANCH   8  17
ENDBRANCH   3   8
ENDBRANCH   1   2
BRANCH   1  23
ATOM     23  C   UNL d   1      28.743 -15.574  -4.769  0.00  0.00     0.245 C 
ATOM     24  O   UNL d   1      27.757 -15.949  -5.376  0.00  0.00    -0.271 OA
ATOM     25  N   UNL d   1      29.966 -16.197  -4.968  0.00  0.00    -0.354 N 
ATOM     26  H   UNL d   1      30.827 -15.823  -4.600  0.00  0.00     0.162 HD
BRANCH  25  27
ATOM     27  C   UNL d   1      30.030 -17.362  -5.836  0.00  0.00     0.084 C 
ATOM     28  C   UNL d   1      30.972 -17.115  -7.031  0.00  0.00     0.025 C 
ATOM     29  C   UNL d   1      31.238 -18.381  -7.831  0.00  0.00     0.002 C 
ATOM     30  C   UNL d   1      31.702 -19.520  -6.929  0.00  0.00     0.000 C 
ATOM     31  C   UNL d   1      30.670 -19.819  -5.848  0.00  0.00     0.002 C 
ATOM     32  C   UNL d   1      30.395 -18.595  -5.003  0.00  0.00     0.025 C 
ENDBRANCH  25  27
ENDBRANCH   1  23
BRANCH   1  33
ATOM     33  C   UNL d   1      27.766 -13.371  -4.389  0.00  0.00     0.040 A 
ATOM     34  C   UNL d   1      26.361 -13.564  -4.479  0.00  0.00     0.080 A 
ATOM     35  C   UNL d   1      25.528 -12.605  -5.024  0.00  0.00     0.073 A 
ATOM     36  C   UNL d   1      26.091 -11.434  -5.506  0.00  0.00     0.071 A 
ATOM     37  C   UNL d   1      27.469 -11.228  -5.490  0.00  0.00     0.073 A 
ATOM     38  C   UNL d   1      28.304 -12.192  -4.923  0.00  0.00     0.080 A 
BRANCH  34  39
ATOM     39  O   UNL d   1      25.709 -14.649  -3.945  0.00  0.00    -0.360 OA
ATOM     40  H   UNL d   1      26.048 -15.445  -4.374  0.00  0.00     0.217 HD
ENDBRANCH  34  39
BRANCH  36  41
ATOM     41  O   UNL d   1      25.293 -10.440  -5.995  0.00  0.00    -0.361 OA
ATOM     42  H   UNL d   1      24.409 -10.822  -6.131  0.00  0.00     0.217 HD
ENDBRANCH  36  41
BRANCH  38  43
ATOM     43  O   UNL d   1      29.657 -11.987  -4.867  0.00  0.00    -0.360 OA
ATOM     44  H   UNL d   1      29.890 -11.713  -3.963  0.00  0.00     0.217 HD
ENDBRANCH  38  43
ENDBRANCH   1  33
TORSDOF 13
ENDMDL
MODEL 3
REMARK VINA RESULT:    -7.068      2.332      7.191
REMARK INTER + INTRA:         -15.728
REMARK INTER:                 -10.946
REMARK INTRA:                  -4.783
REMARK CONF_INDEPENDENT:        3.878
REMARK UNBOUND:                -4.783
REMARK  13 active torsions:
REMARK  status: ('A' for Active; 'I' for Inactive)
REMARK    1  A    between atoms: C_2  and  C_3 
REMARK    2  A    between atoms: C_3  and  N_4 
REMARK       I    between atoms: N_4  and  C_5 
REMARK    3  A    between atoms: N_4  and  C_21 
REMARK    4  A    between atoms: C_5  and  C_7 
REMARK    5  A    between atoms: C_7  and  O_8 
REMARK    6  A    between atoms: C_7  and  C_9 
REMARK    7  A    between atoms: C_7  and  C_15 
REMARK    8  A    between atoms: C_21  and  C_22 
REMARK    9  A    between atoms: C_21  and  C_31 
REMARK       I    between atoms: C_22  and  N_24 
REMARK   10  A    between atoms: N_24  and  C_25 
REMARK   11  A    between atoms: C_32  and  O_33 
REMARK   12  A    between atoms: C_35  and  O_36 
REMARK   13  A    between atoms: C_38  and  O_39 
ROOT
ATOM      1  C   UNL d   1      26.499 -13.138  -4.937  0.00  0.00     0.218 C 
ENDROOT
BRANCH   1   2
ATOM      2  N   UNL d   1      28.008 -13.362  -4.900  0.00  0.00    -0.331 N 
ATOM      3  C   UNL d   1      28.464 -14.674  -5.223  0.00  0.00     0.265 C 
ATOM      4  O   UNL d   1      27.674 -15.601  -5.392  0.00  0.00    -0.269 OA
BRANCH   2   5
ATOM      5  C   UNL d   1      28.744 -12.336  -4.078  0.00  0.00     0.127 C 
BRANCH   5   6
ATOM      6  C   UNL d   1      29.507 -11.236  -4.746  0.00  0.00     0.015 C 
ATOM      7  C   UNL d   1      29.171 -10.580  -6.038  0.00  0.00     0.006 C 
ENDBRANCH   5   6
ENDBRANCH   2   5
BRANCH   3   8
ATOM      8  C   UNL d   1      29.986 -15.023  -5.298  0.00  0.00     0.194 C 
BRANCH   8   9
ATOM      9  O   UNL d   1      30.635 -14.546  -4.102  0.00  0.00    -0.371 OA
ATOM     10  H   UNL d   1      30.593 -15.234  -3.416  0.00  0.00     0.212 HD
ENDBRANCH   8   9
BRANCH   8  11
ATOM     11  C   UNL d   1      30.064 -16.532  -5.646  0.00  0.00    -0.010 C 
ATOM     12  C   UNL d   1      30.017 -17.487  -4.583  0.00  0.00     0.011 C 
ATOM     13  C   UNL d   1      30.471 -18.784  -4.761  0.00  0.00     0.001 C 
ATOM     14  C   UNL d   1      30.836 -19.193  -6.035  0.00  0.00     0.000 C 
ATOM     15  C   UNL d   1      30.795 -18.297  -7.113  0.00  0.00     0.001 C 
ATOM     16  C   UNL d   1      30.405 -16.967  -6.931  0.00  0.00     0.011 C 
ENDBRANCH   8  11
BRANCH   8  17
ATOM     17  C   UNL d   1      30.737 -14.291  -6.391  0.00  0.00    -0.010 A 
ATOM     18  C   UNL d   1      32.141 -14.333  -6.458  0.00  0.00     0.011 A 
ATOM     19  C   UNL d   1      32.807 -13.622  -7.435  0.00  0.00     0.001 A 
ATOM     20  C   UNL d   1      32.077 -12.949  -8.412  0.00  0.00     0.000 A 
ATOM     21  C   UNL d   1      30.686 -12.951  -8.395  0.00  0.00     0.001 A 
ATOM     22  C   UNL d   1      30.021 -13.622  -7.392  0.00  0.00     0.011 A 
ENDBRANCH   8  17
ENDBRANCH   3   8
ENDBRANCH   1   2
BRANCH   1  23
ATOM     23  C   UNL d   1      25.789 -13.964  -3.825  0.00  0.00     0.245 C 
ATOM     24  O   UNL d   1      24.595 -13.849  -3.615  0.00  0.00    -0.271 OA
ATOM     25  N   UNL d   1      26.557 -14.816  -3.045  0.00  0.00    -0.354 N 
ATOM     26  H   UNL d   1      27.509 -15.049  -3.280  0.00  0.00     0.162 HD
BRANCH  25  27
ATOM     27  C   UNL d   1      25.934 -15.492  -1.918  0.00  0.00     0.084 C 
ATOM     28  C   UNL d   1      24.912 -16.543  -2.395  0.00  0.00     0.025 C 
ATOM     29  C   UNL d   1      24.412 -17.422  -1.258  0.00  0.00     0.002 C 
ATOM     30  C   UNL d   1      25.570 -18.027  -0.473  0.00  0.00     0.000 C 
ATOM     31  C   UNL d   1      26.474 -16.940   0.097  0.00  0.00     0.002 C 
ATOM     32  C   UNL d   1      27.025 -16.057  -1.001  0.00  0.00     0.025 C 
ENDBRANCH  25  27
ENDBRANCH   1  23
BRANCH   1  33
ATOM     33  C   UNL d   1      26.031 -11.701  -4.704  0.00  0.00     0.040 A 
ATOM     34  C   UNL d   1      25.928 -11.172  -3.389  0.00  0.00     0.080 A 
ATOM     35  C   UNL d   1      25.559  -9.859  -3.160  0.00  0.00     0.073 A 
ATOM     36  C   UNL d   1      25.270  -9.051  -4.248  0.00  0.00     0.071 A 
ATOM     37  C   UNL d   1      25.303  -9.546  -5.551  0.00  0.00     0.073 A 
ATOM     38  C   UNL d   1      25.692 -10.867  -5.778  0.00  0.00     0.080 A 
BRANCH  34  39
ATOM     39  O   UNL d   1      26.284 -11.870  -2.260  0.00  0.00    -0.360 OA
ATOM     40  H   UNL d   1      25.653 -12.591  -2.141  0.00  0.00     0.217 HD
ENDBRANCH  34  39
BRANCH  36  41
ATOM     41  O   UNL d   1      24.962  -7.735  -4.063  0.00  0.00    -0.361 OA
ATOM     42  H   UNL d   1      24.016  -7.690  -3.841  0.00  0.00     0.217 HD
ENDBRANCH  36  41
BRANCH  38  43
ATOM     43  O   UNL d   1      25.764 -11.356  -7.055  0.00  0.00    -0.360 OA
ATOM     44  H   UNL d   1      25.565 -10.631  -7.674  0.00  0.00     0.217 HD
ENDBRANCH  38  43
ENDBRANCH   1  33
TORSDOF 13
ENDMDL
MODEL 4
REMARK VINA RESULT:    -7.030      2.329      7.394
REMARK INTER + INTRA:         -15.589
REMARK INTER:                 -10.908
REMARK INTRA:                  -4.681
REMARK CONF_INDEPENDENT:        3.878
REMARK UNBOUND:                -4.681
REMARK  13 active torsions:
REMARK  status: ('A' for Active; 'I' for Inactive)
REMARK    1  A    between atoms: C_2  and  C_3 
REMARK    2  A    between atoms: C_3  and  N_4 
REMARK       I    between atoms: N_4  and  C_5 
REMARK    3  A    between atoms: N_4  and  C_21 
REMARK    4  A    between atoms: C_5  and  C_7 
REMARK    5  A    between atoms: C_7  and  O_8 
REMARK    6  A    between atoms: C_7  and  C_9 
REMARK    7  A    between atoms: C_7  and  C_15 
REMARK    8  A    between atoms: C_21  and  C_22 
REMARK    9  A    between atoms: C_21  and  C_31 
REMARK       I    between atoms: C_22  and  N_24 
REMARK   10  A    between atoms: N_24  and  C_25 
REMARK   11  A    between atoms: C_32  and  O_33 
REMARK   12  A    between atoms: C_35  and  O_36 
REMARK   13  A    between atoms: C_38  and  O_39 
ROOT
ATOM      1  C   UNL d   1      27.365 -15.423  -4.066  0.00  0.00     0.218 C 
ENDROOT
BRANCH   1   2
ATOM      2  N   UNL d   1      28.837 -15.828  -4.071  0.00  0.00    -0.331 N 
ATOM      3  C   UNL d   1      29.524 -15.708  -5.316  0.00  0.00     0.265 C 
ATOM      4  O   UNL d   1      28.925 -15.420  -6.350  0.00  0.00    -0.269 OA
BRANCH   2   5
ATOM      5  C   UNL d   1      29.213 -16.730  -2.925  0.00  0.00     0.127 C 
BRANCH   5   6
ATOM      6  C   UNL d   1      30.039 -16.210  -1.791  0.00  0.00     0.015 C 
ATOM      7  C   UNL d   1      30.705 -14.882  -1.715  0.00  0.00     0.006 C 
ENDBRANCH   5   6
ENDBRANCH   2   5
BRANCH   3   8
ATOM      8  C   UNL d   1      31.052 -16.014  -5.447  0.00  0.00     0.194 C 
BRANCH   8   9
ATOM      9  O   UNL d   1      31.758 -15.327  -4.395  0.00  0.00    -0.371 OA
ATOM     10  H   UNL d   1      31.250 -14.543  -4.124  0.00  0.00     0.212 HD
ENDBRANCH   8   9
BRANCH   8  11
ATOM     11  C   UNL d   1      31.173 -17.556  -5.552  0.00  0.00    -0.010 C 
ATOM     12  C   UNL d   1      30.695 -18.206  -6.733  0.00  0.00     0.011 C 
ATOM     13  C   UNL d   1      30.403 -19.560  -6.741  0.00  0.00     0.001 C 
ATOM     14  C   UNL d   1      30.725 -20.317  -5.625  0.00  0.00     0.000 C 
ATOM     15  C   UNL d   1      31.287 -19.715  -4.490  0.00  0.00     0.001 C 
ATOM     16  C   UNL d   1      31.522 -18.337  -4.446  0.00  0.00     0.011 C 
ENDBRANCH   8  11
BRANCH   8  17
ATOM     17  C   UNL d   1      31.693 -15.446  -6.696  0.00  0.00    -0.010 A 
ATOM     18  C   UNL d   1      31.270 -14.218  -7.232  0.00  0.00     0.011 A 
ATOM     19  C   UNL d   1      31.838 -13.739  -8.396  0.00  0.00     0.001 A 
ATOM     20  C   UNL d   1      32.900 -14.430  -8.974  0.00  0.00     0.000 A 
ATOM     21  C   UNL d   1      33.372 -15.616  -8.419  0.00  0.00     0.001 A 
ATOM     22  C   UNL d   1      32.774 -16.116  -7.283  0.00  0.00     0.011 A 
ENDBRANCH   8  17
ENDBRANCH   3   8
ENDBRANCH   1   2
BRANCH   1  23
ATOM     23  C   UNL d   1      26.732 -15.653  -2.662  0.00  0.00     0.245 C 
ATOM     24  O   UNL d   1      27.352 -15.415  -1.642  0.00  0.00    -0.271 OA
ATOM     25  N   UNL d   1      25.448 -16.173  -2.595  0.00  0.00    -0.354 N 
ATOM     26  H   UNL d   1      24.854 -16.243  -3.406  0.00  0.00     0.162 HD
BRANCH  25  27
ATOM     27  C   UNL d   1      24.895 -16.518  -1.296  0.00  0.00     0.084 C 
ATOM     28  C   UNL d   1      23.354 -16.556  -1.338  0.00  0.00     0.025 C 
ATOM     29  C   UNL d   1      22.753 -17.131  -0.064  0.00  0.00     0.002 C 
ATOM     30  C   UNL d   1      23.376 -18.478   0.284  0.00  0.00     0.000 C 
ATOM     31  C   UNL d   1      24.886 -18.358   0.454  0.00  0.00     0.002 C 
ATOM     32  C   UNL d   1      25.535 -17.820  -0.802  0.00  0.00     0.025 C 
ENDBRANCH  25  27
ENDBRANCH   1  23
BRANCH   1  33
ATOM     33  C   UNL d   1      27.075 -13.955  -4.380  0.00  0.00     0.040 A 
ATOM     34  C   UNL d   1      28.119 -12.991  -4.394  0.00  0.00     0.080 A 
ATOM     35  C   UNL d   1      27.886 -11.670  -4.728  0.00  0.00     0.073 A 
ATOM     36  C   UNL d   1      26.593 -11.283  -5.042  0.00  0.00     0.071 A 
ATOM     37  C   UNL d   1      25.530 -12.183  -4.985  0.00  0.00     0.073 A 
ATOM     38  C   UNL d   1      25.773 -13.519  -4.663  0.00  0.00     0.080 A 
BRANCH  34  39
ATOM     39  O   UNL d   1      29.442 -13.303  -4.188  0.00  0.00    -0.360 OA
ATOM     40  H   UNL d   1      29.787 -13.701  -4.999  0.00  0.00     0.217 HD
ENDBRANCH  34  39
BRANCH  36  41
ATOM     41  O   UNL d   1      26.337 -10.002  -5.435  0.00  0.00    -0.361 OA
ATOM     42  H   UNL d   1      25.460  -9.765  -5.087  0.00  0.00     0.217 HD
ENDBRANCH  36  41
BRANCH  38  43
ATOM     43  O   UNL d   1      24.744 -14.422  -4.639  0.00  0.00    -0.360 OA
ATOM     44  H   UNL d   1      23.955 -13.999  -5.021  0.00  0.00     0.217 HD
ENDBRANCH  38  43
ENDBRANCH   1  33
TORSDOF 13
ENDMDL
MODEL 5
REMARK VINA RESULT:    -6.976      3.590      8.125
REMARK INTER + INTRA:         -15.522
REMARK INTER:                 -10.854
REMARK INTRA:                  -4.668
REMARK CONF_INDEPENDENT:        3.878
REMARK UNBOUND:                -4.668
REMARK  13 active torsions:
REMARK  status: ('A' for Active; 'I' for Inactive)
REMARK    1  A    between atoms: C_2  and  C_3 
REMARK    2  A    between atoms: C_3  and  N_4 
REMARK       I    between atoms: N_4  and  C_5 
REMARK    3  A    between atoms: N_4  and  C_21 
REMARK    4  A    between atoms: C_5  and  C_7 
REMARK    5  A    between atoms: C_7  and  O_8 
REMARK    6  A    between atoms: C_7  and  C_9 
REMARK    7  A    between atoms: C_7  and  C_15 
REMARK    8  A    between atoms: C_21  and  C_22 
REMARK    9  A    between atoms: C_21  and  C_31 
REMARK       I    between atoms: C_22  and  N_24 
REMARK   10  A    between atoms: N_24  and  C_25 
REMARK   11  A    between atoms: C_32  and  O_33 
REMARK   12  A    between atoms: C_35  and  O_36 
REMARK   13  A    between atoms: C_38  and  O_39 
ROOT
ATOM      1  C   UNL d   1      29.810 -13.771   1.006  0.00  0.00     0.218 C 
ENDROOT
BRANCH   1   2
ATOM      2  N   UNL d   1      28.661 -14.453   0.267  0.00  0.00    -0.331 N 
ATOM      3  C   UNL d   1      28.913 -14.832  -1.085  0.00  0.00     0.265 C 
ATOM      4  O   UNL d   1      29.952 -14.509  -1.656  0.00  0.00    -0.269 OA
BRANCH   2   5
ATOM      5  C   UNL d   1      27.314 -14.192   0.888  0.00  0.00     0.127 C 
BRANCH   5   6
ATOM      6  C   UNL d   1      26.713 -12.823   0.847  0.00  0.00     0.015 C 
ATOM      7  C   UNL d   1      26.667 -11.840   1.962  0.00  0.00     0.006 C 
ENDBRANCH   5   6
ENDBRANCH   2   5
BRANCH   3   8
ATOM      8  C   UNL d   1      27.853 -15.607  -1.935  0.00  0.00     0.194 C 
BRANCH   8   9
ATOM      9  O   UNL d   1      28.534 -16.358  -2.960  0.00  0.00    -0.371 OA
ATOM     10  H   UNL d   1      29.492 -16.207  -2.887  0.00  0.00     0.212 HD
ENDBRANCH   8   9
BRANCH   8  11
ATOM     11  C   UNL d   1      26.956 -16.360  -0.920  0.00  0.00    -0.010 C 
ATOM     12  C   UNL d   1      27.517 -17.448  -0.179  0.00  0.00     0.011 C 
ATOM     13  C   UNL d   1      26.710 -18.398   0.425  0.00  0.00     0.001 C 
ATOM     14  C   UNL d   1      25.338 -18.200   0.433  0.00  0.00     0.000 C 
ATOM     15  C   UNL d   1      24.773 -17.085  -0.204  0.00  0.00     0.001 C 
ATOM     16  C   UNL d   1      25.573 -16.156  -0.876  0.00  0.00     0.011 C 
ENDBRANCH   8  11
BRANCH   8  17
ATOM     17  C   UNL d   1      26.932 -14.714  -2.742  0.00  0.00    -0.010 A 
ATOM     18  C   UNL d   1      26.741 -13.366  -2.392  0.00  0.00     0.011 A 
ATOM     19  C   UNL d   1      25.865 -12.582  -3.114  0.00  0.00     0.001 A 
ATOM     20  C   UNL d   1      25.252 -13.107  -4.250  0.00  0.00     0.000 A 
ATOM     21  C   UNL d   1      25.481 -14.422  -4.645  0.00  0.00     0.001 A 
ATOM     22  C   UNL d   1      26.321 -15.217  -3.897  0.00  0.00     0.011 A 
ENDBRANCH   8  17
ENDBRANCH   3   8
ENDBRANCH   1   2
BRANCH   1  23
ATOM     23  C   UNL d   1      29.456 -13.563   2.508  0.00  0.00     0.245 C 
ATOM     24  O   UNL d   1      29.685 -12.508   3.072  0.00  0.00    -0.271 OA
ATOM     25  N   UNL d   1      28.902 -14.624   3.208  0.00  0.00    -0.354 N 
ATOM     26  H   UNL d   1      28.563 -15.454   2.747  0.00  0.00     0.162 HD
BRANCH  25  27
ATOM     27  C   UNL d   1      28.690 -14.489   4.640  0.00  0.00     0.084 C 
ATOM     28  C   UNL d   1      30.030 -14.442   5.400  0.00  0.00     0.025 C 
ATOM     29  C   UNL d   1      29.853 -14.075   6.865  0.00  0.00     0.002 C 
ATOM     30  C   UNL d   1      29.030 -12.801   7.023  0.00  0.00     0.000 C 
ATOM     31  C   UNL d   1      27.658 -12.949   6.376  0.00  0.00     0.002 C 
ATOM     32  C   UNL d   1      27.782 -13.283   4.906  0.00  0.00     0.025 C 
ENDBRANCH  25  27
ENDBRANCH   1  23
BRANCH   1  33
ATOM     33  C   UNL d   1      31.135 -14.534   1.028  0.00  0.00     0.040 A 
ATOM     34  C   UNL d   1      31.174 -15.937   0.812  0.00  0.00     0.080 A 
ATOM     35  C   UNL d   1      32.366 -16.636   0.774  0.00  0.00     0.073 A 
ATOM     36  C   UNL d   1      33.549 -15.940   0.968  0.00  0.00     0.071 A 
ATOM     37  C   UNL d   1      33.553 -14.573   1.240  0.00  0.00     0.073 A 
ATOM     38  C   UNL d   1      32.348 -13.870   1.260  0.00  0.00     0.080 A 
BRANCH  34  39
ATOM     39  O   UNL d   1      30.062 -16.691   0.519  0.00  0.00    -0.360 OA
ATOM     40  H   UNL d   1      29.606 -16.888   1.347  0.00  0.00     0.217 HD
ENDBRANCH  34  39
BRANCH  36  41
ATOM     41  O   UNL d   1      34.748 -16.586   0.877  0.00  0.00    -0.361 OA
ATOM     42  H   UNL d   1      35.257 -16.360   1.674  0.00  0.00     0.217 HD
ENDBRANCH  36  41
BRANCH  38  43
ATOM     43  O   UNL d   1      32.340 -12.520   1.490  0.00  0.00    -0.360 OA
ATOM     44  H   UNL d   1      31.649 -12.323   2.147  0.00  0.00     0.217 HD
ENDBRANCH  38  43
ENDBRANCH   1  33
TORSDOF 13
ENDMDL
MODEL 6
REMARK VINA RESULT:    -6.801      2.300      6.061
REMARK INTER + INTRA:         -15.755
REMARK INTER:                 -10.679
REMARK INTRA:                  -5.076
REMARK CONF_INDEPENDENT:        3.878
REMARK UNBOUND:                -5.076
REMARK  13 active torsions:
REMARK  status: ('A' for Active; 'I' for Inactive)
REMARK    1  A    between atoms: C_2  and  C_3 
REMARK    2  A    between atoms: C_3  and  N_4 
REMARK       I    between atoms: N_4  and  C_5 
REMARK    3  A    between atoms: N_4  and  C_21 
REMARK    4  A    between atoms: C_5  and  C_7 
REMARK    5  A    between atoms: C_7  and  O_8 
REMARK    6  A    between atoms: C_7  and  C_9 
REMARK    7  A    between atoms: C_7  and  C_15 
REMARK    8  A    between atoms: C_21  and  C_22 
REMARK    9  A    between atoms: C_21  and  C_31 
REMARK       I    between atoms: C_22  and  N_24 
REMARK   10  A    between atoms: N_24  and  C_25 
REMARK   11  A    between atoms: C_32  and  O_33 
REMARK   12  A    between atoms: C_35  and  O_36 
REMARK   13  A    between atoms: C_38  and  O_39 
ROOT
ATOM      1  C   UNL d   1      26.578 -13.412  -4.893  0.00  0.00     0.218 C 
ENDROOT
BRANCH   1   2
ATOM      2  N   UNL d   1      28.065 -13.705  -4.714  0.00  0.00    -0.331 N 
ATOM      3  C   UNL d   1      28.486 -15.041  -4.985  0.00  0.00     0.265 C 
ATOM      4  O   UNL d   1      27.671 -15.931  -5.223  0.00  0.00    -0.269 OA
BRANCH   2   5
ATOM      5  C   UNL d   1      28.769 -12.707  -3.832  0.00  0.00     0.127 C 
BRANCH   5   6
ATOM      6  C   UNL d   1      29.022 -13.016  -2.391  0.00  0.00     0.015 C 
ATOM      7  C   UNL d   1      28.753 -12.123  -1.231  0.00  0.00     0.006 C 
ENDBRANCH   5   6
ENDBRANCH   2   5
BRANCH   3   8
ATOM      8  C   UNL d   1      29.990 -15.462  -4.916  0.00  0.00     0.194 C 
BRANCH   8   9
ATOM      9  O   UNL d   1      30.791 -14.440  -5.545  0.00  0.00    -0.371 OA
ATOM     10  H   UNL d   1      31.655 -14.813  -5.789  0.00  0.00     0.212 HD
ENDBRANCH   8   9
BRANCH   8  11
ATOM     11  C   UNL d   1      30.266 -15.829  -3.436  0.00  0.00    -0.010 C 
ATOM     12  C   UNL d   1      31.609 -15.761  -2.948  0.00  0.00     0.011 C 
ATOM     13  C   UNL d   1      31.991 -16.435  -1.799  0.00  0.00     0.001 C 
ATOM     14  C   UNL d   1      31.016 -17.059  -1.037  0.00  0.00     0.000 C 
ATOM     15  C   UNL d   1      29.675 -17.053  -1.448  0.00  0.00     0.001 C 
ATOM     16  C   UNL d   1      29.288 -16.435  -2.641  0.00  0.00     0.011 C 
ENDBRANCH   8  11
BRANCH   8  17
ATOM     17  C   UNL d   1      30.329 -16.691  -5.735  0.00  0.00    -0.010 A 
ATOM     18  C   UNL d   1      30.067 -17.982  -5.245  0.00  0.00     0.011 A 
ATOM     19  C   UNL d   1      30.424 -19.089  -5.987  0.00  0.00     0.001 A 
ATOM     20  C   UNL d   1      30.949 -18.915  -7.266  0.00  0.00     0.000 A 
ATOM     21  C   UNL d   1      31.155 -17.643  -7.790  0.00  0.00     0.001 A 
ATOM     22  C   UNL d   1      30.841 -16.538  -7.030  0.00  0.00     0.011 A 
ENDBRANCH   8  17
ENDBRANCH   3   8
ENDBRANCH   1   2
BRANCH   1  23
ATOM     23  C   UNL d   1      25.727 -14.217  -3.868  0.00  0.00     0.245 C 
ATOM     24  O   UNL d   1      24.519 -14.080  -3.802  0.00  0.00    -0.271 OA
ATOM     25  N   UNL d   1      26.382 -15.078  -3.000  0.00  0.00    -0.354 N 
ATOM     26  H   UNL d   1      27.350 -15.330  -3.121  0.00  0.00     0.162 HD
BRANCH  25  27
ATOM     27  C   UNL d   1      25.618 -15.736  -1.952  0.00  0.00     0.084 C 
ATOM     28  C   UNL d   1      24.780 -16.899  -2.519  0.00  0.00     0.025 C 
ATOM     29  C   UNL d   1      24.150 -17.747  -1.424  0.00  0.00     0.002 C 
ATOM     30  C   UNL d   1      25.190 -18.200  -0.405  0.00  0.00     0.000 C 
ATOM     31  C   UNL d   1      25.892 -17.005   0.230  0.00  0.00     0.002 C 
ATOM     32  C   UNL d   1      26.564 -16.147  -0.818  0.00  0.00     0.025 C 
ENDBRANCH  25  27
ENDBRANCH   1  23
BRANCH   1  33
ATOM     33  C   UNL d   1      26.154 -11.957  -4.682  0.00  0.00     0.040 A 
ATOM     34  C   UNL d   1      25.862 -11.464  -3.382  0.00  0.00     0.080 A 
ATOM     35  C   UNL d   1      25.531 -10.140  -3.163  0.00  0.00     0.073 A 
ATOM     36  C   UNL d   1      25.470  -9.283  -4.251  0.00  0.00     0.071 A 
ATOM     37  C   UNL d   1      25.693  -9.738  -5.550  0.00  0.00     0.073 A 
ATOM     38  C   UNL d   1      26.044 -11.072  -5.763  0.00  0.00     0.080 A 
BRANCH  34  39
ATOM     39  O   UNL d   1      25.988 -12.217  -2.238  0.00  0.00    -0.360 OA
ATOM     40  H   UNL d   1      25.235 -12.820  -2.191  0.00  0.00     0.217 HD
ENDBRANCH  34  39
BRANCH  36  41
ATOM     41  O   UNL d   1      25.206  -7.957  -4.066  0.00  0.00    -0.361 OA
ATOM     42  H   UNL d   1      24.405  -7.898  -3.516  0.00  0.00     0.217 HD
ENDBRANCH  36  41
BRANCH  38  43
ATOM     43  O   UNL d   1      26.301 -11.524  -7.029  0.00  0.00    -0.360 OA
ATOM     44  H   UNL d   1      25.803 -10.974  -7.660  0.00  0.00     0.217 HD
ENDBRANCH  38  43
ENDBRANCH   1  33
TORSDOF 13
ENDMDL
MODEL 7
REMARK VINA RESULT:    -6.632      2.381      7.417
REMARK INTER + INTRA:         -15.545
REMARK INTER:                 -10.510
REMARK INTRA:                  -5.036
REMARK CONF_INDEPENDENT:        3.878
REMARK UNBOUND:                -5.036
REMARK  13 active torsions:
REMARK  status: ('A' for Active; 'I' for Inactive)
REMARK    1  A    between atoms: C_2  and  C_3 
REMARK    2  A    between atoms: C_3  and  N_4 
REMARK       I    between atoms: N_4  and  C_5 
REMARK    3  A    between atoms: N_4  and  C_21 
REMARK    4  A    between atoms: C_5  and  C_7 
REMARK    5  A    between atoms: C_7  and  O_8 
REMARK    6  A    between atoms: C_7  and  C_9 
REMARK    7  A    between atoms: C_7  and  C_15 
REMARK    8  A    between atoms: C_21  and  C_22 
REMARK    9  A    between atoms: C_21  and  C_31 
REMARK       I    between atoms: C_22  and  N_24 
REMARK   10  A    between atoms: N_24  and  C_25 
REMARK   11  A    between atoms: C_32  and  O_33 
REMARK   12  A    between atoms: C_35  and  O_36 
REMARK   13  A    between atoms: C_38  and  O_39 
ROOT
ATOM      1  C   UNL d   1      27.638 -15.823  -1.860  0.00  0.00     0.218 C 
ENDROOT
BRANCH   1   2
ATOM      2  N   UNL d   1      27.398 -14.849  -3.010  0.00  0.00    -0.331 N 
ATOM      3  C   UNL d   1      26.582 -13.716  -2.723  0.00  0.00     0.265 C 
ATOM      4  O   UNL d   1      26.001 -13.604  -1.645  0.00  0.00    -0.269 OA
BRANCH   2   5
ATOM      5  C   UNL d   1      27.640 -15.457  -4.368  0.00  0.00     0.127 C 
BRANCH   5   6
ATOM      6  C   UNL d   1      29.012 -15.898  -4.766  0.00  0.00     0.015 C 
ATOM      7  C   UNL d   1      29.656 -15.705  -6.094  0.00  0.00     0.006 C 
ENDBRANCH   5   6
ENDBRANCH   2   5
BRANCH   3   8
ATOM      8  C   UNL d   1      26.317 -12.599  -3.785  0.00  0.00     0.194 C 
BRANCH   8   9
ATOM      9  O   UNL d   1      25.183 -12.980  -4.591  0.00  0.00    -0.371 OA
ATOM     10  H   UNL d   1      24.706 -12.181  -4.874  0.00  0.00     0.212 HD
ENDBRANCH   8   9
BRANCH   8  11
ATOM     11  C   UNL d   1      26.268 -11.263  -3.001  0.00  0.00    -0.010 C 
ATOM     12  C   UNL d   1      25.530 -10.168  -3.551  0.00  0.00     0.011 C 
ATOM     13  C   UNL d   1      25.760  -8.866  -3.136  0.00  0.00     0.001 C 
ATOM     14  C   UNL d   1      26.613  -8.648  -2.065  0.00  0.00     0.000 C 
ATOM     15  C   UNL d   1      27.272  -9.721  -1.447  0.00  0.00     0.001 C 
ATOM     16  C   UNL d   1      27.101 -11.032  -1.902  0.00  0.00     0.011 C 
ENDBRANCH   8  11
BRANCH   8  17
ATOM     17  C   UNL d   1      27.416 -12.452  -4.817  0.00  0.00    -0.010 A 
ATOM     18  C   UNL d   1      27.112 -12.292  -6.180  0.00  0.00     0.011 A 
ATOM     19  C   UNL d   1      28.128 -12.204  -7.109  0.00  0.00     0.001 A 
ATOM     20  C   UNL d   1      29.452 -12.171  -6.676  0.00  0.00     0.000 A 
ATOM     21  C   UNL d   1      29.766 -12.264  -5.324  0.00  0.00     0.001 A 
ATOM     22  C   UNL d   1      28.752 -12.399  -4.401  0.00  0.00     0.011 A 
ENDBRANCH   8  17
ENDBRANCH   3   8
ENDBRANCH   1   2
BRANCH   1  23
ATOM     23  C   UNL d   1      28.235 -15.086  -0.625  0.00  0.00     0.245 C 
ATOM     24  O   UNL d   1      29.410 -15.201  -0.326  0.00  0.00    -0.271 OA
ATOM     25  N   UNL d   1      27.387 -14.315   0.156  0.00  0.00    -0.354 N 
ATOM     26  H   UNL d   1      26.453 -14.076  -0.139  0.00  0.00     0.162 HD
BRANCH  25  27
ATOM     27  C   UNL d   1      27.899 -13.729   1.384  0.00  0.00     0.084 C 
ATOM     28  C   UNL d   1      27.035 -12.534   1.834  0.00  0.00     0.025 C 
ATOM     29  C   UNL d   1      27.405 -12.043   3.225  0.00  0.00     0.002 C 
ATOM     30  C   UNL d   1      27.414 -13.187   4.233  0.00  0.00     0.000 C 
ATOM     31  C   UNL d   1      28.390 -14.280   3.814  0.00  0.00     0.002 C 
ATOM     32  C   UNL d   1      28.044 -14.825   2.446  0.00  0.00     0.025 C 
ENDBRANCH  25  27
ENDBRANCH   1  23
BRANCH   1  33
ATOM     33  C   UNL d   1      26.397 -16.534  -1.317  0.00  0.00     0.040 A 
ATOM     34  C   UNL d   1      25.139 -16.401  -1.962  0.00  0.00     0.080 A 
ATOM     35  C   UNL d   1      24.018 -17.078  -1.519  0.00  0.00     0.073 A 
ATOM     36  C   UNL d   1      24.134 -17.894  -0.405  0.00  0.00     0.071 A 
ATOM     37  C   UNL d   1      25.335 -18.009   0.292  0.00  0.00     0.073 A 
ATOM     38  C   UNL d   1      26.468 -17.336  -0.170  0.00  0.00     0.080 A 
BRANCH  34  39
ATOM     39  O   UNL d   1      24.953 -15.689  -3.124  0.00  0.00    -0.360 OA
ATOM     40  H   UNL d   1      24.699 -14.788  -2.887  0.00  0.00     0.217 HD
ENDBRANCH  34  39
BRANCH  36  41
ATOM     41  O   UNL d   1      23.064 -18.625   0.024  0.00  0.00    -0.361 OA
ATOM     42  H   UNL d   1      23.409 -19.325   0.605  0.00  0.00     0.217 HD
ENDBRANCH  36  41
BRANCH  38  43
ATOM     43  O   UNL d   1      27.663 -17.468   0.484  0.00  0.00    -0.360 OA
ATOM     44  H   UNL d   1      27.985 -16.580   0.720  0.00  0.00     0.217 HD
ENDBRANCH  38  43
ENDBRANCH   1  33
TORSDOF 13
ENDMDL
MODEL 8
REMARK VINA RESULT:    -6.463      2.802      6.880
REMARK INTER + INTRA:         -15.571
REMARK INTER:                 -10.341
REMARK INTRA:                  -5.230
REMARK CONF_INDEPENDENT:        3.878
REMARK UNBOUND:                -5.230
REMARK  13 active torsions:
REMARK  status: ('A' for Active; 'I' for Inactive)
REMARK    1  A    between atoms: C_2  and  C_3 
REMARK    2  A    between atoms: C_3  and  N_4 
REMARK       I    between atoms: N_4  and  C_5 
REMARK    3  A    between atoms: N_4  and  C_21 
REMARK    4  A    between atoms: C_5  and  C_7 
REMARK    5  A    between atoms: C_7  and  O_8 
REMARK    6  A    between atoms: C_7  and  C_9 
REMARK    7  A    between atoms: C_7  and  C_15 
REMARK    8  A    between atoms: C_21  and  C_22 
REMARK    9  A    between atoms: C_21  and  C_31 
REMARK       I    between atoms: C_22  and  N_24 
REMARK   10  A    between atoms: N_24  and  C_25 
REMARK   11  A    between atoms: C_32  and  O_33 
REMARK   12  A    between atoms: C_35  and  O_36 
REMARK   13  A    between atoms: C_38  and  O_39 
ROOT
ATOM      1  C   UNL d   1      26.445 -13.146  -4.639  0.00  0.00     0.218 C 
ENDROOT
BRANCH   1   2
ATOM      2  N   UNL d   1      27.916 -13.519  -4.808  0.00  0.00    -0.331 N 
ATOM      3  C   UNL d   1      28.185 -14.781  -5.415  0.00  0.00     0.265 C 
ATOM      4  O   UNL d   1      27.280 -15.575  -5.666  0.00  0.00    -0.269 OA
BRANCH   2   5
ATOM      5  C   UNL d   1      28.836 -12.751  -3.895  0.00  0.00     0.127 C 
BRANCH   5   6
ATOM      6  C   UNL d   1      29.517 -11.509  -4.378  0.00  0.00     0.015 C 
ATOM      7  C   UNL d   1      30.522 -10.703  -3.634  0.00  0.00     0.006 C 
ENDBRANCH   5   6
ENDBRANCH   2   5
BRANCH   3   8
ATOM      8  C   UNL d   1      29.644 -15.256  -5.719  0.00  0.00     0.194 C 
BRANCH   8   9
ATOM      9  O   UNL d   1      29.612 -16.644  -6.109  0.00  0.00    -0.371 OA
ATOM     10  H   UNL d   1      28.862 -17.084  -5.673  0.00  0.00     0.212 HD
ENDBRANCH   8   9
BRANCH   8  11
ATOM     11  C   UNL d   1      30.239 -14.213  -6.698  0.00  0.00    -0.010 C 
ATOM     12  C   UNL d   1      29.396 -13.166  -7.187  0.00  0.00     0.011 C 
ATOM     13  C   UNL d   1      29.719 -12.459  -8.334  0.00  0.00     0.001 C 
ATOM     14  C   UNL d   1      30.954 -12.675  -8.925  0.00  0.00     0.000 C 
ATOM     15  C   UNL d   1      31.840 -13.629  -8.402  0.00  0.00     0.001 C 
ATOM     16  C   UNL d   1      31.495 -14.398  -7.286  0.00  0.00     0.011 C 
ENDBRANCH   8  11
BRANCH   8  17
ATOM     17  C   UNL d   1      30.554 -15.278  -4.509  0.00  0.00    -0.010 A 
ATOM     18  C   UNL d   1      31.561 -14.312  -4.342  0.00  0.00     0.011 A 
ATOM     19  C   UNL d   1      32.408 -14.377  -3.254  0.00  0.00     0.001 A 
ATOM     20  C   UNL d   1      32.191 -15.342  -2.274  0.00  0.00     0.000 A 
ATOM     21  C   UNL d   1      31.158 -16.266  -2.393  0.00  0.00     0.001 A 
ATOM     22  C   UNL d   1      30.342 -16.230  -3.503  0.00  0.00     0.011 A 
ENDBRANCH   8  17
ENDBRANCH   3   8
ENDBRANCH   1   2
BRANCH   1  23
ATOM     23  C   UNL d   1      25.816 -13.906  -3.434  0.00  0.00     0.245 C 
ATOM     24  O   UNL d   1      24.801 -13.506  -2.893  0.00  0.00    -0.271 OA
ATOM     25  N   UNL d   1      26.460 -15.040  -2.962  0.00  0.00    -0.354 N 
ATOM     26  H   UNL d   1      27.209 -15.484  -3.469  0.00  0.00     0.162 HD
BRANCH  25  27
ATOM     27  C   UNL d   1      25.959 -15.683  -1.757  0.00  0.00     0.084 C 
ATOM     28  C   UNL d   1      24.816 -16.664  -2.084  0.00  0.00     0.025 C 
ATOM     29  C   UNL d   1      24.425 -17.518  -0.887  0.00  0.00     0.002 C 
ATOM     30  C   UNL d   1      25.641 -18.200  -0.270  0.00  0.00     0.000 C 
ATOM     31  C   UNL d   1      26.683 -17.176   0.165  0.00  0.00     0.002 C 
ATOM     32  C   UNL d   1      27.130 -16.323  -1.001  0.00  0.00     0.025 C 
ENDBRANCH  25  27
ENDBRANCH   1  23
BRANCH   1  33
ATOM     33  C   UNL d   1      26.159 -11.672  -4.352  0.00  0.00     0.040 A 
ATOM     34  C   UNL d   1      25.601 -10.829  -5.350  0.00  0.00     0.080 A 
ATOM     35  C   UNL d   1      25.284  -9.508  -5.093  0.00  0.00     0.073 A 
ATOM     36  C   UNL d   1      25.535  -8.999  -3.829  0.00  0.00     0.071 A 
ATOM     37  C   UNL d   1      26.135  -9.775  -2.838  0.00  0.00     0.073 A 
ATOM     38  C   UNL d   1      26.436 -11.112  -3.097  0.00  0.00     0.080 A 
BRANCH  34  39
ATOM     39  O   UNL d   1      25.233 -11.271  -6.598  0.00  0.00    -0.360 OA
ATOM     40  H   UNL d   1      24.280 -11.430  -6.592  0.00  0.00     0.217 HD
ENDBRANCH  34  39
BRANCH  36  41
ATOM     41  O   UNL d   1      25.180  -7.718  -3.522  0.00  0.00    -0.361 OA
ATOM     42  H   UNL d   1      24.405  -7.767  -2.936  0.00  0.00     0.217 HD
ENDBRANCH  36  41
BRANCH  38  43
ATOM     43  O   UNL d   1      26.992 -11.896  -2.121  0.00  0.00    -0.360 OA
ATOM     44  H   UNL d   1      26.299 -12.479  -1.763  0.00  0.00     0.217 HD
ENDBRANCH  38  43
ENDBRANCH   1  33
TORSDOF 13
ENDMDL
MODEL 9
REMARK VINA RESULT:    -6.180      2.353      6.791
REMARK INTER + INTRA:         -15.634
REMARK INTER:                 -10.058
REMARK INTRA:                  -5.576
REMARK CONF_INDEPENDENT:        3.878
REMARK UNBOUND:                -5.576
REMARK  13 active torsions:
REMARK  status: ('A' for Active; 'I' for Inactive)
REMARK    1  A    between atoms: C_2  and  C_3 
REMARK    2  A    between atoms: C_3  and  N_4 
REMARK       I    between atoms: N_4  and  C_5 
REMARK    3  A    between atoms: N_4  and  C_21 
REMARK    4  A    between atoms: C_5  and  C_7 
REMARK    5  A    between atoms: C_7  and  O_8 
REMARK    6  A    between atoms: C_7  and  C_9 
REMARK    7  A    between atoms: C_7  and  C_15 
REMARK    8  A    between atoms: C_21  and  C_22 
REMARK    9  A    between atoms: C_21  and  C_31 
REMARK       I    between atoms: C_22  and  N_24 
REMARK   10  A    between atoms: N_24  and  C_25 
REMARK   11  A    between atoms: C_32  and  O_33 
REMARK   12  A    between atoms: C_35  and  O_36 
REMARK   13  A    between atoms: C_38  and  O_39 
ROOT
ATOM      1  C   UNL d   1      25.740 -15.301  -0.928  0.00  0.00     0.218 C 
ENDROOT
BRANCH   1   2
ATOM      2  N   UNL d   1      27.191 -15.551  -0.523  0.00  0.00    -0.331 N 
ATOM      3  C   UNL d   1      27.971 -16.345  -1.415  0.00  0.00     0.265 C 
ATOM      4  O   UNL d   1      27.462 -16.902  -2.385  0.00  0.00    -0.269 OA
BRANCH   2   5
ATOM      5  C   UNL d   1      27.445 -15.345   0.948  0.00  0.00     0.127 C 
BRANCH   5   6
ATOM      6  C   UNL d   1      27.688 -13.971   1.489  0.00  0.00     0.015 C 
ATOM      7  C   UNL d   1      26.655 -12.957   1.833  0.00  0.00     0.006 C 
ENDBRANCH   5   6
ENDBRANCH   2   5
BRANCH   3   8
ATOM      8  C   UNL d   1      29.491 -16.615  -1.164  0.00  0.00     0.194 C 
BRANCH   8   9
ATOM      9  O   UNL d   1      29.623 -17.636  -0.154  0.00  0.00    -0.371 OA
ATOM     10  H   UNL d   1      28.750 -17.825   0.230  0.00  0.00     0.212 HD
ENDBRANCH   8   9
BRANCH   8  11
ATOM     11  C   UNL d   1      30.121 -16.850  -2.560  0.00  0.00    -0.010 C 
ATOM     12  C   UNL d   1      29.799 -15.949  -3.622  0.00  0.00     0.011 C 
ATOM     13  C   UNL d   1      29.987 -16.304  -4.948  0.00  0.00     0.001 C 
ATOM     14  C   UNL d   1      30.637 -17.494  -5.234  0.00  0.00     0.000 C 
ATOM     15  C   UNL d   1      31.050 -18.349  -4.201  0.00  0.00     0.001 C 
ATOM     16  C   UNL d   1      30.804 -18.033  -2.862  0.00  0.00     0.011 C 
ENDBRANCH   8  11
BRANCH   8  17
ATOM     17  C   UNL d   1      30.234 -15.449  -0.546  0.00  0.00    -0.010 A 
ATOM     18  C   UNL d   1      30.098 -14.149  -1.063  0.00  0.00     0.011 A 
ATOM     19  C   UNL d   1      30.819 -13.108  -0.513  0.00  0.00     0.001 A 
ATOM     20  C   UNL d   1      31.600 -13.337   0.617  0.00  0.00     0.000 A 
ATOM     21  C   UNL d   1      31.694 -14.607   1.178  0.00  0.00     0.001 A 
ATOM     22  C   UNL d   1      31.011 -15.654   0.601  0.00  0.00     0.011 A 
ENDBRANCH   8  17
ENDBRANCH   3   8
ENDBRANCH   1   2
BRANCH   1  23
ATOM     23  C   UNL d   1      25.646 -14.888  -2.426  0.00  0.00     0.245 C 
ATOM     24  O   UNL d   1      25.155 -15.630  -3.258  0.00  0.00    -0.271 OA
ATOM     25  N   UNL d   1      26.169 -13.661  -2.805  0.00  0.00    -0.354 N 
ATOM     26  H   UNL d   1      26.445 -12.964  -2.133  0.00  0.00     0.162 HD
BRANCH  25  27
ATOM     27  C   UNL d   1      26.209 -13.319  -4.218  0.00  0.00     0.084 C 
ATOM     28  C   UNL d   1      25.906 -11.824  -4.438  0.00  0.00     0.025 C 
ATOM     29  C   UNL d   1      26.161 -11.385  -5.872  0.00  0.00     0.002 C 
ATOM     30  C   UNL d   1      27.557 -11.788  -6.336  0.00  0.00     0.000 C 
ATOM     31  C   UNL d   1      27.756 -13.296  -6.231  0.00  0.00     0.002 C 
ATOM     32  C   UNL d   1      27.545 -13.777  -4.813  0.00  0.00     0.025 C 
ENDBRANCH  25  27
ENDBRANCH   1  23
BRANCH   1  33
ATOM     33  C   UNL d   1      24.797 -16.499  -0.802  0.00  0.00     0.040 A 
ATOM     34  C   UNL d   1      25.265 -17.750  -0.318  0.00  0.00     0.080 A 
ATOM     35  C   UNL d   1      24.417 -18.827  -0.145  0.00  0.00     0.073 A 
ATOM     36  C   UNL d   1      23.078 -18.677  -0.470  0.00  0.00     0.071 A 
ATOM     37  C   UNL d   1      22.588 -17.485  -1.002  0.00  0.00     0.073 A 
ATOM     38  C   UNL d   1      23.445 -16.395  -1.158  0.00  0.00     0.080 A 
BRANCH  34  39
ATOM     39  O   UNL d   1      26.552 -17.961   0.116  0.00  0.00    -0.360 OA
ATOM     40  H   UNL d   1      27.098 -18.169  -0.653  0.00  0.00     0.217 HD
ENDBRANCH  34  39
BRANCH  36  41
ATOM     41  O   UNL d   1      22.201 -19.699  -0.255  0.00  0.00    -0.361 OA
ATOM     42  H   UNL d   1      22.666 -20.372   0.272  0.00  0.00     0.217 HD
ENDBRANCH  36  41
BRANCH  38  43
ATOM     43  O   UNL d   1      22.969 -15.207  -1.645  0.00  0.00    -0.360 OA
ATOM     44  H   UNL d   1      23.395 -15.033  -2.503  0.00  0.00     0.217 HD
ENDBRANCH  38  43
ENDBRANCH   1  33
TORSDOF 13
ENDMDL
