MODEL 1
REMARK VINA RESULT:   -20.088      0.000      0.000
REMARK INTER + INTRA:         -22.882
REMARK INTER:                 -22.474
REMARK INTRA:                  -0.408
REMARK CONF_INDEPENDENT:        2.386
REMARK UNBOUND:                -0.408
REMARK  8 active torsions:
REMARK  status: ('A' for Active; 'I' for Inactive)
REMARK    1  A    between atoms: C_2  and  C_27 
REMARK    2  A    between atoms: N_3  and  N_4 
REMARK       I    between atoms: N_4  and  C_5 
REMARK    3  A    between atoms: C_5  and  C_7 
REMARK    4  A    between atoms: C_9  and  C_10 
REMARK    5  A    between atoms: C_13  and  O_14 
REMARK    6  A    between atoms: O_14  and  C_15 
REMARK    7  A    between atoms: C_15  and  C_16 
REMARK    8  A    between atoms: C_32  and  O_33 
ROOT
ATOM      1  C   UNL d   1      22.793 -16.331  -1.295  0.00  0.00     0.121 A 
ATOM      2  C   UNL d   1      24.137 -16.373  -1.620  0.00  0.00     0.071 A 
ATOM      3  C   UNL d   1      24.414 -15.189  -2.353  0.00  0.00     0.089 A 
ATOM      4  N   UNL d   1      23.320 -14.419  -2.430  0.00  0.00    -0.174 NA
ATOM      5  N   UNL d   1      22.351 -15.147  -1.832  0.00  0.00    -0.272 N 
ATOM      6  H   UNL d   1      21.407 -14.772  -1.813  0.00  0.00     0.189 HD
ENDROOT
BRANCH   1   7
ATOM      7  C   UNL d   1      21.945 -17.305  -0.640  0.00  0.00     0.289 C 
ATOM      8  N   UNL d   1      20.840 -17.696  -1.390  0.00  0.00    -0.241 N 
ATOM      9  H   UNL d   1      20.795 -17.398  -2.354  0.00  0.00     0.192 HD
ATOM     10  O   UNL d   1      22.216 -17.733   0.485  0.00  0.00    -0.264 OA
BRANCH   8  11
ATOM     11  N   UNL d   1      19.904 -18.575  -0.898  0.00  0.00    -0.176 NA
ATOM     12  C   UNL d   1      20.268 -19.654  -0.250  0.00  0.00     0.064 C 
ATOM     13  C   UNL d   1      21.703 -20.074   0.006  0.00  0.00     0.073 C 
BRANCH  12  14
ATOM     14  C   UNL d   1      19.178 -20.561   0.284  0.00  0.00     0.023 A 
ATOM     15  C   UNL d   1      18.080 -20.844  -0.544  0.00  0.00     0.016 A 
ATOM     16  C   UNL d   1      16.948 -21.494  -0.035  0.00  0.00     0.001 A 
ATOM     17  C   UNL d   1      16.926 -21.932   1.288  0.00  0.00     0.003 A 
ATOM     18  C   UNL d   1      18.034 -21.719   2.104  0.00  0.00     0.037 A 
ATOM     19  C   UNL d   1      19.154 -21.041   1.604  0.00  0.00     0.077 A 
BRANCH  19  20
ATOM     20  O   UNL d   1      20.207 -20.830   2.450  0.00  0.00    -0.360 OA
ATOM     21  H   UNL d   1      21.034 -20.788   1.944  0.00  0.00     0.217 HD
ENDBRANCH  19  20
ENDBRANCH  12  14
ENDBRANCH   8  11
ENDBRANCH   1   7
BRANCH   3  22
ATOM     22  C   UNL d   1      25.672 -14.850  -3.016  0.00  0.00    -0.005 A 
ATOM     23  C   UNL d   1      25.761 -14.696  -4.402  0.00  0.00     0.016 A 
ATOM     24  C   UNL d   1      26.999 -14.422  -5.004  0.00  0.00     0.037 A 
ATOM     25  C   UNL d   1      28.148 -14.238  -4.227  0.00  0.00     0.069 A 
ATOM     26  C   UNL d   1      28.054 -14.369  -2.843  0.00  0.00     0.037 A 
ATOM     27  C   UNL d   1      26.828 -14.677  -2.243  0.00  0.00     0.016 A 
BRANCH  25  28
ATOM     28  O   UNL d   1      29.292 -13.943  -4.920  0.00  0.00    -0.347 OA
BRANCH  28  29
ATOM     29  C   UNL d   1      30.483 -14.597  -4.477  0.00  0.00     0.216 C 
BRANCH  29  30
ATOM     30  C   UNL d   1      30.637 -15.937  -5.152  0.00  0.00    -0.012 A 
ATOM     31  C   UNL d   1      31.082 -15.994  -6.486  0.00  0.00     0.011 A 
ATOM     32  C   UNL d   1      31.098 -17.205  -7.182  0.00  0.00     0.001 A 
ATOM     33  C   UNL d   1      30.741 -18.384  -6.535  0.00  0.00     0.002 A 
ATOM     34  C   UNL d   1      30.331 -18.349  -5.203  0.00  0.00     0.024 A 
ATOM     35  C   UNL d   1      30.268 -17.134  -4.517  0.00  0.00     0.042 A 
ATOM     36 CL   UNL d   1      29.701 -17.168  -2.884  0.00  0.00    -0.084 Cl
ENDBRANCH  29  30
ENDBRANCH  28  29
ENDBRANCH  25  28
ENDBRANCH   3  22
TORSDOF 8
ENDMDL
MODEL 2
REMARK VINA RESULT:   -19.875      2.272      3.385
REMARK INTER + INTRA:         -22.638
REMARK INTER:                 -22.261
REMARK INTRA:                  -0.377
REMARK CONF_INDEPENDENT:        2.386
REMARK UNBOUND:                -0.377
REMARK  8 active torsions:
REMARK  status: ('A' for Active; 'I' for Inactive)
REMARK    1  A    between atoms: C_2  and  C_27 
REMARK    2  A    between atoms: N_3  and  N_4 
REMARK       I    between atoms: N_4  and  C_5 
REMARK    3  A    between atoms: C_5  and  C_7 
REMARK    4  A    between atoms: C_9  and  C_10 
REMARK    5  A    between atoms: C_13  and  O_14 
REMARK    6  A    between atoms: O_14  and  C_15 
REMARK    7  A    between atoms: C_15  and  C_16 
REMARK    8  A    between atoms: C_32  and  O_33 
ROOT
ATOM      1  C   UNL d   1      22.814 -16.355  -1.284  0.00  0.00     0.121 A 
ATOM      2  C   UNL d   1      24.156 -16.402  -1.612  0.00  0.00     0.071 A 
ATOM      3  C   UNL d   1      24.439 -15.213  -2.335  0.00  0.00     0.089 A 
ATOM      4  N   UNL d   1      23.349 -14.436  -2.403  0.00  0.00    -0.174 NA
ATOM      5  N   UNL d   1      22.378 -15.164  -1.809  0.00  0.00    -0.272 N 
ATOM      6  H   UNL d   1      21.436 -14.783  -1.784  0.00  0.00     0.189 HD
ENDROOT
BRANCH   1   7
ATOM      7  C   UNL d   1      21.961 -17.330  -0.636  0.00  0.00     0.289 C 
ATOM      8  N   UNL d   1      20.846 -17.699  -1.382  0.00  0.00    -0.241 N 
ATOM      9  H   UNL d   1      20.796 -17.386  -2.341  0.00  0.00     0.192 HD
ATOM     10  O   UNL d   1      22.237 -17.778   0.481  0.00  0.00    -0.264 OA
BRANCH   8  11
ATOM     11  N   UNL d   1      19.905 -18.575  -0.895  0.00  0.00    -0.176 NA
ATOM     12  C   UNL d   1      20.262 -19.650  -0.237  0.00  0.00     0.064 C 
ATOM     13  C   UNL d   1      21.695 -20.068   0.037  0.00  0.00     0.073 C 
BRANCH  12  14
ATOM     14  C   UNL d   1      19.167 -20.555   0.291  0.00  0.00     0.023 A 
ATOM     15  C   UNL d   1      18.072 -20.834  -0.544  0.00  0.00     0.016 A 
ATOM     16  C   UNL d   1      16.936 -21.481  -0.040  0.00  0.00     0.001 A 
ATOM     17  C   UNL d   1      16.906 -21.920   1.281  0.00  0.00     0.003 A 
ATOM     18  C   UNL d   1      18.010 -21.711   2.104  0.00  0.00     0.037 A 
ATOM     19  C   UNL d   1      19.135 -21.036   1.610  0.00  0.00     0.077 A 
BRANCH  19  20
ATOM     20  O   UNL d   1      20.184 -20.828   2.462  0.00  0.00    -0.360 OA
ATOM     21  H   UNL d   1      20.779 -20.155   2.095  0.00  0.00     0.217 HD
ENDBRANCH  19  20
ENDBRANCH  12  14
ENDBRANCH   8  11
ENDBRANCH   1   7
BRANCH   3  22
ATOM     22  C   UNL d   1      25.698 -14.876  -2.997  0.00  0.00    -0.005 A 
ATOM     23  C   UNL d   1      25.908 -15.120  -4.357  0.00  0.00     0.016 A 
ATOM     24  C   UNL d   1      27.150 -14.828  -4.943  0.00  0.00     0.037 A 
ATOM     25  C   UNL d   1      28.173 -14.236  -4.196  0.00  0.00     0.069 A 
ATOM     26  C   UNL d   1      27.956 -13.972  -2.844  0.00  0.00     0.037 A 
ATOM     27  C   UNL d   1      26.730 -14.293  -2.249  0.00  0.00     0.016 A 
BRANCH  25  28
ATOM     28  O   UNL d   1      29.329 -13.968  -4.879  0.00  0.00    -0.347 OA
BRANCH  28  29
ATOM     29  C   UNL d   1      29.628 -12.588  -5.096  0.00  0.00     0.216 C 
BRANCH  29  30
ATOM     30  C   UNL d   1      28.387 -11.832  -5.504  0.00  0.00    -0.012 A 
ATOM     31  C   UNL d   1      27.614 -11.189  -4.519  0.00  0.00     0.011 A 
ATOM     32  C   UNL d   1      26.389 -10.605  -4.844  0.00  0.00     0.001 A 
ATOM     33  C   UNL d   1      25.953 -10.589  -6.166  0.00  0.00     0.002 A 
ATOM     34  C   UNL d   1      26.725 -11.192  -7.158  0.00  0.00     0.024 A 
ATOM     35  C   UNL d   1      27.929 -11.819  -6.831  0.00  0.00     0.042 A 
ATOM     36 CL   UNL d   1      28.802 -12.588  -8.110  0.00  0.00    -0.084 Cl
ENDBRANCH  29  30
ENDBRANCH  28  29
ENDBRANCH  25  28
ENDBRANCH   3  22
TORSDOF 8
ENDMDL
