MODEL 1
REMARK VINA RESULT:    -8.171      0.000      0.000
REMARK INTER + INTRA:         -11.235
REMARK INTER:                 -10.259
REMARK INTRA:                  -0.976
REMARK CONF_INDEPENDENT:        2.088
REMARK UNBOUND:                -0.976
REMARK  7 active torsions:
REMARK  status: ('A' for Active; 'I' for Inactive)
REMARK       I    between atoms: N_1  and  C_2 
REMARK    1  A    between atoms: C_2  and  C_4 
REMARK    2  A    between atoms: C_4  and  C_5 
REMARK    3  A    between atoms: C_8  and  O_9 
REMARK    4  A    between atoms: O_9  and  C_10 
REMARK    5  A    between atoms: C_10  and  C_11 
REMARK       I    between atoms: C_11  and  N_13 
REMARK    6  A    between atoms: N_13  and  N_14 
REMARK    7  A    between atoms: N_14  and  C_15 
ROOT
ATOM      1  C   UNL d   1      25.840 -14.910  -1.594  0.00  0.00     0.280 C 
ENDROOT
BRANCH   1   2
ATOM      2  O   UNL d   1      25.711 -16.330  -1.718  0.00  0.00    -0.342 OA
BRANCH   2   3
ATOM      3  C   UNL d   1      24.566 -16.924  -1.255  0.00  0.00     0.069 A 
ATOM      4  C   UNL d   1      24.720 -18.214  -0.736  0.00  0.00     0.037 A 
ATOM      5  C   UNL d   1      23.612 -18.950  -0.303  0.00  0.00     0.010 A 
ATOM      6  C   UNL d   1      22.326 -18.393  -0.327  0.00  0.00    -0.049 A 
ATOM      7  C   UNL d   1      22.182 -17.084  -0.804  0.00  0.00     0.010 A 
ATOM      8  C   UNL d   1      23.292 -16.360  -1.269  0.00  0.00     0.037 A 
BRANCH   6   9
ATOM      9  C   UNL d   1      21.132 -19.157   0.207  0.00  0.00     0.141 C 
BRANCH   9  10
ATOM     10  C   UNL d   1      20.070 -19.487  -0.832  0.00  0.00     0.219 C 
ATOM     11  N   UNL d   1      18.788 -19.555  -0.376  0.00  0.00    -0.370 N 
ATOM     12  H   UNL d   1      18.081 -19.776  -1.067  0.00  0.00     0.159 HD
ATOM     13  H   UNL d   1      18.502 -19.361   0.573  0.00  0.00     0.159 HD
ATOM     14  O   UNL d   1      20.281 -19.700  -2.026  0.00  0.00    -0.273 OA
ENDBRANCH   9  10
ENDBRANCH   6   9
ENDBRANCH   2   3
ENDBRANCH   1   2
BRANCH   1  15
ATOM     15  C   UNL d   1      25.566 -14.204  -2.944  0.00  0.00     0.260 C 
ATOM     16  O   UNL d   1      24.932 -14.724  -3.863  0.00  0.00    -0.269 OA
ATOM     17  N   UNL d   1      26.110 -12.913  -3.064  0.00  0.00    -0.268 N 
ATOM     18  H   UNL d   1      26.385 -12.395  -2.236  0.00  0.00     0.190 HD
BRANCH  17  19
ATOM     19  N   UNL d   1      25.540 -12.114  -4.086  0.00  0.00    -0.298 N 
ATOM     20  H   UNL d   1      24.532 -12.284  -4.211  0.00  0.00     0.187 HD
BRANCH  19  21
ATOM     21  C   UNL d   1      26.247 -11.948  -5.298  0.00  0.00     0.049 A 
ATOM     22  C   UNL d   1      25.838 -10.904  -6.151  0.00  0.00     0.031 A 
ATOM     23  C   UNL d   1      26.484 -10.645  -7.367  0.00  0.00     0.004 A 
ATOM     24  C   UNL d   1      27.587 -11.404  -7.738  0.00  0.00     0.024 A 
ATOM     25  C   UNL d   1      27.999 -12.449  -6.913  0.00  0.00     0.036 A 
ATOM     26 CL   UNL d   1      29.328 -13.430  -7.406  0.00  0.00    -0.084 Cl
ATOM     27  C   UNL d   1      27.336 -12.726  -5.706  0.00  0.00     0.054 A 
ENDBRANCH  19  21
ENDBRANCH  17  19
ENDBRANCH   1  15
TORSDOF 7
ENDMDL
MODEL 2
REMARK VINA RESULT:    -7.686      4.055      9.362
REMARK INTER + INTRA:         -10.888
REMARK INTER:                  -9.775
REMARK INTRA:                  -1.114
REMARK CONF_INDEPENDENT:        2.088
REMARK UNBOUND:                -1.114
REMARK  7 active torsions:
REMARK  status: ('A' for Active; 'I' for Inactive)
REMARK       I    between atoms: N_1  and  C_2 
REMARK    1  A    between atoms: C_2  and  C_4 
REMARK    2  A    between atoms: C_4  and  C_5 
REMARK    3  A    between atoms: C_8  and  O_9 
REMARK    4  A    between atoms: O_9  and  C_10 
REMARK    5  A    between atoms: C_10  and  C_11 
REMARK       I    between atoms: C_11  and  N_13 
REMARK    6  A    between atoms: N_13  and  N_14 
REMARK    7  A    between atoms: N_14  and  C_15 
ROOT
ATOM      1  C   UNL d   1      24.574 -18.604  -0.251  0.00  0.00     0.280 C 
ENDROOT
BRANCH   1   2
ATOM      2  O   UNL d   1      24.800 -17.249   0.149  0.00  0.00    -0.342 OA
BRANCH   2   3
ATOM      3  C   UNL d   1      25.296 -16.370  -0.777  0.00  0.00     0.069 A 
ATOM      4  C   UNL d   1      24.375 -15.901  -1.720  0.00  0.00     0.037 A 
ATOM      5  C   UNL d   1      24.782 -15.058  -2.761  0.00  0.00     0.010 A 
ATOM      6  C   UNL d   1      26.110 -14.619  -2.852  0.00  0.00    -0.049 A 
ATOM      7  C   UNL d   1      27.017 -15.053  -1.879  0.00  0.00     0.010 A 
ATOM      8  C   UNL d   1      26.614 -15.926  -0.855  0.00  0.00     0.037 A 
BRANCH   6   9
ATOM      9  C   UNL d   1      26.540 -13.649  -3.934  0.00  0.00     0.141 C 
BRANCH   9  10
ATOM     10  C   UNL d   1      27.105 -14.301  -5.187  0.00  0.00     0.219 C 
ATOM     11  N   UNL d   1      27.662 -13.459  -6.101  0.00  0.00    -0.370 N 
ATOM     12  H   UNL d   1      28.037 -13.893  -6.936  0.00  0.00     0.159 HD
ATOM     13  H   UNL d   1      27.760 -12.460  -5.982  0.00  0.00     0.159 HD
ATOM     14  O   UNL d   1      27.090 -15.508  -5.433  0.00  0.00    -0.273 OA
ENDBRANCH   9  10
ENDBRANCH   6   9
ENDBRANCH   2   3
ENDBRANCH   1   2
BRANCH   1  15
ATOM     15  C   UNL d   1      23.244 -18.745  -1.030  0.00  0.00     0.260 C 
ATOM     16  O   UNL d   1      23.041 -19.625  -1.868  0.00  0.00    -0.269 OA
ATOM     17  N   UNL d   1      22.270 -17.777  -0.729  0.00  0.00    -0.268 N 
ATOM     18  H   UNL d   1      22.332 -17.239   0.128  0.00  0.00     0.190 HD
BRANCH  17  19
ATOM     19  N   UNL d   1      20.948 -18.120  -1.106  0.00  0.00    -0.298 N 
ATOM     20  H   UNL d   1      20.407 -17.312  -1.445  0.00  0.00     0.187 HD
BRANCH  19  21
ATOM     21  C   UNL d   1      20.208 -18.999  -0.282  0.00  0.00     0.049 A 
ATOM     22  C   UNL d   1      19.137 -19.697  -0.875  0.00  0.00     0.031 A 
ATOM     23  C   UNL d   1      18.354 -20.604  -0.150  0.00  0.00     0.004 A 
ATOM     24  C   UNL d   1      18.654 -20.866   1.181  0.00  0.00     0.024 A 
ATOM     25  C   UNL d   1      19.702 -20.175   1.788  0.00  0.00     0.036 A 
ATOM     26 CL   UNL d   1      20.032 -20.454   3.457  0.00  0.00    -0.084 Cl
ATOM     27  C   UNL d   1      20.472 -19.247   1.069  0.00  0.00     0.054 A 
ENDBRANCH  19  21
ENDBRANCH  17  19
ENDBRANCH   1  15
TORSDOF 7
ENDMDL
MODEL 3
REMARK VINA RESULT:    -7.544      6.455      8.427
REMARK INTER + INTRA:         -10.998
REMARK INTER:                  -9.632
REMARK INTRA:                  -1.366
REMARK CONF_INDEPENDENT:        2.088
REMARK UNBOUND:                -1.366
REMARK  7 active torsions:
REMARK  status: ('A' for Active; 'I' for Inactive)
REMARK       I    between atoms: N_1  and  C_2 
REMARK    1  A    between atoms: C_2  and  C_4 
REMARK    2  A    between atoms: C_4  and  C_5 
REMARK    3  A    between atoms: C_8  and  O_9 
REMARK    4  A    between atoms: O_9  and  C_10 
REMARK    5  A    between atoms: C_10  and  C_11 
REMARK       I    between atoms: C_11  and  N_13 
REMARK    6  A    between atoms: N_13  and  N_14 
REMARK    7  A    between atoms: N_14  and  C_15 
ROOT
ATOM      1  C   UNL d   1      28.110 -14.897   0.867  0.00  0.00     0.280 C 
ENDROOT
BRANCH   1   2
ATOM      2  O   UNL d   1      27.799 -16.294   0.872  0.00  0.00    -0.342 OA
BRANCH   2   3
ATOM      3  C   UNL d   1      26.630 -16.704   0.286  0.00  0.00     0.069 A 
ATOM      4  C   UNL d   1      26.243 -18.020   0.562  0.00  0.00     0.037 A 
ATOM      5  C   UNL d   1      25.109 -18.575  -0.040  0.00  0.00     0.010 A 
ATOM      6  C   UNL d   1      24.301 -17.810  -0.892  0.00  0.00    -0.049 A 
ATOM      7  C   UNL d   1      24.666 -16.479  -1.129  0.00  0.00     0.010 A 
ATOM      8  C   UNL d   1      25.823 -15.934  -0.550  0.00  0.00     0.037 A 
BRANCH   6   9
ATOM      9  C   UNL d   1      23.032 -18.382  -1.490  0.00  0.00     0.141 C 
BRANCH   9  10
ATOM     10  C   UNL d   1      21.789 -18.214  -0.628  0.00  0.00     0.219 C 
ATOM     11  N   UNL d   1      21.917 -18.572   0.681  0.00  0.00    -0.370 N 
ATOM     12  H   UNL d   1      21.090 -18.462   1.255  0.00  0.00     0.159 HD
ATOM     13  H   UNL d   1      22.774 -18.891   1.111  0.00  0.00     0.159 HD
ATOM     14  O   UNL d   1      20.700 -17.794  -1.018  0.00  0.00    -0.273 OA
ENDBRANCH   9  10
ENDBRANCH   6   9
ENDBRANCH   2   3
ENDBRANCH   1   2
BRANCH   1  15
ATOM     15  C   UNL d   1      27.654 -14.216   2.179  0.00  0.00     0.260 C 
ATOM     16  O   UNL d   1      26.943 -13.210   2.207  0.00  0.00    -0.269 OA
ATOM     17  N   UNL d   1      28.121 -14.819   3.360  0.00  0.00    -0.268 N 
ATOM     18  H   UNL d   1      28.465 -15.773   3.345  0.00  0.00     0.190 HD
BRANCH  17  19
ATOM     19  N   UNL d   1      27.404 -14.478   4.533  0.00  0.00    -0.298 N 
ATOM     20  H   UNL d   1      26.468 -14.099   4.333  0.00  0.00     0.187 HD
BRANCH  19  21
ATOM     21  C   UNL d   1      28.081 -13.809   5.578  0.00  0.00     0.049 A 
ATOM     22  C   UNL d   1      27.884 -12.419   5.695  0.00  0.00     0.031 A 
ATOM     23  C   UNL d   1      28.495 -11.667   6.706  0.00  0.00     0.004 A 
ATOM     24  C   UNL d   1      29.288 -12.302   7.655  0.00  0.00     0.024 A 
ATOM     25  C   UNL d   1      29.505 -13.674   7.548  0.00  0.00     0.036 A 
ATOM     26 CL   UNL d   1      30.541 -14.449   8.688  0.00  0.00    -0.084 Cl
ATOM     27  C   UNL d   1      28.912 -14.425   6.520  0.00  0.00     0.054 A 
ENDBRANCH  19  21
ENDBRANCH  17  19
ENDBRANCH   1  15
TORSDOF 7
ENDMDL
MODEL 4
REMARK VINA RESULT:    -7.349      3.765      4.450
REMARK INTER + INTRA:         -10.921
REMARK INTER:                  -9.437
REMARK INTRA:                  -1.485
REMARK CONF_INDEPENDENT:        2.088
REMARK UNBOUND:                -1.485
REMARK  7 active torsions:
REMARK  status: ('A' for Active; 'I' for Inactive)
REMARK       I    between atoms: N_1  and  C_2 
REMARK    1  A    between atoms: C_2  and  C_4 
REMARK    2  A    between atoms: C_4  and  C_5 
REMARK    3  A    between atoms: C_8  and  O_9 
REMARK    4  A    between atoms: O_9  and  C_10 
REMARK    5  A    between atoms: C_10  and  C_11 
REMARK       I    between atoms: C_11  and  N_13 
REMARK    6  A    between atoms: N_13  and  N_14 
REMARK    7  A    between atoms: N_14  and  C_15 
ROOT
ATOM      1  C   UNL d   1      25.749 -15.033  -3.188  0.00  0.00     0.280 C 
ENDROOT
BRANCH   1   2
ATOM      2  O   UNL d   1      26.080 -15.826  -2.044  0.00  0.00    -0.342 OA
BRANCH   2   3
ATOM      3  C   UNL d   1      25.101 -16.603  -1.482  0.00  0.00     0.069 A 
ATOM      4  C   UNL d   1      23.812 -16.060  -1.503  0.00  0.00     0.037 A 
ATOM      5  C   UNL d   1      22.744 -16.726  -0.893  0.00  0.00     0.010 A 
ATOM      6  C   UNL d   1      22.928 -17.980  -0.293  0.00  0.00    -0.049 A 
ATOM      7  C   UNL d   1      24.211 -18.540  -0.316  0.00  0.00     0.010 A 
ATOM      8  C   UNL d   1      25.288 -17.854  -0.900  0.00  0.00     0.037 A 
BRANCH   6   9
ATOM      9  C   UNL d   1      21.762 -18.740   0.306  0.00  0.00     0.141 C 
BRANCH   9  10
ATOM     10  C   UNL d   1      20.690 -19.152  -0.692  0.00  0.00     0.219 C 
ATOM     11  N   UNL d   1      19.400 -18.956  -0.300  0.00  0.00    -0.370 N 
ATOM     12  H   UNL d   1      18.687 -19.232  -0.964  0.00  0.00     0.159 HD
ATOM     13  H   UNL d   1      19.121 -18.526   0.570  0.00  0.00     0.159 HD
ATOM     14  O   UNL d   1      20.899 -19.645  -1.802  0.00  0.00    -0.273 OA
ENDBRANCH   9  10
ENDBRANCH   6   9
ENDBRANCH   2   3
ENDBRANCH   1   2
BRANCH   1  15
ATOM     15  C   UNL d   1      26.733 -15.293  -4.354  0.00  0.00     0.260 C 
ATOM     16  O   UNL d   1      26.418 -15.187  -5.541  0.00  0.00    -0.269 OA
ATOM     17  N   UNL d   1      28.028 -15.680  -3.969  0.00  0.00    -0.268 N 
ATOM     18  H   UNL d   1      28.354 -15.505  -3.024  0.00  0.00     0.190 HD
BRANCH  17  19
ATOM     19  N   UNL d   1      29.023 -15.522  -4.965  0.00  0.00    -0.298 N 
ATOM     20  H   UNL d   1      28.707 -14.946  -5.757  0.00  0.00     0.187 HD
BRANCH  19  21
ATOM     21  C   UNL d   1      29.794 -16.645  -5.344  0.00  0.00     0.049 A 
ATOM     22  C   UNL d   1      30.379 -16.627  -6.625  0.00  0.00     0.031 A 
ATOM     23  C   UNL d   1      31.175 -17.682  -7.090  0.00  0.00     0.004 A 
ATOM     24  C   UNL d   1      31.439 -18.765  -6.261  0.00  0.00     0.024 A 
ATOM     25  C   UNL d   1      30.858 -18.806  -4.995  0.00  0.00     0.036 A 
ATOM     26 CL   UNL d   1      31.134 -20.181  -3.992  0.00  0.00    -0.084 Cl
ATOM     27  C   UNL d   1      30.040 -17.761  -4.537  0.00  0.00     0.054 A 
ENDBRANCH  19  21
ENDBRANCH  17  19
ENDBRANCH   1  15
TORSDOF 7
ENDMDL
MODEL 5
REMARK VINA RESULT:    -7.271      4.031      9.445
REMARK INTER + INTRA:         -11.119
REMARK INTER:                  -9.359
REMARK INTRA:                  -1.760
REMARK CONF_INDEPENDENT:        2.088
REMARK UNBOUND:                -1.760
REMARK  7 active torsions:
REMARK  status: ('A' for Active; 'I' for Inactive)
REMARK       I    between atoms: N_1  and  C_2 
REMARK    1  A    between atoms: C_2  and  C_4 
REMARK    2  A    between atoms: C_4  and  C_5 
REMARK    3  A    between atoms: C_8  and  O_9 
REMARK    4  A    between atoms: O_9  and  C_10 
REMARK    5  A    between atoms: C_10  and  C_11 
REMARK       I    between atoms: C_11  and  N_13 
REMARK    6  A    between atoms: N_13  and  N_14 
REMARK    7  A    between atoms: N_14  and  C_15 
ROOT
ATOM      1  C   UNL d   1      25.872 -16.972  -1.538  0.00  0.00     0.280 C 
ENDROOT
BRANCH   1   2
ATOM      2  O   UNL d   1      25.023 -16.264  -2.446  0.00  0.00    -0.342 OA
BRANCH   2   3
ATOM      3  C   UNL d   1      25.555 -15.223  -3.161  0.00  0.00     0.069 A 
ATOM      4  C   UNL d   1      26.014 -15.541  -4.443  0.00  0.00     0.037 A 
ATOM      5  C   UNL d   1      26.646 -14.578  -5.238  0.00  0.00     0.010 A 
ATOM      6  C   UNL d   1      26.786 -13.257  -4.790  0.00  0.00    -0.049 A 
ATOM      7  C   UNL d   1      26.283 -12.933  -3.524  0.00  0.00     0.010 A 
ATOM      8  C   UNL d   1      25.679 -13.909  -2.716  0.00  0.00     0.037 A 
BRANCH   6   9
ATOM      9  C   UNL d   1      27.404 -12.193  -5.674  0.00  0.00     0.141 C 
BRANCH   9  10
ATOM     10  C   UNL d   1      26.406 -11.385  -6.490  0.00  0.00     0.219 C 
ATOM     11  N   UNL d   1      25.155 -11.272  -5.963  0.00  0.00    -0.370 N 
ATOM     12  H   UNL d   1      24.490 -10.735  -6.507  0.00  0.00     0.159 HD
ATOM     13  H   UNL d   1      24.870 -11.643  -5.068  0.00  0.00     0.159 HD
ATOM     14  O   UNL d   1      26.639 -10.843  -7.571  0.00  0.00    -0.273 OA
ENDBRANCH   9  10
ENDBRANCH   6   9
ENDBRANCH   2   3
ENDBRANCH   1   2
BRANCH   1  15
ATOM     15  C   UNL d   1      25.044 -17.828  -0.549  0.00  0.00     0.260 C 
ATOM     16  O   UNL d   1      25.553 -18.542   0.317  0.00  0.00    -0.269 OA
ATOM     17  N   UNL d   1      23.650 -17.750  -0.712  0.00  0.00    -0.268 N 
ATOM     18  H   UNL d   1      23.238 -16.978  -1.225  0.00  0.00     0.190 HD
BRANCH  17  19
ATOM     19  N   UNL d   1      22.890 -18.179   0.404  0.00  0.00    -0.298 N 
ATOM     20  H   UNL d   1      23.463 -18.637   1.125  0.00  0.00     0.187 HD
BRANCH  19  21
ATOM     21  C   UNL d   1      21.641 -18.803   0.181  0.00  0.00     0.049 A 
ATOM     22  C   UNL d   1      21.225 -18.964  -1.155  0.00  0.00     0.031 A 
ATOM     23  C   UNL d   1      20.013 -19.585  -1.483  0.00  0.00     0.004 A 
ATOM     24  C   UNL d   1      19.205 -20.098  -0.475  0.00  0.00     0.024 A 
ATOM     25  C   UNL d   1      19.595 -19.937   0.854  0.00  0.00     0.036 A 
ATOM     26 CL   UNL d   1      18.561 -20.517   2.105  0.00  0.00    -0.084 Cl
ATOM     27  C   UNL d   1      20.798 -19.292   1.184  0.00  0.00     0.054 A 
ENDBRANCH  19  21
ENDBRANCH  17  19
ENDBRANCH   1  15
TORSDOF 7
ENDMDL
MODEL 6
REMARK VINA RESULT:    -7.173      4.285      5.100
REMARK INTER + INTRA:         -11.016
REMARK INTER:                  -9.261
REMARK INTRA:                  -1.755
REMARK CONF_INDEPENDENT:        2.088
REMARK UNBOUND:                -1.755
REMARK  7 active torsions:
REMARK  status: ('A' for Active; 'I' for Inactive)
REMARK       I    between atoms: N_1  and  C_2 
REMARK    1  A    between atoms: C_2  and  C_4 
REMARK    2  A    between atoms: C_4  and  C_5 
REMARK    3  A    between atoms: C_8  and  O_9 
REMARK    4  A    between atoms: O_9  and  C_10 
REMARK    5  A    between atoms: C_10  and  C_11 
REMARK       I    between atoms: C_11  and  N_13 
REMARK    6  A    between atoms: N_13  and  N_14 
REMARK    7  A    between atoms: N_14  and  C_15 
ROOT
ATOM      1  C   UNL d   1      26.619 -14.900  -3.789  0.00  0.00     0.280 C 
ENDROOT
BRANCH   1   2
ATOM      2  O   UNL d   1      27.037 -15.393  -2.512  0.00  0.00    -0.342 OA
BRANCH   2   3
ATOM      3  C   UNL d   1      26.151 -16.137  -1.777  0.00  0.00     0.069 A 
ATOM      4  C   UNL d   1      24.798 -15.872  -2.012  0.00  0.00     0.037 A 
ATOM      5  C   UNL d   1      23.802 -16.514  -1.268  0.00  0.00     0.010 A 
ATOM      6  C   UNL d   1      24.134 -17.479  -0.307  0.00  0.00    -0.049 A 
ATOM      7  C   UNL d   1      25.488 -17.774  -0.108  0.00  0.00     0.010 A 
ATOM      8  C   UNL d   1      26.486 -17.104  -0.833  0.00  0.00     0.037 A 
BRANCH   6   9
ATOM      9  C   UNL d   1      23.058 -18.230   0.451  0.00  0.00     0.141 C 
BRANCH   9  10
ATOM     10  C   UNL d   1      22.083 -19.002  -0.425  0.00  0.00     0.219 C 
ATOM     11  N   UNL d   1      21.207 -19.816   0.228  0.00  0.00    -0.370 N 
ATOM     12  H   UNL d   1      20.558 -20.331  -0.355  0.00  0.00     0.159 HD
ATOM     13  H   UNL d   1      21.139 -19.903   1.232  0.00  0.00     0.159 HD
ATOM     14  O   UNL d   1      22.031 -18.950  -1.654  0.00  0.00    -0.273 OA
ENDBRANCH   9  10
ENDBRANCH   6   9
ENDBRANCH   2   3
ENDBRANCH   1   2
BRANCH   1  15
ATOM     15  C   UNL d   1      27.598 -15.336  -4.906  0.00  0.00     0.260 C 
ATOM     16  O   UNL d   1      27.410 -15.098  -6.100  0.00  0.00    -0.269 OA
ATOM     17  N   UNL d   1      28.728 -16.048  -4.466  0.00  0.00    -0.268 N 
ATOM     18  H   UNL d   1      29.012 -16.005  -3.493  0.00  0.00     0.190 HD
BRANCH  17  19
ATOM     19  N   UNL d   1      29.805 -16.090  -5.385  0.00  0.00    -0.298 N 
ATOM     20  H   UNL d   1      29.698 -15.418  -6.158  0.00  0.00     0.187 HD
BRANCH  19  21
ATOM     21  C   UNL d   1      30.313 -17.347  -5.786  0.00  0.00     0.049 A 
ATOM     22  C   UNL d   1      30.405 -18.353  -4.803  0.00  0.00     0.031 A 
ATOM     23  C   UNL d   1      30.879 -19.637  -5.100  0.00  0.00     0.004 A 
ATOM     24  C   UNL d   1      31.233 -19.957  -6.406  0.00  0.00     0.024 A 
ATOM     25  C   UNL d   1      31.160 -18.972  -7.388  0.00  0.00     0.036 A 
ATOM     26 CL   UNL d   1      31.661 -19.353  -8.993  0.00  0.00    -0.084 Cl
ATOM     27  C   UNL d   1      30.709 -17.677  -7.086  0.00  0.00     0.054 A 
ENDBRANCH  19  21
ENDBRANCH  17  19
ENDBRANCH   1  15
TORSDOF 7
ENDMDL
MODEL 7
REMARK VINA RESULT:    -7.056      1.796      2.320
REMARK INTER + INTRA:         -10.923
REMARK INTER:                  -9.144
REMARK INTRA:                  -1.778
REMARK CONF_INDEPENDENT:        2.088
REMARK UNBOUND:                -1.778
REMARK  7 active torsions:
REMARK  status: ('A' for Active; 'I' for Inactive)
REMARK       I    between atoms: N_1  and  C_2 
REMARK    1  A    between atoms: C_2  and  C_4 
REMARK    2  A    between atoms: C_4  and  C_5 
REMARK    3  A    between atoms: C_8  and  O_9 
REMARK    4  A    between atoms: O_9  and  C_10 
REMARK    5  A    between atoms: C_10  and  C_11 
REMARK       I    between atoms: C_11  and  N_13 
REMARK    6  A    between atoms: N_13  and  N_14 
REMARK    7  A    between atoms: N_14  and  C_15 
ROOT
ATOM      1  C   UNL d   1      26.866 -16.460  -1.094  0.00  0.00     0.280 C 
ENDROOT
BRANCH   1   2
ATOM      2  O   UNL d   1      25.548 -15.924  -1.239  0.00  0.00    -0.342 OA
BRANCH   2   3
ATOM      3  C   UNL d   1      24.481 -16.711  -0.891  0.00  0.00     0.069 A 
ATOM      4  C   UNL d   1      24.792 -18.026  -0.531  0.00  0.00     0.037 A 
ATOM      5  C   UNL d   1      23.780 -18.945  -0.230  0.00  0.00     0.010 A 
ATOM      6  C   UNL d   1      22.434 -18.556  -0.228  0.00  0.00    -0.049 A 
ATOM      7  C   UNL d   1      22.131 -17.226  -0.544  0.00  0.00     0.010 A 
ATOM      8  C   UNL d   1      23.146 -16.315  -0.878  0.00  0.00     0.037 A 
BRANCH   6   9
ATOM      9  C   UNL d   1      21.339 -19.526   0.167  0.00  0.00     0.141 C 
BRANCH   9  10
ATOM     10  C   UNL d   1      20.171 -19.600  -0.805  0.00  0.00     0.219 C 
ATOM     11  N   UNL d   1      18.927 -19.559  -0.251  0.00  0.00    -0.370 N 
ATOM     12  H   UNL d   1      18.150 -19.609  -0.898  0.00  0.00     0.159 HD
ATOM     13  H   UNL d   1      18.738 -19.441   0.734  0.00  0.00     0.159 HD
ATOM     14  O   UNL d   1      20.266 -19.698  -2.029  0.00  0.00    -0.273 OA
ENDBRANCH   9  10
ENDBRANCH   6   9
ENDBRANCH   2   3
ENDBRANCH   1   2
BRANCH   1  15
ATOM     15  C   UNL d   1      27.730 -16.169  -2.344  0.00  0.00     0.260 C 
ATOM     16  O   UNL d   1      28.916 -16.492  -2.438  0.00  0.00    -0.269 OA
ATOM     17  N   UNL d   1      27.071 -15.486  -3.381  0.00  0.00    -0.268 N 
ATOM     18  H   UNL d   1      26.057 -15.465  -3.415  0.00  0.00     0.190 HD
BRANCH  17  19
ATOM     19  N   UNL d   1      27.693 -15.576  -4.650  0.00  0.00    -0.298 N 
ATOM     20  H   UNL d   1      28.551 -16.144  -4.635  0.00  0.00     0.187 HD
BRANCH  19  21
ATOM     21  C   UNL d   1      27.791 -14.412  -5.448  0.00  0.00     0.049 A 
ATOM     22  C   UNL d   1      28.691 -14.441  -6.531  0.00  0.00     0.031 A 
ATOM     23  C   UNL d   1      28.849 -13.347  -7.391  0.00  0.00     0.004 A 
ATOM     24  C   UNL d   1      28.074 -12.208  -7.210  0.00  0.00     0.024 A 
ATOM     25  C   UNL d   1      27.187 -12.157  -6.135  0.00  0.00     0.036 A 
ATOM     26 CL   UNL d   1      26.274 -10.719  -5.874  0.00  0.00    -0.084 Cl
ATOM     27  C   UNL d   1      27.046 -13.244  -5.258  0.00  0.00     0.054 A 
ENDBRANCH  19  21
ENDBRANCH  17  19
ENDBRANCH   1  15
TORSDOF 7
ENDMDL
MODEL 8
REMARK VINA RESULT:    -6.996      4.321      6.074
REMARK INTER + INTRA:         -10.923
REMARK INTER:                  -9.084
REMARK INTRA:                  -1.839
REMARK CONF_INDEPENDENT:        2.088
REMARK UNBOUND:                -1.839
REMARK  7 active torsions:
REMARK  status: ('A' for Active; 'I' for Inactive)
REMARK       I    between atoms: N_1  and  C_2 
REMARK    1  A    between atoms: C_2  and  C_4 
REMARK    2  A    between atoms: C_4  and  C_5 
REMARK    3  A    between atoms: C_8  and  O_9 
REMARK    4  A    between atoms: O_9  and  C_10 
REMARK    5  A    between atoms: C_10  and  C_11 
REMARK       I    between atoms: C_11  and  N_13 
REMARK    6  A    between atoms: N_13  and  N_14 
REMARK    7  A    between atoms: N_14  and  C_15 
ROOT
ATOM      1  C   UNL d   1      25.715 -15.324  -2.307  0.00  0.00     0.280 C 
ENDROOT
BRANCH   1   2
ATOM      2  O   UNL d   1      25.736 -16.563  -1.592  0.00  0.00    -0.342 OA
BRANCH   2   3
ATOM      3  C   UNL d   1      24.547 -17.076  -1.141  0.00  0.00     0.069 A 
ATOM      4  C   UNL d   1      24.545 -18.448  -0.870  0.00  0.00     0.037 A 
ATOM      5  C   UNL d   1      23.370 -19.099  -0.478  0.00  0.00     0.010 A 
ATOM      6  C   UNL d   1      22.180 -18.383  -0.293  0.00  0.00    -0.049 A 
ATOM      7  C   UNL d   1      22.199 -17.001  -0.520  0.00  0.00     0.010 A 
ATOM      8  C   UNL d   1      23.371 -16.356  -0.946  0.00  0.00     0.037 A 
BRANCH   6   9
ATOM      9  C   UNL d   1      20.922 -19.068   0.203  0.00  0.00     0.141 C 
BRANCH   9  10
ATOM     10  C   UNL d   1      19.977 -19.535  -0.895  0.00  0.00     0.219 C 
ATOM     11  N   UNL d   1      18.695 -19.792  -0.511  0.00  0.00    -0.370 N 
ATOM     12  H   UNL d   1      18.066 -20.104  -1.241  0.00  0.00     0.159 HD
ATOM     13  H   UNL d   1      18.334 -19.653   0.422  0.00  0.00     0.159 HD
ATOM     14  O   UNL d   1      20.280 -19.700  -2.077  0.00  0.00    -0.273 OA
ENDBRANCH   9  10
ENDBRANCH   6   9
ENDBRANCH   2   3
ENDBRANCH   1   2
BRANCH   1  15
ATOM     15  C   UNL d   1      26.280 -14.170  -1.444  0.00  0.00     0.260 C 
ATOM     16  O   UNL d   1      26.369 -13.008  -1.844  0.00  0.00    -0.269 OA
ATOM     17  N   UNL d   1      26.707 -14.539  -0.157  0.00  0.00    -0.268 N 
ATOM     18  H   UNL d   1      26.389 -15.410   0.257  0.00  0.00     0.190 HD
BRANCH  17  19
ATOM     19  N   UNL d   1      26.832 -13.470   0.764  0.00  0.00    -0.298 N 
ATOM     20  H   UNL d   1      26.924 -12.555   0.303  0.00  0.00     0.187 HD
BRANCH  19  21
ATOM     21  C   UNL d   1      27.672 -13.632   1.890  0.00  0.00     0.049 A 
ATOM     22  C   UNL d   1      28.974 -14.118   1.663  0.00  0.00     0.031 A 
ATOM     23  C   UNL d   1      29.889 -14.298   2.708  0.00  0.00     0.004 A 
ATOM     24  C   UNL d   1      29.532 -13.953   4.006  0.00  0.00     0.024 A 
ATOM     25  C   UNL d   1      28.243 -13.483   4.251  0.00  0.00     0.036 A 
ATOM     26 CL   UNL d   1      27.780 -13.117   5.871  0.00  0.00    -0.084 Cl
ATOM     27  C   UNL d   1      27.317 -13.326   3.208  0.00  0.00     0.054 A 
ENDBRANCH  19  21
ENDBRANCH  17  19
ENDBRANCH   1  15
TORSDOF 7
ENDMDL
MODEL 9
REMARK VINA RESULT:    -6.605      1.827      2.381
REMARK INTER + INTRA:         -10.555
REMARK INTER:                  -8.693
REMARK INTRA:                  -1.862
REMARK CONF_INDEPENDENT:        2.088
REMARK UNBOUND:                -1.862
REMARK  7 active torsions:
REMARK  status: ('A' for Active; 'I' for Inactive)
REMARK       I    between atoms: N_1  and  C_2 
REMARK    1  A    between atoms: C_2  and  C_4 
REMARK    2  A    between atoms: C_4  and  C_5 
REMARK    3  A    between atoms: C_8  and  O_9 
REMARK    4  A    between atoms: O_9  and  C_10 
REMARK    5  A    between atoms: C_10  and  C_11 
REMARK       I    between atoms: C_11  and  N_13 
REMARK    6  A    between atoms: N_13  and  N_14 
REMARK    7  A    between atoms: N_14  and  C_15 
ROOT
ATOM      1  C   UNL d   1      26.723 -16.752  -0.454  0.00  0.00     0.280 C 
ENDROOT
BRANCH   1   2
ATOM      2  O   UNL d   1      25.412 -16.235  -0.203  0.00  0.00    -0.342 OA
BRANCH   2   3
ATOM      3  C   UNL d   1      24.335 -17.053  -0.425  0.00  0.00     0.069 A 
ATOM      4  C   UNL d   1      23.133 -16.404  -0.725  0.00  0.00     0.037 A 
ATOM      5  C   UNL d   1      21.949 -17.129  -0.896  0.00  0.00     0.010 A 
ATOM      6  C   UNL d   1      21.949 -18.529  -0.826  0.00  0.00    -0.049 A 
ATOM      7  C   UNL d   1      23.163 -19.178  -0.572  0.00  0.00     0.010 A 
ATOM      8  C   UNL d   1      24.343 -18.445  -0.367  0.00  0.00     0.037 A 
BRANCH   6   9
ATOM      9  C   UNL d   1      20.685 -19.325  -1.082  0.00  0.00     0.141 C 
BRANCH   9  10
ATOM     10  C   UNL d   1      19.939 -19.757   0.172  0.00  0.00     0.219 C 
ATOM     11  N   UNL d   1      20.628 -20.560   1.030  0.00  0.00    -0.370 N 
ATOM     12  H   UNL d   1      20.131 -20.849   1.865  0.00  0.00     0.159 HD
ATOM     13  H   UNL d   1      21.590 -20.843   0.910  0.00  0.00     0.159 HD
ATOM     14  O   UNL d   1      18.782 -19.446   0.458  0.00  0.00    -0.273 OA
ENDBRANCH   9  10
ENDBRANCH   6   9
ENDBRANCH   2   3
ENDBRANCH   1   2
BRANCH   1  15
ATOM     15  C   UNL d   1      27.219 -16.358  -1.866  0.00  0.00     0.260 C 
ATOM     16  O   UNL d   1      28.324 -16.677  -2.308  0.00  0.00    -0.269 OA
ATOM     17  N   UNL d   1      26.321 -15.584  -2.622  0.00  0.00    -0.268 N 
ATOM     18  H   UNL d   1      25.337 -15.556  -2.374  0.00  0.00     0.190 HD
BRANCH  17  19
ATOM     19  N   UNL d   1      26.570 -15.567  -4.016  0.00  0.00    -0.298 N 
ATOM     20  H   UNL d   1      27.290 -16.244  -4.302  0.00  0.00     0.187 HD
BRANCH  19  21
ATOM     21  C   UNL d   1      26.659 -14.321  -4.679  0.00  0.00     0.049 A 
ATOM     22  C   UNL d   1      25.856 -13.270  -4.196  0.00  0.00     0.031 A 
ATOM     23  C   UNL d   1      25.883 -11.993  -4.771  0.00  0.00     0.004 A 
ATOM     24  C   UNL d   1      26.752 -11.728  -5.823  0.00  0.00     0.024 A 
ATOM     25  C   UNL d   1      27.544 -12.760  -6.323  0.00  0.00     0.036 A 
ATOM     26 CL   UNL d   1      28.573 -12.446  -7.670  0.00  0.00    -0.084 Cl
ATOM     27  C   UNL d   1      27.499 -14.047  -5.763  0.00  0.00     0.054 A 
ENDBRANCH  19  21
ENDBRANCH  17  19
ENDBRANCH   1  15
TORSDOF 7
ENDMDL
