MODEL 1
REMARK VINA RESULT:    -8.215      0.000      0.000
REMARK INTER + INTRA:         -10.526
REMARK INTER:                  -9.707
REMARK INTRA:                  -0.819
REMARK CONF_INDEPENDENT:        1.492
REMARK UNBOUND:                -0.819
REMARK  5 active torsions:
REMARK  status: ('A' for Active; 'I' for Inactive)
REMARK    1  A    between atoms: C_4  and  S_5 
REMARK    2  A    between atoms: S_5  and  C_6 
REMARK    3  A    between atoms: C_12  and  N_13 
REMARK    4  A    between atoms: C_14  and  N_13 
REMARK    5  A    between atoms: C_14  and  C_16 
REMARK       I    between atoms: C_16  and  N_18 
REMARK       I    between atoms: N_18  and  C_19 
REMARK       I    between atoms: C_19  and  N_20 
ROOT
ATOM      1  N   UNL d   1      22.985 -17.674   0.230  0.00  0.00    -0.377 N 
ATOM      2  H   UNL d   1      22.227 -17.136   0.637  0.00  0.00     0.160 HD
ENDROOT
BRANCH   1   3
ATOM      3  C   UNL d   1      23.974 -16.925  -0.421  0.00  0.00     0.034 A 
ATOM      4  C   UNL d   1      23.626 -15.951  -1.348  0.00  0.00     0.031 A 
ATOM      5  C   UNL d   1      24.573 -15.218  -2.043  0.00  0.00     0.021 A 
ATOM      6  C   UNL d   1      25.931 -15.451  -1.916  0.00  0.00     0.002 A 
ATOM      7  C   UNL d   1      26.311 -16.444  -1.004  0.00  0.00     0.027 A 
ATOM      8  C   UNL d   1      25.351 -17.177  -0.256  0.00  0.00    -0.034 A 
ATOM      9  C   UNL d   1      25.833 -18.200   0.733  0.00  0.00     0.050 C 
BRANCH   6  10
ATOM     10  S   UNL d   1      27.195 -14.589  -2.840  0.00  0.00    -0.121 SA
BRANCH  10  11
ATOM     11  C   UNL d   1      26.467 -14.218  -4.515  0.00  0.00     0.002 C 
ATOM     12  C   UNL d   1      25.276 -13.248  -4.410  0.00  0.00     0.026 C 
ATOM     13  C   UNL d   1      27.557 -13.762  -5.500  0.00  0.00     0.026 C 
ATOM     14  C   UNL d   1      25.903 -15.547  -5.062  0.00  0.00     0.026 C 
ENDBRANCH  10  11
ENDBRANCH   6  10
ENDBRANCH   1   3
BRANCH   1  15
ATOM     15  C   UNL d   1      22.636 -19.023  -0.272  0.00  0.00     0.170 C 
ATOM     16  C   UNL d   1      23.255 -19.328  -1.650  0.00  0.00     0.042 C 
BRANCH  15  17
ATOM     17  C   UNL d   1      21.112 -19.207  -0.408  0.00  0.00     0.247 C 
ATOM     18  O   UNL d   1      20.443 -18.488  -1.155  0.00  0.00    -0.271 OA
ATOM     19  N   UNL d   1      20.554 -20.254   0.304  0.00  0.00    -0.278 N 
ATOM     20  C   UNL d   1      19.231 -20.610   0.300  0.00  0.00     0.320 C 
ATOM     21  H   UNL d   1      21.143 -20.824   0.898  0.00  0.00     0.173 HD
ATOM     22  N   UNL d   1      18.406 -19.871  -0.473  0.00  0.00    -0.352 N 
ATOM     23  O   UNL d   1      18.808 -21.555   0.966  0.00  0.00    -0.247 OA
ATOM     24  H   UNL d   1      18.780 -19.099  -1.021  0.00  0.00     0.160 HD
ATOM     25  H   UNL d   1      17.419 -20.074  -0.523  0.00  0.00     0.160 HD
ENDBRANCH  15  17
ENDBRANCH   1  15
TORSDOF 5
ENDMDL
MODEL 2
REMARK VINA RESULT:    -7.341      1.361      1.783
REMARK INTER + INTRA:          -9.492
REMARK INTER:                  -8.832
REMARK INTRA:                  -0.660
REMARK CONF_INDEPENDENT:        1.492
REMARK UNBOUND:                -0.660
REMARK  5 active torsions:
REMARK  status: ('A' for Active; 'I' for Inactive)
REMARK    1  A    between atoms: C_4  and  S_5 
REMARK    2  A    between atoms: S_5  and  C_6 
REMARK    3  A    between atoms: C_12  and  N_13 
REMARK    4  A    between atoms: C_14  and  N_13 
REMARK    5  A    between atoms: C_14  and  C_16 
REMARK       I    between atoms: C_16  and  N_18 
REMARK       I    between atoms: N_18  and  C_19 
REMARK       I    between atoms: C_19  and  N_20 
ROOT
ATOM      1  N   UNL d   1      23.441 -16.489  -0.684  0.00  0.00    -0.377 N 
ATOM      2  H   UNL d   1      22.687 -15.905  -1.031  0.00  0.00     0.160 HD
ENDROOT
BRANCH   1   3
ATOM      3  C   UNL d   1      24.691 -16.277  -1.280  0.00  0.00     0.034 A 
ATOM      4  C   UNL d   1      24.786 -15.650  -2.517  0.00  0.00     0.031 A 
ATOM      5  C   UNL d   1      25.998 -15.458  -3.159  0.00  0.00     0.021 A 
ATOM      6  C   UNL d   1      27.190 -15.939  -2.649  0.00  0.00     0.002 A 
ATOM      7  C   UNL d   1      27.123 -16.596  -1.415  0.00  0.00     0.027 A 
ATOM      8  C   UNL d   1      25.891 -16.765  -0.726  0.00  0.00    -0.034 A 
ATOM      9  C   UNL d   1      25.899 -17.446   0.613  0.00  0.00     0.050 C 
BRANCH   6  10
ATOM     10  S   UNL d   1      28.772 -15.787  -3.468  0.00  0.00    -0.121 SA
BRANCH  10  11
ATOM     11  C   UNL d   1      28.608 -14.386  -4.685  0.00  0.00     0.002 C 
ATOM     12  C   UNL d   1      27.764 -14.795  -5.906  0.00  0.00     0.026 C 
ATOM     13  C   UNL d   1      28.116 -13.106  -3.988  0.00  0.00     0.026 C 
ATOM     14  C   UNL d   1      30.027 -14.085  -5.214  0.00  0.00     0.026 C 
ENDBRANCH  10  11
ENDBRANCH   6  10
ENDBRANCH   1   3
BRANCH   1  15
ATOM     15  C   UNL d   1      23.063 -17.849  -0.235  0.00  0.00     0.170 C 
ATOM     16  C   UNL d   1      23.892 -18.956  -0.914  0.00  0.00     0.042 C 
BRANCH  15  17
ATOM     17  C   UNL d   1      21.579 -18.154  -0.517  0.00  0.00     0.247 C 
ATOM     18  O   UNL d   1      20.900 -17.422  -1.243  0.00  0.00    -0.271 OA
ATOM     19  N   UNL d   1      21.075 -19.318   0.037  0.00  0.00    -0.278 N 
ATOM     20  C   UNL d   1      19.798 -19.789  -0.114  0.00  0.00     0.320 C 
ATOM     21  H   UNL d   1      21.671 -19.893   0.619  0.00  0.00     0.173 HD
ATOM     22  N   UNL d   1      18.964 -19.049  -0.878  0.00  0.00    -0.352 N 
ATOM     23  O   UNL d   1      19.421 -20.834   0.415  0.00  0.00    -0.247 OA
ATOM     24  H   UNL d   1      19.301 -18.192  -1.312  0.00  0.00     0.160 HD
ATOM     25  H   UNL d   1      18.009 -19.333  -1.032  0.00  0.00     0.160 HD
ENDBRANCH  15  17
ENDBRANCH   1  15
TORSDOF 5
ENDMDL
MODEL 3
REMARK VINA RESULT:    -7.186      2.292      3.576
REMARK INTER + INTRA:          -9.690
REMARK INTER:                  -8.678
REMARK INTRA:                  -1.012
REMARK CONF_INDEPENDENT:        1.492
REMARK UNBOUND:                -1.012
REMARK  5 active torsions:
REMARK  status: ('A' for Active; 'I' for Inactive)
REMARK    1  A    between atoms: C_4  and  S_5 
REMARK    2  A    between atoms: S_5  and  C_6 
REMARK    3  A    between atoms: C_12  and  N_13 
REMARK    4  A    between atoms: C_14  and  N_13 
REMARK    5  A    between atoms: C_14  and  C_16 
REMARK       I    between atoms: C_16  and  N_18 
REMARK       I    between atoms: N_18  and  C_19 
REMARK       I    between atoms: C_19  and  N_20 
ROOT
ATOM      1  N   UNL d   1      23.416 -17.080  -0.541  0.00  0.00    -0.377 N 
ATOM      2  H   UNL d   1      22.872 -16.644  -1.279  0.00  0.00     0.160 HD
ENDROOT
BRANCH   1   3
ATOM      3  C   UNL d   1      24.799 -16.868  -0.608  0.00  0.00     0.034 A 
ATOM      4  C   UNL d   1      25.660 -17.561   0.234  0.00  0.00     0.031 A 
ATOM      5  C   UNL d   1      27.029 -17.351   0.229  0.00  0.00     0.021 A 
ATOM      6  C   UNL d   1      27.628 -16.389  -0.564  0.00  0.00     0.002 A 
ATOM      7  C   UNL d   1      26.782 -15.658  -1.407  0.00  0.00     0.027 A 
ATOM      8  C   UNL d   1      25.380 -15.891  -1.440  0.00  0.00    -0.034 A 
ATOM      9  C   UNL d   1      24.538 -15.097  -2.398  0.00  0.00     0.050 C 
BRANCH   6  10
ATOM     10  S   UNL d   1      29.378 -16.022  -0.559  0.00  0.00    -0.121 SA
BRANCH  10  11
ATOM     11  C   UNL d   1      29.612 -14.566   0.581  0.00  0.00     0.002 C 
ATOM     12  C   UNL d   1      30.002 -13.297  -0.198  0.00  0.00     0.026 C 
ATOM     13  C   UNL d   1      28.391 -14.384   1.499  0.00  0.00     0.026 C 
ATOM     14  C   UNL d   1      30.808 -14.904   1.497  0.00  0.00     0.026 C 
ENDBRANCH  10  11
ENDBRANCH   6  10
ENDBRANCH   1   3
BRANCH   1  15
ATOM     15  C   UNL d   1      22.893 -18.358  -0.008  0.00  0.00     0.170 C 
ATOM     16  C   UNL d   1      23.673 -19.584  -0.520  0.00  0.00     0.042 C 
BRANCH  15  17
ATOM     17  C   UNL d   1      21.413 -18.573  -0.380  0.00  0.00     0.247 C 
ATOM     18  O   UNL d   1      20.830 -17.810  -1.154  0.00  0.00    -0.271 OA
ATOM     19  N   UNL d   1      20.802 -19.694   0.153  0.00  0.00    -0.278 N 
ATOM     20  C   UNL d   1      19.509 -20.086  -0.073  0.00  0.00     0.320 C 
ATOM     21  H   UNL d   1      21.322 -20.297   0.778  0.00  0.00     0.173 HD
ATOM     22  N   UNL d   1      18.774 -19.305  -0.896  0.00  0.00    -0.352 N 
ATOM     23  O   UNL d   1      19.034 -21.097   0.442  0.00  0.00    -0.247 OA
ATOM     24  H   UNL d   1      19.191 -18.478  -1.317  0.00  0.00     0.160 HD
ATOM     25  H   UNL d   1      17.814 -19.531  -1.107  0.00  0.00     0.160 HD
ENDBRANCH  15  17
ENDBRANCH   1  15
TORSDOF 5
ENDMDL
MODEL 4
REMARK VINA RESULT:    -7.169      2.362      3.413
REMARK INTER + INTRA:          -9.683
REMARK INTER:                  -8.660
REMARK INTRA:                  -1.023
REMARK CONF_INDEPENDENT:        1.492
REMARK UNBOUND:                -1.023
REMARK  5 active torsions:
REMARK  status: ('A' for Active; 'I' for Inactive)
REMARK    1  A    between atoms: C_4  and  S_5 
REMARK    2  A    between atoms: S_5  and  C_6 
REMARK    3  A    between atoms: C_12  and  N_13 
REMARK    4  A    between atoms: C_14  and  N_13 
REMARK    5  A    between atoms: C_14  and  C_16 
REMARK       I    between atoms: C_16  and  N_18 
REMARK       I    between atoms: N_18  and  C_19 
REMARK       I    between atoms: C_19  and  N_20 
ROOT
ATOM      1  N   UNL d   1      23.625 -16.740  -0.786  0.00  0.00    -0.377 N 
ATOM      2  H   UNL d   1      23.116 -16.406  -1.598  0.00  0.00     0.160 HD
ENDROOT
BRANCH   1   3
ATOM      3  C   UNL d   1      25.004 -16.497  -0.799  0.00  0.00     0.034 A 
ATOM      4  C   UNL d   1      25.832 -17.076   0.155  0.00  0.00     0.031 A 
ATOM      5  C   UNL d   1      27.194 -16.829   0.203  0.00  0.00     0.021 A 
ATOM      6  C   UNL d   1      27.815 -15.935  -0.650  0.00  0.00     0.002 A 
ATOM      7  C   UNL d   1      27.001 -15.318  -1.609  0.00  0.00     0.027 A 
ATOM      8  C   UNL d   1      25.610 -15.592  -1.694  0.00  0.00    -0.034 A 
ATOM      9  C   UNL d   1      24.806 -14.924  -2.773  0.00  0.00     0.050 C 
BRANCH   6  10
ATOM     10  S   UNL d   1      29.552 -15.520  -0.588  0.00  0.00    -0.121 SA
BRANCH  10  11
ATOM     11  C   UNL d   1      30.442 -16.810  -1.597  0.00  0.00     0.002 C 
ATOM     12  C   UNL d   1      31.879 -16.371  -1.933  0.00  0.00     0.026 C 
ATOM     13  C   UNL d   1      30.353 -18.191  -0.926  0.00  0.00     0.026 C 
ATOM     14  C   UNL d   1      29.692 -16.922  -2.942  0.00  0.00     0.026 C 
ENDBRANCH  10  11
ENDBRANCH   6  10
ENDBRANCH   1   3
BRANCH   1  15
ATOM     15  C   UNL d   1      23.101 -17.965  -0.141  0.00  0.00     0.170 C 
ATOM     16  C   UNL d   1      23.896 -19.229  -0.522  0.00  0.00     0.042 C 
BRANCH  15  17
ATOM     17  C   UNL d   1      21.628 -18.224  -0.514  0.00  0.00     0.247 C 
ATOM     18  O   UNL d   1      21.015 -17.467  -1.269  0.00  0.00    -0.271 OA
ATOM     19  N   UNL d   1      21.060 -19.379  -0.004  0.00  0.00    -0.278 N 
ATOM     20  C   UNL d   1      19.781 -19.812  -0.235  0.00  0.00     0.320 C 
ATOM     21  H   UNL d   1      21.604 -19.977   0.606  0.00  0.00     0.173 HD
ATOM     22  N   UNL d   1      19.015 -19.040  -1.038  0.00  0.00    -0.352 N 
ATOM     23  O   UNL d   1      19.344 -20.851   0.259  0.00  0.00    -0.247 OA
ATOM     24  H   UNL d   1      19.401 -18.189  -1.442  0.00  0.00     0.160 HD
ATOM     25  H   UNL d   1      18.063 -19.296  -1.251  0.00  0.00     0.160 HD
ENDBRANCH  15  17
ENDBRANCH   1  15
TORSDOF 5
ENDMDL
MODEL 5
REMARK VINA RESULT:    -7.020      1.661      2.318
REMARK INTER + INTRA:          -9.374
REMARK INTER:                  -8.512
REMARK INTRA:                  -0.863
REMARK CONF_INDEPENDENT:        1.492
REMARK UNBOUND:                -0.863
REMARK  5 active torsions:
REMARK  status: ('A' for Active; 'I' for Inactive)
REMARK    1  A    between atoms: C_4  and  S_5 
REMARK    2  A    between atoms: S_5  and  C_6 
REMARK    3  A    between atoms: C_12  and  N_13 
REMARK    4  A    between atoms: C_14  and  N_13 
REMARK    5  A    between atoms: C_14  and  C_16 
REMARK       I    between atoms: C_16  and  N_18 
REMARK       I    between atoms: N_18  and  C_19 
REMARK       I    between atoms: C_19  and  N_20 
ROOT
ATOM      1  N   UNL d   1      22.821 -17.148  -0.356  0.00  0.00    -0.377 N 
ATOM      2  H   UNL d   1      22.016 -16.544  -0.486  0.00  0.00     0.160 HD
ENDROOT
BRANCH   1   3
ATOM      3  C   UNL d   1      24.032 -16.654  -0.857  0.00  0.00     0.034 A 
ATOM      4  C   UNL d   1      24.041 -15.689  -1.857  0.00  0.00     0.031 A 
ATOM      5  C   UNL d   1      25.215 -15.204  -2.408  0.00  0.00     0.021 A 
ATOM      6  C   UNL d   1      26.459 -15.695  -2.052  0.00  0.00     0.002 A 
ATOM      7  C   UNL d   1      26.480 -16.685  -1.062  0.00  0.00     0.027 A 
ATOM      8  C   UNL d   1      25.285 -17.164  -0.461  0.00  0.00    -0.034 A 
ATOM      9  C   UNL d   1      25.385 -18.199   0.623  0.00  0.00     0.050 C 
BRANCH   6  10
ATOM     10  S   UNL d   1      28.001 -15.162  -2.781  0.00  0.00    -0.121 SA
BRANCH  10  11
ATOM     11  C   UNL d   1      29.072 -14.563  -1.378  0.00  0.00     0.002 C 
ATOM     12  C   UNL d   1      30.095 -13.516  -1.856  0.00  0.00     0.026 C 
ATOM     13  C   UNL d   1      28.213 -14.098  -0.190  0.00  0.00     0.026 C 
ATOM     14  C   UNL d   1      29.886 -15.779  -0.886  0.00  0.00     0.026 C 
ENDBRANCH  10  11
ENDBRANCH   6  10
ENDBRANCH   1   3
BRANCH   1  15
ATOM     15  C   UNL d   1      22.558 -18.606  -0.377  0.00  0.00     0.170 C 
ATOM     16  C   UNL d   1      23.257 -19.323  -1.547  0.00  0.00     0.042 C 
BRANCH  15  17
ATOM     17  C   UNL d   1      21.052 -18.915  -0.488  0.00  0.00     0.247 C 
ATOM     18  O   UNL d   1      20.308 -18.234  -1.197  0.00  0.00    -0.271 OA
ATOM     19  N   UNL d   1      20.602 -20.028   0.201  0.00  0.00    -0.278 N 
ATOM     20  C   UNL d   1      19.314 -20.495   0.213  0.00  0.00     0.320 C 
ATOM     21  H   UNL d   1      21.250 -20.563   0.764  0.00  0.00     0.173 HD
ATOM     22  N   UNL d   1      18.412 -19.806  -0.520  0.00  0.00    -0.352 N 
ATOM     23  O   UNL d   1      18.988 -21.492   0.856  0.00  0.00    -0.247 OA
ATOM     24  H   UNL d   1      18.707 -18.988  -1.050  0.00  0.00     0.160 HD
ATOM     25  H   UNL d   1      17.445 -20.091  -0.557  0.00  0.00     0.160 HD
ENDBRANCH  15  17
ENDBRANCH   1  15
TORSDOF 5
ENDMDL
MODEL 6
REMARK VINA RESULT:    -6.920      1.528      2.035
REMARK INTER + INTRA:          -9.071
REMARK INTER:                  -8.412
REMARK INTRA:                  -0.660
REMARK CONF_INDEPENDENT:        1.492
REMARK UNBOUND:                -0.660
REMARK  5 active torsions:
REMARK  status: ('A' for Active; 'I' for Inactive)
REMARK    1  A    between atoms: C_4  and  S_5 
REMARK    2  A    between atoms: S_5  and  C_6 
REMARK    3  A    between atoms: C_12  and  N_13 
REMARK    4  A    between atoms: C_14  and  N_13 
REMARK    5  A    between atoms: C_14  and  C_16 
REMARK       I    between atoms: C_16  and  N_18 
REMARK       I    between atoms: N_18  and  C_19 
REMARK       I    between atoms: C_19  and  N_20 
ROOT
ATOM      1  N   UNL d   1      24.040 -17.384  -1.626  0.00  0.00    -0.377 N 
ATOM      2  H   UNL d   1      24.378 -18.248  -2.037  0.00  0.00     0.160 HD
ENDROOT
BRANCH   1   3
ATOM      3  C   UNL d   1      24.861 -16.265  -1.816  0.00  0.00     0.034 A 
ATOM      4  C   UNL d   1      24.403 -15.167  -2.535  0.00  0.00     0.031 A 
ATOM      5  C   UNL d   1      25.197 -14.059  -2.781  0.00  0.00     0.021 A 
ATOM      6  C   UNL d   1      26.523 -13.996  -2.390  0.00  0.00     0.002 A 
ATOM      7  C   UNL d   1      27.019 -15.098  -1.683  0.00  0.00     0.027 A 
ATOM      8  C   UNL d   1      26.204 -16.225  -1.390  0.00  0.00    -0.034 A 
ATOM      9  C   UNL d   1      26.792 -17.355  -0.593  0.00  0.00     0.050 C 
BRANCH   6  10
ATOM     10  S   UNL d   1      27.616 -12.626  -2.743  0.00  0.00    -0.121 SA
BRANCH  10  11
ATOM     11  C   UNL d   1      27.436 -12.260  -4.562  0.00  0.00     0.002 C 
ATOM     12  C   UNL d   1      28.562 -11.339  -5.066  0.00  0.00     0.026 C 
ATOM     13  C   UNL d   1      27.281 -13.558  -5.373  0.00  0.00     0.026 C 
ATOM     14  C   UNL d   1      26.118 -11.473  -4.731  0.00  0.00     0.026 C 
ENDBRANCH  10  11
ENDBRANCH   6  10
ENDBRANCH   1   3
BRANCH   1  15
ATOM     15  C   UNL d   1      23.254 -17.514  -0.378  0.00  0.00     0.170 C 
ATOM     16  C   UNL d   1      23.826 -18.575   0.582  0.00  0.00     0.042 C 
BRANCH  15  17
ATOM     17  C   UNL d   1      21.789 -17.899  -0.661  0.00  0.00     0.247 C 
ATOM     18  O   UNL d   1      21.030 -17.137  -1.265  0.00  0.00    -0.271 OA
ATOM     19  N   UNL d   1      21.397 -19.163  -0.255  0.00  0.00    -0.278 N 
ATOM     20  C   UNL d   1      20.156 -19.713  -0.436  0.00  0.00     0.320 C 
ATOM     21  H   UNL d   1      22.056 -19.759   0.230  0.00  0.00     0.173 HD
ATOM     22  N   UNL d   1      19.240 -18.950  -1.072  0.00  0.00    -0.352 N 
ATOM     23  O   UNL d   1      19.880 -20.846  -0.041  0.00  0.00    -0.247 OA
ATOM     24  H   UNL d   1      19.493 -18.018  -1.396  0.00  0.00     0.160 HD
ATOM     25  H   UNL d   1      18.305 -19.289  -1.238  0.00  0.00     0.160 HD
ENDBRANCH  15  17
ENDBRANCH   1  15
TORSDOF 5
ENDMDL
MODEL 7
REMARK VINA RESULT:    -6.790      1.429      2.275
REMARK INTER + INTRA:          -9.343
REMARK INTER:                  -8.282
REMARK INTRA:                  -1.062
REMARK CONF_INDEPENDENT:        1.492
REMARK UNBOUND:                -1.062
REMARK  5 active torsions:
REMARK  status: ('A' for Active; 'I' for Inactive)
REMARK    1  A    between atoms: C_4  and  S_5 
REMARK    2  A    between atoms: S_5  and  C_6 
REMARK    3  A    between atoms: C_12  and  N_13 
REMARK    4  A    between atoms: C_14  and  N_13 
REMARK    5  A    between atoms: C_14  and  C_16 
REMARK       I    between atoms: C_16  and  N_18 
REMARK       I    between atoms: N_18  and  C_19 
REMARK       I    between atoms: C_19  and  N_20 
ROOT
ATOM      1  N   UNL d   1      22.450 -18.380   0.677  0.00  0.00    -0.377 N 
ATOM      2  H   UNL d   1      21.974 -17.754   1.318  0.00  0.00     0.160 HD
ENDROOT
BRANCH   1   3
ATOM      3  C   UNL d   1      23.547 -17.830   0.001  0.00  0.00     0.034 A 
ATOM      4  C   UNL d   1      24.803 -18.417   0.099  0.00  0.00     0.031 A 
ATOM      5  C   UNL d   1      25.920 -17.881  -0.520  0.00  0.00     0.021 A 
ATOM      6  C   UNL d   1      25.880 -16.689  -1.219  0.00  0.00     0.002 A 
ATOM      7  C   UNL d   1      24.631 -16.062  -1.315  0.00  0.00     0.027 A 
ATOM      8  C   UNL d   1      23.469 -16.621  -0.718  0.00  0.00    -0.034 A 
ATOM      9  C   UNL d   1      22.155 -15.914  -0.895  0.00  0.00     0.050 C 
BRANCH   6  10
ATOM     10  S   UNL d   1      27.302 -15.912  -1.974  0.00  0.00    -0.121 SA
BRANCH  10  11
ATOM     11  C   UNL d   1      26.650 -14.821  -3.336  0.00  0.00     0.002 C 
ATOM     12  C   UNL d   1      25.657 -15.576  -4.238  0.00  0.00     0.026 C 
ATOM     13  C   UNL d   1      26.098 -13.502  -2.769  0.00  0.00     0.026 C 
ATOM     14  C   UNL d   1      27.855 -14.449  -4.227  0.00  0.00     0.026 C 
ENDBRANCH  10  11
ENDBRANCH   6  10
ENDBRANCH   1   3
BRANCH   1  15
ATOM     15  C   UNL d   1      21.608 -19.396   0.006  0.00  0.00     0.170 C 
ATOM     16  C   UNL d   1      21.121 -18.946  -1.384  0.00  0.00     0.042 C 
BRANCH  15  17
ATOM     17  C   UNL d   1      20.357 -19.743   0.836  0.00  0.00     0.247 C 
ATOM     18  O   UNL d   1      20.112 -19.167   1.899  0.00  0.00    -0.271 OA
ATOM     19  N   UNL d   1      19.501 -20.686   0.293  0.00  0.00    -0.278 N 
ATOM     20  C   UNL d   1      18.324 -21.114   0.848  0.00  0.00     0.320 C 
ATOM     21  H   UNL d   1      19.737 -21.126  -0.587  0.00  0.00     0.173 HD
ATOM     22  N   UNL d   1      17.972 -20.557   2.028  0.00  0.00    -0.352 N 
ATOM     23  O   UNL d   1      17.617 -21.962   0.305  0.00  0.00    -0.247 OA
ATOM     24  H   UNL d   1      18.570 -19.852   2.455  0.00  0.00     0.160 HD
ATOM     25  H   UNL d   1      17.121 -20.825   2.496  0.00  0.00     0.160 HD
ENDBRANCH  15  17
ENDBRANCH   1  15
TORSDOF 5
ENDMDL
MODEL 8
REMARK VINA RESULT:    -6.409      1.771      2.448
REMARK INTER + INTRA:          -8.992
REMARK INTER:                  -7.901
REMARK INTRA:                  -1.092
REMARK CONF_INDEPENDENT:        1.492
REMARK UNBOUND:                -1.092
REMARK  5 active torsions:
REMARK  status: ('A' for Active; 'I' for Inactive)
REMARK    1  A    between atoms: C_4  and  S_5 
REMARK    2  A    between atoms: S_5  and  C_6 
REMARK    3  A    between atoms: C_12  and  N_13 
REMARK    4  A    between atoms: C_14  and  N_13 
REMARK    5  A    between atoms: C_14  and  C_16 
REMARK       I    between atoms: C_16  and  N_18 
REMARK       I    between atoms: N_18  and  C_19 
REMARK       I    between atoms: C_19  and  N_20 
ROOT
ATOM      1  N   UNL d   1      24.537 -17.817  -1.106  0.00  0.00    -0.377 N 
ATOM      2  H   UNL d   1      24.836 -18.312  -0.271  0.00  0.00     0.160 HD
ENDROOT
BRANCH   1   3
ATOM      3  C   UNL d   1      25.451 -16.883  -1.611  0.00  0.00     0.034 A 
ATOM      4  C   UNL d   1      25.155 -16.154  -2.757  0.00  0.00     0.031 A 
ATOM      5  C   UNL d   1      26.047 -15.252  -3.311  0.00  0.00     0.021 A 
ATOM      6  C   UNL d   1      27.321 -15.063  -2.806  0.00  0.00     0.002 A 
ATOM      7  C   UNL d   1      27.656 -15.801  -1.664  0.00  0.00     0.027 A 
ATOM      8  C   UNL d   1      26.736 -16.701  -1.061  0.00  0.00    -0.034 A 
ATOM      9  C   UNL d   1      27.149 -17.430   0.185  0.00  0.00     0.050 C 
BRANCH   6  10
ATOM     10  S   UNL d   1      28.540 -13.969  -3.522  0.00  0.00    -0.121 SA
BRANCH  10  11
ATOM     11  C   UNL d   1      29.168 -14.810  -5.062  0.00  0.00     0.002 C 
ATOM     12  C   UNL d   1      30.440 -14.128  -5.599  0.00  0.00     0.026 C 
ATOM     13  C   UNL d   1      29.320 -16.325  -4.839  0.00  0.00     0.026 C 
ATOM     14  C   UNL d   1      28.083 -14.630  -6.145  0.00  0.00     0.026 C 
ENDBRANCH  10  11
ENDBRANCH   6  10
ENDBRANCH   1   3
BRANCH   1  15
ATOM     15  C   UNL d   1      23.084 -17.567  -1.235  0.00  0.00     0.170 C 
ATOM     16  C   UNL d   1      22.642 -16.249  -0.570  0.00  0.00     0.042 C 
BRANCH  15  17
ATOM     17  C   UNL d   1      22.249 -18.697  -0.603  0.00  0.00     0.247 C 
ATOM     18  O   UNL d   1      22.735 -19.465   0.230  0.00  0.00    -0.271 OA
ATOM     19  N   UNL d   1      20.918 -18.761  -0.978  0.00  0.00    -0.278 N 
ATOM     20  C   UNL d   1      19.998 -19.664  -0.515  0.00  0.00     0.320 C 
ATOM     21  H   UNL d   1      20.559 -18.104  -1.659  0.00  0.00     0.173 HD
ATOM     22  N   UNL d   1      20.435 -20.566   0.391  0.00  0.00    -0.352 N 
ATOM     23  O   UNL d   1      18.829 -19.660  -0.901  0.00  0.00    -0.247 OA
ATOM     24  H   UNL d   1      21.405 -20.544   0.700  0.00  0.00     0.160 HD
ATOM     25  H   UNL d   1      19.814 -21.262   0.774  0.00  0.00     0.160 HD
ENDBRANCH  15  17
ENDBRANCH   1  15
TORSDOF 5
ENDMDL
MODEL 9
REMARK VINA RESULT:    -6.340      2.730      3.720
REMARK INTER + INTRA:          -8.918
REMARK INTER:                  -7.832
REMARK INTRA:                  -1.086
REMARK CONF_INDEPENDENT:        1.492
REMARK UNBOUND:                -1.086
REMARK  5 active torsions:
REMARK  status: ('A' for Active; 'I' for Inactive)
REMARK    1  A    between atoms: C_4  and  S_5 
REMARK    2  A    between atoms: S_5  and  C_6 
REMARK    3  A    between atoms: C_12  and  N_13 
REMARK    4  A    between atoms: C_14  and  N_13 
REMARK    5  A    between atoms: C_14  and  C_16 
REMARK       I    between atoms: C_16  and  N_18 
REMARK       I    between atoms: N_18  and  C_19 
REMARK       I    between atoms: C_19  and  N_20 
ROOT
ATOM      1  N   UNL d   1      24.490 -17.870  -1.248  0.00  0.00    -0.377 N 
ATOM      2  H   UNL d   1      24.757 -18.812  -0.984  0.00  0.00     0.160 HD
ENDROOT
BRANCH   1   3
ATOM      3  C   UNL d   1      25.396 -16.864  -0.886  0.00  0.00     0.034 A 
ATOM      4  C   UNL d   1      25.452 -15.674  -1.602  0.00  0.00     0.031 A 
ATOM      5  C   UNL d   1      26.360 -14.672  -1.302  0.00  0.00     0.021 A 
ATOM      6  C   UNL d   1      27.320 -14.812  -0.317  0.00  0.00     0.002 A 
ATOM      7  C   UNL d   1      27.303 -16.011   0.406  0.00  0.00     0.027 A 
ATOM      8  C   UNL d   1      26.351 -17.031   0.136  0.00  0.00    -0.034 A 
ATOM      9  C   UNL d   1      26.366 -18.275   0.978  0.00  0.00     0.050 C 
BRANCH   6  10
ATOM     10  S   UNL d   1      28.564 -13.586   0.064  0.00  0.00    -0.121 SA
BRANCH  10  11
ATOM     11  C   UNL d   1      27.971 -12.683   1.582  0.00  0.00     0.002 C 
ATOM     12  C   UNL d   1      28.654 -13.212   2.856  0.00  0.00     0.026 C 
ATOM     13  C   UNL d   1      28.088 -11.160   1.398  0.00  0.00     0.026 C 
ATOM     14  C   UNL d   1      26.466 -12.996   1.730  0.00  0.00     0.026 C 
ENDBRANCH  10  11
ENDBRANCH   6  10
ENDBRANCH   1   3
BRANCH   1  15
ATOM     15  C   UNL d   1      23.038 -17.580  -1.265  0.00  0.00     0.170 C 
ATOM     16  C   UNL d   1      22.677 -16.286  -0.511  0.00  0.00     0.042 C 
BRANCH  15  17
ATOM     17  C   UNL d   1      22.219 -18.720  -0.631  0.00  0.00     0.247 C 
ATOM     18  O   UNL d   1      22.720 -19.491   0.190  0.00  0.00    -0.271 OA
ATOM     19  N   UNL d   1      20.883 -18.789  -0.990  0.00  0.00    -0.278 N 
ATOM     20  C   UNL d   1      19.975 -19.701  -0.522  0.00  0.00     0.320 C 
ATOM     21  H   UNL d   1      20.512 -18.129  -1.662  0.00  0.00     0.173 HD
ATOM     22  N   UNL d   1      20.429 -20.606   0.372  0.00  0.00    -0.352 N 
ATOM     23  O   UNL d   1      18.801 -19.701  -0.892  0.00  0.00    -0.247 OA
ATOM     24  H   UNL d   1      21.402 -20.581   0.670  0.00  0.00     0.160 HD
ATOM     25  H   UNL d   1      19.817 -21.309   0.758  0.00  0.00     0.160 HD
ENDBRANCH  15  17
ENDBRANCH   1  15
TORSDOF 5
ENDMDL
