MODEL 1
REMARK VINA RESULT:   -11.014      0.000      0.000
REMARK INTER + INTRA:         -15.224
REMARK INTER:                 -13.997
REMARK INTRA:                  -1.227
REMARK CONF_INDEPENDENT:        2.983
REMARK UNBOUND:                -1.227
REMARK  10 active torsions:
REMARK  status: ('A' for Active; 'I' for Inactive)
REMARK    1  A    between atoms: C_2  and  C_29 
REMARK    2  A    between atoms: N_3  and  N_4 
REMARK    3  A    between atoms: N_4  and  C_5 
REMARK    4  A    between atoms: C_7  and  S_8 
REMARK    5  A    between atoms: S_8  and  C_9 
REMARK    6  A    between atoms: C_9  and  C_10 
REMARK       I    between atoms: C_10  and  N_12 
REMARK    7  A    between atoms: N_12  and  C_13 
REMARK    8  A    between atoms: C_16  and  S_17 
REMARK    9  A    between atoms: S_17  and  N_20 
REMARK   10  A    between atoms: N_20  and  C_21 
ROOT
ATOM      1  C   UNL d   1      29.422 -15.119  -0.319  0.00  0.00     0.185 C 
ENDROOT
BRANCH   1   2
ATOM      2  S   UNL d   1      29.647 -13.392   0.246  0.00  0.00    -0.079 SA
BRANCH   2   3
ATOM      3  C   UNL d   1      29.685 -13.438   1.980  0.00  0.00     0.226 A 
ATOM      4  N   UNL d   1      30.752 -13.105   2.765  0.00  0.00    -0.034 NA
ATOM      5  C   UNL d   1      30.300 -13.281   3.992  0.00  0.00     0.739 A 
ATOM      6  N   UNL d   1      29.000 -13.707   3.920  0.00  0.00    -0.103 N 
ATOM      7  N   UNL d   1      28.585 -13.806   2.650  0.00  0.00    -0.132 NA
ATOM      8  H   UNL d   1      28.341 -13.866   4.673  0.00  0.00     0.208 HD
BRANCH   5   9
ATOM      9  N   UNL d   1      30.887 -13.065   5.196  0.00  0.00    -0.106 N 
ATOM     10  H   UNL d   1      31.853 -12.754   5.207  0.00  0.00     0.208 HD
BRANCH   9  11
ATOM     11  N   UNL d   1      30.272 -13.421   6.360  0.00  0.00    -0.164 NA
ATOM     12  C   UNL d   1      29.741 -12.524   7.142  0.00  0.00     0.061 C 
ATOM     13  C   UNL d   1      29.712 -11.032   6.889  0.00  0.00     0.073 C 
BRANCH  12  14
ATOM     14  C   UNL d   1      29.114 -12.991   8.425  0.00  0.00    -0.010 A 
ATOM     15  C   UNL d   1      29.222 -14.339   8.785  0.00  0.00     0.013 A 
ATOM     16  C   UNL d   1      28.572 -14.819   9.927  0.00  0.00     0.001 A 
ATOM     17  C   UNL d   1      27.865 -13.945  10.751  0.00  0.00     0.000 A 
ATOM     18  C   UNL d   1      27.771 -12.596  10.410  0.00  0.00     0.001 A 
ATOM     19  C   UNL d   1      28.389 -12.118   9.247  0.00  0.00     0.013 A 
ENDBRANCH  12  14
ENDBRANCH   9  11
ENDBRANCH   5   9
ENDBRANCH   2   3
ENDBRANCH   1   2
BRANCH   1  20
ATOM     20  C   UNL d   1      27.902 -15.417  -0.398  0.00  0.00     0.231 C 
ATOM     21  O   UNL d   1      27.065 -14.515  -0.483  0.00  0.00    -0.272 OA
ATOM     22  N   UNL d   1      27.520 -16.760  -0.330  0.00  0.00    -0.327 N 
ATOM     23  H   UNL d   1      28.187 -17.464  -0.036  0.00  0.00     0.169 HD
BRANCH  22  24
ATOM     24  C   UNL d   1      26.159 -17.164  -0.457  0.00  0.00     0.034 A 
ATOM     25  C   UNL d   1      25.321 -16.571  -1.406  0.00  0.00     0.031 A 
ATOM     26  C   UNL d   1      23.976 -16.956  -1.483  0.00  0.00     0.027 A 
ATOM     27  C   UNL d   1      23.478 -17.963  -0.640  0.00  0.00     0.074 A 
ATOM     28  C   UNL d   1      24.287 -18.545   0.319  0.00  0.00     0.027 A 
ATOM     29  C   UNL d   1      25.623 -18.140   0.401  0.00  0.00     0.031 A 
BRANCH  27  30
ATOM     30  S   UNL d   1      21.819 -18.487  -0.930  0.00  0.00     0.242 S 
ATOM     31  O   UNL d   1      21.034 -17.280  -0.896  0.00  0.00    -0.206 OA
ATOM     32  O   UNL d   1      21.896 -19.325  -2.114  0.00  0.00    -0.206 OA
BRANCH  30  33
ATOM     33  N   UNL d   1      21.317 -19.464   0.396  0.00  0.00    -0.207 NA
ATOM     34  H   UNL d   1      21.597 -19.018   1.271  0.00  0.00     0.140 HD
BRANCH  33  35
ATOM     35  C   UNL d   1      19.841 -19.827   0.438  0.00  0.00     0.014 C 
ATOM     36  C   UNL d   1      19.146 -19.319  -0.829  0.00  0.00     0.032 C 
ATOM     37  C   UNL d   1      19.648 -21.336   0.606  0.00  0.00     0.032 C 
ATOM     38  C   UNL d   1      19.169 -19.139   1.643  0.00  0.00     0.032 C 
ENDBRANCH  33  35
ENDBRANCH  30  33
ENDBRANCH  27  30
ENDBRANCH  22  24
ENDBRANCH   1  20
TORSDOF 10
ENDMDL
MODEL 2
REMARK VINA RESULT:    -9.891      5.807      8.683
REMARK INTER + INTRA:         -15.825
REMARK INTER:                 -12.874
REMARK INTRA:                  -2.950
REMARK CONF_INDEPENDENT:        2.983
REMARK UNBOUND:                -2.950
REMARK  10 active torsions:
REMARK  status: ('A' for Active; 'I' for Inactive)
REMARK    1  A    between atoms: C_2  and  C_29 
REMARK    2  A    between atoms: N_3  and  N_4 
REMARK    3  A    between atoms: N_4  and  C_5 
REMARK    4  A    between atoms: C_7  and  S_8 
REMARK    5  A    between atoms: S_8  and  C_9 
REMARK    6  A    between atoms: C_9  and  C_10 
REMARK       I    between atoms: C_10  and  N_12 
REMARK    7  A    between atoms: N_12  and  C_13 
REMARK    8  A    between atoms: C_16  and  S_17 
REMARK    9  A    between atoms: S_17  and  N_20 
REMARK   10  A    between atoms: N_20  and  C_21 
ROOT
ATOM      1  C   UNL d   1      32.217 -18.502  -4.748  0.00  0.00     0.185 C 
ENDROOT
BRANCH   1   2
ATOM      2  S   UNL d   1      32.990 -17.950  -3.182  0.00  0.00    -0.079 SA
BRANCH   2   3
ATOM      3  C   UNL d   1      31.764 -18.054  -1.960  0.00  0.00     0.226 A 
ATOM      4  N   UNL d   1      30.987 -17.022  -1.516  0.00  0.00    -0.034 NA
ATOM      5  C   UNL d   1      30.208 -17.586  -0.615  0.00  0.00     0.739 A 
ATOM      6  N   UNL d   1      30.524 -18.916  -0.536  0.00  0.00    -0.103 N 
ATOM      7  N   UNL d   1      31.506 -19.239  -1.388  0.00  0.00    -0.132 NA
ATOM      8  H   UNL d   1      30.074 -19.647   0.002  0.00  0.00     0.208 HD
BRANCH   5   9
ATOM      9  N   UNL d   1      29.197 -17.075   0.134  0.00  0.00    -0.106 N 
ATOM     10  H   UNL d   1      29.438 -16.579   0.985  0.00  0.00     0.208 HD
BRANCH   9  11
ATOM     11  N   UNL d   1      27.894 -17.366  -0.140  0.00  0.00    -0.164 NA
ATOM     12  C   UNL d   1      26.951 -16.490   0.067  0.00  0.00     0.061 C 
ATOM     13  C   UNL d   1      27.146 -15.087   0.600  0.00  0.00     0.073 C 
BRANCH  12  14
ATOM     14  C   UNL d   1      25.535 -16.896  -0.224  0.00  0.00    -0.010 A 
ATOM     15  C   UNL d   1      25.088 -18.156   0.194  0.00  0.00     0.013 A 
ATOM     16  C   UNL d   1      23.803 -18.596  -0.142  0.00  0.00     0.001 A 
ATOM     17  C   UNL d   1      22.935 -17.758  -0.841  0.00  0.00     0.000 A 
ATOM     18  C   UNL d   1      23.366 -16.494  -1.242  0.00  0.00     0.001 A 
ATOM     19  C   UNL d   1      24.665 -16.064  -0.941  0.00  0.00     0.013 A 
ENDBRANCH  12  14
ENDBRANCH   9  11
ENDBRANCH   5   9
ENDBRANCH   2   3
ENDBRANCH   1   2
BRANCH   1  20
ATOM     20  C   UNL d   1      30.860 -17.768  -4.912  0.00  0.00     0.231 C 
ATOM     21  O   UNL d   1      30.030 -18.116  -5.755  0.00  0.00    -0.272 OA
ATOM     22  N   UNL d   1      30.637 -16.667  -4.081  0.00  0.00    -0.327 N 
ATOM     23  H   UNL d   1      31.404 -16.259  -3.561  0.00  0.00     0.169 HD
BRANCH  22  24
ATOM     24  C   UNL d   1      29.404 -15.952  -4.093  0.00  0.00     0.034 A 
ATOM     25  C   UNL d   1      28.627 -15.844  -2.935  0.00  0.00     0.031 A 
ATOM     26  C   UNL d   1      27.399 -15.172  -2.982  0.00  0.00     0.027 A 
ATOM     27  C   UNL d   1      26.965 -14.571  -4.175  0.00  0.00     0.074 A 
ATOM     28  C   UNL d   1      27.710 -14.686  -5.335  0.00  0.00     0.027 A 
ATOM     29  C   UNL d   1      28.925 -15.376  -5.282  0.00  0.00     0.031 A 
BRANCH  27  30
ATOM     30  S   UNL d   1      25.488 -13.611  -4.084  0.00  0.00     0.242 S 
ATOM     31  O   UNL d   1      24.461 -14.450  -4.645  0.00  0.00    -0.206 OA
ATOM     32  O   UNL d   1      25.436 -13.138  -2.712  0.00  0.00    -0.206 OA
BRANCH  30  33
ATOM     33  N   UNL d   1      25.661 -12.247  -5.122  0.00  0.00    -0.207 NA
ATOM     34  H   UNL d   1      24.737 -11.937  -5.429  0.00  0.00     0.140 HD
BRANCH  33  35
ATOM     35  C   UNL d   1      26.452 -11.077  -4.562  0.00  0.00     0.014 C 
ATOM     36  C   UNL d   1      25.603 -10.323  -3.533  0.00  0.00     0.032 C 
ATOM     37  C   UNL d   1      27.774 -11.547  -3.949  0.00  0.00     0.032 C 
ATOM     38  C   UNL d   1      26.795 -10.088  -5.694  0.00  0.00     0.032 C 
ENDBRANCH  33  35
ENDBRANCH  30  33
ENDBRANCH  27  30
ENDBRANCH  22  24
ENDBRANCH   1  20
TORSDOF 10
ENDMDL
MODEL 3
REMARK VINA RESULT:    -8.893      6.797      9.591
REMARK INTER + INTRA:         -14.020
REMARK INTER:                 -11.876
REMARK INTRA:                  -2.144
REMARK CONF_INDEPENDENT:        2.983
REMARK UNBOUND:                -2.144
REMARK  10 active torsions:
REMARK  status: ('A' for Active; 'I' for Inactive)
REMARK    1  A    between atoms: C_2  and  C_29 
REMARK    2  A    between atoms: N_3  and  N_4 
REMARK    3  A    between atoms: N_4  and  C_5 
REMARK    4  A    between atoms: C_7  and  S_8 
REMARK    5  A    between atoms: S_8  and  C_9 
REMARK    6  A    between atoms: C_9  and  C_10 
REMARK       I    between atoms: C_10  and  N_12 
REMARK    7  A    between atoms: N_12  and  C_13 
REMARK    8  A    between atoms: C_16  and  S_17 
REMARK    9  A    between atoms: S_17  and  N_20 
REMARK   10  A    between atoms: N_20  and  C_21 
ROOT
ATOM      1  C   UNL d   1      30.591 -18.001  -5.143  0.00  0.00     0.185 C 
ENDROOT
BRANCH   1   2
ATOM      2  S   UNL d   1      31.757 -17.601  -3.789  0.00  0.00    -0.079 SA
BRANCH   2   3
ATOM      3  C   UNL d   1      30.871 -17.766  -2.306  0.00  0.00     0.226 A 
ATOM      4  N   UNL d   1      29.923 -16.900  -1.840  0.00  0.00    -0.034 NA
ATOM      5  C   UNL d   1      29.531 -17.451  -0.708  0.00  0.00     0.739 A 
ATOM      6  N   UNL d   1      30.234 -18.610  -0.521  0.00  0.00    -0.103 N 
ATOM      7  N   UNL d   1      31.087 -18.836  -1.529  0.00  0.00    -0.132 NA
ATOM      8  H   UNL d   1      30.129 -19.308   0.207  0.00  0.00     0.208 HD
BRANCH   5   9
ATOM      9  N   UNL d   1      28.575 -17.075   0.180  0.00  0.00    -0.106 N 
ATOM     10  H   UNL d   1      28.870 -16.590   1.021  0.00  0.00     0.208 HD
BRANCH   9  11
ATOM     11  N   UNL d   1      27.282 -17.487   0.048  0.00  0.00    -0.164 NA
ATOM     12  C   UNL d   1      26.366 -16.687  -0.420  0.00  0.00     0.061 C 
ATOM     13  C   UNL d   1      26.584 -15.261  -0.878  0.00  0.00     0.073 C 
BRANCH  12  14
ATOM     14  C   UNL d   1      24.957 -17.200  -0.501  0.00  0.00    -0.010 A 
ATOM     15  C   UNL d   1      23.936 -16.328  -0.896  0.00  0.00     0.013 A 
ATOM     16  C   UNL d   1      22.602 -16.754  -0.893  0.00  0.00     0.001 A 
ATOM     17  C   UNL d   1      22.289 -18.071  -0.560  0.00  0.00     0.000 A 
ATOM     18  C   UNL d   1      23.303 -18.952  -0.187  0.00  0.00     0.001 A 
ATOM     19  C   UNL d   1      24.635 -18.518  -0.151  0.00  0.00     0.013 A 
ENDBRANCH  12  14
ENDBRANCH   9  11
ENDBRANCH   5   9
ENDBRANCH   2   3
ENDBRANCH   1   2
BRANCH   1  20
ATOM     20  C   UNL d   1      29.911 -16.687  -5.611  0.00  0.00     0.231 C 
ATOM     21  O   UNL d   1      30.018 -16.275  -6.768  0.00  0.00    -0.272 OA
ATOM     22  N   UNL d   1      29.198 -15.970  -4.645  0.00  0.00    -0.327 N 
ATOM     23  H   UNL d   1      29.305 -16.195  -3.664  0.00  0.00     0.169 HD
BRANCH  22  24
ATOM     24  C   UNL d   1      28.477 -14.784  -4.968  0.00  0.00     0.034 A 
ATOM     25  C   UNL d   1      29.145 -13.636  -5.406  0.00  0.00     0.031 A 
ATOM     26  C   UNL d   1      28.418 -12.470  -5.677  0.00  0.00     0.027 A 
ATOM     27  C   UNL d   1      27.018 -12.461  -5.551  0.00  0.00     0.074 A 
ATOM     28  C   UNL d   1      26.344 -13.581  -5.097  0.00  0.00     0.027 A 
ATOM     29  C   UNL d   1      27.081 -14.734  -4.811  0.00  0.00     0.031 A 
BRANCH  27  30
ATOM     30  S   UNL d   1      26.187 -10.996  -6.074  0.00  0.00     0.242 S 
ATOM     31  O   UNL d   1      27.115 -10.333  -6.953  0.00  0.00    -0.206 OA
ATOM     32  O   UNL d   1      24.884 -11.450  -6.525  0.00  0.00    -0.206 OA
BRANCH  30  33
ATOM     33  N   UNL d   1      25.963  -9.979  -4.702  0.00  0.00    -0.207 NA
ATOM     34  H   UNL d   1      26.836  -9.928  -4.172  0.00  0.00     0.140 HD
BRANCH  33  35
ATOM     35  C   UNL d   1      25.436  -8.581  -4.985  0.00  0.00     0.014 C 
ATOM     36  C   UNL d   1      24.136  -8.672  -5.790  0.00  0.00     0.032 C 
ATOM     37  C   UNL d   1      25.229  -7.796  -3.687  0.00  0.00     0.032 C 
ATOM     38  C   UNL d   1      26.456  -7.801  -5.838  0.00  0.00     0.032 C 
ENDBRANCH  33  35
ENDBRANCH  30  33
ENDBRANCH  27  30
ENDBRANCH  22  24
ENDBRANCH   1  20
TORSDOF 10
ENDMDL
MODEL 4
REMARK VINA RESULT:    -8.675      4.145      8.278
REMARK INTER + INTRA:         -14.527
REMARK INTER:                 -11.658
REMARK INTRA:                  -2.870
REMARK CONF_INDEPENDENT:        2.983
REMARK UNBOUND:                -2.870
REMARK  10 active torsions:
REMARK  status: ('A' for Active; 'I' for Inactive)
REMARK    1  A    between atoms: C_2  and  C_29 
REMARK    2  A    between atoms: N_3  and  N_4 
REMARK    3  A    between atoms: N_4  and  C_5 
REMARK    4  A    between atoms: C_7  and  S_8 
REMARK    5  A    between atoms: S_8  and  C_9 
REMARK    6  A    between atoms: C_9  and  C_10 
REMARK       I    between atoms: C_10  and  N_12 
REMARK    7  A    between atoms: N_12  and  C_13 
REMARK    8  A    between atoms: C_16  and  S_17 
REMARK    9  A    between atoms: S_17  and  N_20 
REMARK   10  A    between atoms: N_20  and  C_21 
ROOT
ATOM      1  C   UNL d   1      28.079 -10.258   2.988  0.00  0.00     0.185 C 
ENDROOT
BRANCH   1   2
ATOM      2  S   UNL d   1      27.913 -11.617   4.205  0.00  0.00    -0.079 SA
BRANCH   2   3
ATOM      3  C   UNL d   1      28.369 -13.076   3.385  0.00  0.00     0.226 A 
ATOM      4  N   UNL d   1      27.582 -13.790   2.526  0.00  0.00    -0.034 NA
ATOM      5  C   UNL d   1      28.358 -14.788   2.152  0.00  0.00     0.739 A 
ATOM      6  N   UNL d   1      29.568 -14.658   2.780  0.00  0.00    -0.103 N 
ATOM      7  N   UNL d   1      29.601 -13.571   3.563  0.00  0.00    -0.132 NA
ATOM      8  H   UNL d   1      30.409 -15.211   2.662  0.00  0.00     0.208 HD
BRANCH   5   9
ATOM      9  N   UNL d   1      28.146 -15.799   1.272  0.00  0.00    -0.106 N 
ATOM     10  H   UNL d   1      28.934 -16.126   0.722  0.00  0.00     0.208 HD
BRANCH   9  11
ATOM     11  N   UNL d   1      26.888 -16.246   0.993  0.00  0.00    -0.164 NA
ATOM     12  C   UNL d   1      26.613 -16.812  -0.148  0.00  0.00     0.061 C 
ATOM     13  C   UNL d   1      27.594 -17.062  -1.274  0.00  0.00     0.073 C 
BRANCH  12  14
ATOM     14  C   UNL d   1      25.196 -17.245  -0.396  0.00  0.00    -0.010 A 
ATOM     15  C   UNL d   1      24.242 -16.283  -0.747  0.00  0.00     0.013 A 
ATOM     16  C   UNL d   1      22.898 -16.644  -0.896  0.00  0.00     0.001 A 
ATOM     17  C   UNL d   1      22.510 -17.976  -0.758  0.00  0.00     0.000 A 
ATOM     18  C   UNL d   1      23.460 -18.943  -0.430  0.00  0.00     0.001 A 
ATOM     19  C   UNL d   1      24.800 -18.580  -0.243  0.00  0.00     0.013 A 
ENDBRANCH  12  14
ENDBRANCH   9  11
ENDBRANCH   5   9
ENDBRANCH   2   3
ENDBRANCH   1   2
BRANCH   1  20
ATOM     20  C   UNL d   1      27.337 -10.668   1.689  0.00  0.00     0.231 C 
ATOM     21  O   UNL d   1      26.281 -10.132   1.346  0.00  0.00    -0.272 OA
ATOM     22  N   UNL d   1      27.905 -11.704   0.941  0.00  0.00    -0.327 N 
ATOM     23  H   UNL d   1      28.634 -12.280   1.343  0.00  0.00     0.169 HD
BRANCH  22  24
ATOM     24  C   UNL d   1      27.352 -12.126  -0.303  0.00  0.00     0.034 A 
ATOM     25  C   UNL d   1      26.834 -13.416  -0.457  0.00  0.00     0.031 A 
ATOM     26  C   UNL d   1      26.334 -13.820  -1.701  0.00  0.00     0.027 A 
ATOM     27  C   UNL d   1      26.313 -12.923  -2.783  0.00  0.00     0.074 A 
ATOM     28  C   UNL d   1      26.841 -11.651  -2.654  0.00  0.00     0.027 A 
ATOM     29  C   UNL d   1      27.356 -11.263  -1.413  0.00  0.00     0.031 A 
BRANCH  27  30
ATOM     30  S   UNL d   1      25.514 -13.478  -4.253  0.00  0.00     0.242 S 
ATOM     31  O   UNL d   1      24.286 -14.083  -3.807  0.00  0.00    -0.206 OA
ATOM     32  O   UNL d   1      25.530 -12.329  -5.141  0.00  0.00    -0.206 OA
BRANCH  30  33
ATOM     33  N   UNL d   1      26.474 -14.722  -4.958  0.00  0.00    -0.207 NA
ATOM     34  H   UNL d   1      26.084 -14.976  -5.868  0.00  0.00     0.140 HD
BRANCH  33  35
ATOM     35  C   UNL d   1      27.960 -14.430  -5.083  0.00  0.00     0.014 C 
ATOM     36  C   UNL d   1      28.667 -14.770  -3.767  0.00  0.00     0.032 C 
ATOM     37  C   UNL d   1      28.577 -15.199  -6.254  0.00  0.00     0.032 C 
ATOM     38  C   UNL d   1      28.177 -12.928  -5.352  0.00  0.00     0.032 C 
ENDBRANCH  33  35
ENDBRANCH  30  33
ENDBRANCH  27  30
ENDBRANCH  22  24
ENDBRANCH   1  20
TORSDOF 10
ENDMDL
MODEL 5
REMARK VINA RESULT:    -8.602      6.144      8.965
REMARK INTER + INTRA:         -14.329
REMARK INTER:                 -11.585
REMARK INTRA:                  -2.744
REMARK CONF_INDEPENDENT:        2.983
REMARK UNBOUND:                -2.744
REMARK  10 active torsions:
REMARK  status: ('A' for Active; 'I' for Inactive)
REMARK    1  A    between atoms: C_2  and  C_29 
REMARK    2  A    between atoms: N_3  and  N_4 
REMARK    3  A    between atoms: N_4  and  C_5 
REMARK    4  A    between atoms: C_7  and  S_8 
REMARK    5  A    between atoms: S_8  and  C_9 
REMARK    6  A    between atoms: C_9  and  C_10 
REMARK       I    between atoms: C_10  and  N_12 
REMARK    7  A    between atoms: N_12  and  C_13 
REMARK    8  A    between atoms: C_16  and  S_17 
REMARK    9  A    between atoms: S_17  and  N_20 
REMARK   10  A    between atoms: N_20  and  C_21 
ROOT
ATOM      1  C   UNL d   1      32.682 -20.901  -4.333  0.00  0.00     0.185 C 
ENDROOT
BRANCH   1   2
ATOM      2  S   UNL d   1      33.529 -20.247  -2.847  0.00  0.00    -0.079 SA
BRANCH   2   3
ATOM      3  C   UNL d   1      32.285 -19.783  -1.730  0.00  0.00     0.226 A 
ATOM      4  N   UNL d   1      31.732 -18.539  -1.621  0.00  0.00    -0.034 NA
ATOM      5  C   UNL d   1      30.836 -18.682  -0.665  0.00  0.00     0.739 A 
ATOM      6  N   UNL d   1      30.868 -19.979  -0.227  0.00  0.00    -0.103 N 
ATOM      7  N   UNL d   1      31.778 -20.700  -0.896  0.00  0.00    -0.132 NA
ATOM      8  H   UNL d   1      30.266 -20.439   0.445  0.00  0.00     0.208 HD
BRANCH   5   9
ATOM      9  N   UNL d   1      29.940 -17.804  -0.146  0.00  0.00    -0.106 N 
ATOM     10  H   UNL d   1      30.239 -17.214   0.623  0.00  0.00     0.208 HD
BRANCH   9  11
ATOM     11  N   UNL d   1      28.627 -17.829  -0.515  0.00  0.00    -0.164 NA
ATOM     12  C   UNL d   1      27.799 -16.904  -0.117  0.00  0.00     0.061 C 
ATOM     13  C   UNL d   1      28.148 -15.717   0.756  0.00  0.00     0.073 C 
BRANCH  12  14
ATOM     14  C   UNL d   1      26.361 -17.019  -0.534  0.00  0.00    -0.010 A 
ATOM     15  C   UNL d   1      25.879 -16.189  -1.553  0.00  0.00     0.013 A 
ATOM     16  C   UNL d   1      24.523 -16.211  -1.900  0.00  0.00     0.001 A 
ATOM     17  C   UNL d   1      23.655 -17.107  -1.276  0.00  0.00     0.000 A 
ATOM     18  C   UNL d   1      24.133 -17.952  -0.275  0.00  0.00     0.001 A 
ATOM     19  C   UNL d   1      25.482 -17.906   0.102  0.00  0.00     0.013 A 
ENDBRANCH  12  14
ENDBRANCH   9  11
ENDBRANCH   5   9
ENDBRANCH   2   3
ENDBRANCH   1   2
BRANCH   1  20
ATOM     20  C   UNL d   1      31.599 -19.881  -4.771  0.00  0.00     0.231 C 
ATOM     21  O   UNL d   1      30.692 -20.187  -5.548  0.00  0.00    -0.272 OA
ATOM     22  N   UNL d   1      31.720 -18.581  -4.269  0.00  0.00    -0.327 N 
ATOM     23  H   UNL d   1      32.580 -18.287  -3.823  0.00  0.00     0.169 HD
BRANCH  22  24
ATOM     24  C   UNL d   1      30.752 -17.573  -4.547  0.00  0.00     0.034 A 
ATOM     25  C   UNL d   1      30.639 -17.021  -5.827  0.00  0.00     0.031 A 
ATOM     26  C   UNL d   1      29.708 -16.002  -6.065  0.00  0.00     0.027 A 
ATOM     27  C   UNL d   1      28.859 -15.562  -5.035  0.00  0.00     0.074 A 
ATOM     28  C   UNL d   1      28.972 -16.081  -3.757  0.00  0.00     0.027 A 
ATOM     29  C   UNL d   1      29.919 -17.085  -3.526  0.00  0.00     0.031 A 
BRANCH  27  30
ATOM     30  S   UNL d   1      27.615 -14.395  -5.481  0.00  0.00     0.242 S 
ATOM     31  O   UNL d   1      28.230 -13.552  -6.473  0.00  0.00    -0.206 OA
ATOM     32  O   UNL d   1      26.439 -15.197  -5.770  0.00  0.00    -0.206 OA
BRANCH  30  33
ATOM     33  N   UNL d   1      27.276 -13.410  -4.109  0.00  0.00    -0.207 NA
ATOM     34  H   UNL d   1      28.065 -12.783  -3.940  0.00  0.00     0.140 HD
BRANCH  33  35
ATOM     35  C   UNL d   1      25.977 -12.622  -4.156  0.00  0.00     0.014 C 
ATOM     36  C   UNL d   1      25.901 -11.826  -5.464  0.00  0.00     0.032 C 
ATOM     37  C   UNL d   1      24.766 -13.545  -4.001  0.00  0.00     0.032 C 
ATOM     38  C   UNL d   1      25.938 -11.610  -2.995  0.00  0.00     0.032 C 
ENDBRANCH  33  35
ENDBRANCH  30  33
ENDBRANCH  27  30
ENDBRANCH  22  24
ENDBRANCH   1  20
TORSDOF 10
ENDMDL
MODEL 6
REMARK VINA RESULT:    -8.206      4.486      8.398
REMARK INTER + INTRA:         -14.005
REMARK INTER:                 -11.189
REMARK INTRA:                  -2.816
REMARK CONF_INDEPENDENT:        2.983
REMARK UNBOUND:                -2.816
REMARK  10 active torsions:
REMARK  status: ('A' for Active; 'I' for Inactive)
REMARK    1  A    between atoms: C_2  and  C_29 
REMARK    2  A    between atoms: N_3  and  N_4 
REMARK    3  A    between atoms: N_4  and  C_5 
REMARK    4  A    between atoms: C_7  and  S_8 
REMARK    5  A    between atoms: S_8  and  C_9 
REMARK    6  A    between atoms: C_9  and  C_10 
REMARK       I    between atoms: C_10  and  N_12 
REMARK    7  A    between atoms: N_12  and  C_13 
REMARK    8  A    between atoms: C_16  and  S_17 
REMARK    9  A    between atoms: S_17  and  N_20 
REMARK   10  A    between atoms: N_20  and  C_21 
ROOT
ATOM      1  C   UNL d   1      30.952 -10.987   1.208  0.00  0.00     0.185 C 
ENDROOT
BRANCH   1   2
ATOM      2  S   UNL d   1      30.668 -12.012   2.700  0.00  0.00    -0.079 SA
BRANCH   2   3
ATOM      3  C   UNL d   1      29.422 -13.148   2.291  0.00  0.00     0.226 A 
ATOM      4  N   UNL d   1      29.612 -14.365   1.701  0.00  0.00    -0.034 NA
ATOM      5  C   UNL d   1      28.393 -14.859   1.611  0.00  0.00     0.739 A 
ATOM      6  N   UNL d   1      27.514 -13.949   2.137  0.00  0.00    -0.103 N 
ATOM      7  N   UNL d   1      28.148 -12.856   2.583  0.00  0.00    -0.132 NA
ATOM      8  H   UNL d   1      26.517 -14.041   2.286  0.00  0.00     0.208 HD
BRANCH   5   9
ATOM      9  N   UNL d   1      27.950 -16.057   1.155  0.00  0.00    -0.106 N 
ATOM     10  H   UNL d   1      28.634 -16.789   0.993  0.00  0.00     0.208 HD
BRANCH   9  11
ATOM     11  N   UNL d   1      26.658 -16.231   0.752  0.00  0.00    -0.164 NA
ATOM     12  C   UNL d   1      26.236 -17.388   0.328  0.00  0.00     0.061 C 
ATOM     13  C   UNL d   1      27.061 -18.654   0.234  0.00  0.00     0.073 C 
BRANCH  12  14
ATOM     14  C   UNL d   1      24.810 -17.492  -0.134  0.00  0.00    -0.010 A 
ATOM     15  C   UNL d   1      24.134 -16.329  -0.521  0.00  0.00     0.013 A 
ATOM     16  C   UNL d   1      22.779 -16.383  -0.869  0.00  0.00     0.001 A 
ATOM     17  C   UNL d   1      22.111 -17.606  -0.895  0.00  0.00     0.000 A 
ATOM     18  C   UNL d   1      22.784 -18.772  -0.532  0.00  0.00     0.001 A 
ATOM     19  C   UNL d   1      24.130 -18.717  -0.146  0.00  0.00     0.013 A 
ENDBRANCH  12  14
ENDBRANCH   9  11
ENDBRANCH   5   9
ENDBRANCH   2   3
ENDBRANCH   1   2
BRANCH   1  20
ATOM     20  C   UNL d   1      29.851 -11.317   0.168  0.00  0.00     0.231 C 
ATOM     21  O   UNL d   1      28.994 -10.492  -0.158  0.00  0.00    -0.272 OA
ATOM     22  N   UNL d   1      29.852 -12.612  -0.360  0.00  0.00    -0.327 N 
ATOM     23  H   UNL d   1      30.409 -13.337   0.076  0.00  0.00     0.169 HD
BRANCH  22  24
ATOM     24  C   UNL d   1      28.931 -13.015  -1.370  0.00  0.00     0.034 A 
ATOM     25  C   UNL d   1      27.553 -12.872  -1.182  0.00  0.00     0.031 A 
ATOM     26  C   UNL d   1      26.667 -13.314  -2.173  0.00  0.00     0.027 A 
ATOM     27  C   UNL d   1      27.157 -13.861  -3.371  0.00  0.00     0.074 A 
ATOM     28  C   UNL d   1      28.517 -14.030  -3.564  0.00  0.00     0.027 A 
ATOM     29  C   UNL d   1      29.392 -13.604  -2.560  0.00  0.00     0.031 A 
BRANCH  27  30
ATOM     30  S   UNL d   1      25.965 -14.232  -4.616  0.00  0.00     0.242 S 
ATOM     31  O   UNL d   1      26.683 -14.990  -5.607  0.00  0.00    -0.206 OA
ATOM     32  O   UNL d   1      24.832 -14.783  -3.893  0.00  0.00    -0.206 OA
BRANCH  30  33
ATOM     33  N   UNL d   1      25.473 -12.756  -5.355  0.00  0.00    -0.207 NA
ATOM     34  H   UNL d   1      24.759 -12.310  -4.776  0.00  0.00     0.140 HD
BRANCH  33  35
ATOM     35  C   UNL d   1      26.583 -11.768  -5.679  0.00  0.00     0.014 C 
ATOM     36  C   UNL d   1      26.088 -10.757  -6.718  0.00  0.00     0.032 C 
ATOM     37  C   UNL d   1      27.080 -11.063  -4.415  0.00  0.00     0.032 C 
ATOM     38  C   UNL d   1      27.783 -12.515  -6.293  0.00  0.00     0.032 C 
ENDBRANCH  33  35
ENDBRANCH  30  33
ENDBRANCH  27  30
ENDBRANCH  22  24
ENDBRANCH   1  20
TORSDOF 10
ENDMDL
