MODEL 1
REMARK VINA RESULT:    -8.627      0.000      0.000
REMARK INTER + INTRA:         -11.823
REMARK INTER:                 -10.119
REMARK INTRA:                  -1.704
REMARK CONF_INDEPENDENT:        1.492
REMARK UNBOUND:                -1.704
REMARK  5 active torsions:
REMARK  status: ('A' for Active; 'I' for Inactive)
REMARK    1  A    between atoms: N_4  and  C_5 
REMARK    2  A    between atoms: C_17  and  N_19 
REMARK    3  A    between atoms: N_19  and  C_20 
REMARK    4  A    between atoms: C_20  and  C_21 
REMARK    5  A    between atoms: C_21  and  C_22 
ROOT
ATOM      1  C   UNL d   1      26.789 -11.022   1.771  0.00  0.00     0.073 C 
ATOM      2  C   UNL d   1      27.318 -11.912   2.855  0.00  0.00     0.069 C 
ATOM      3  N   UNL d   1      27.662 -11.478   4.040  0.00  0.00    -0.171 NA
ATOM      4  N   UNL d   1      27.942 -12.621   4.827  0.00  0.00    -0.200 N 
ATOM      5  C   UNL d   1      27.709 -13.816   4.150  0.00  0.00     0.280 C 
ATOM      6  O   UNL d   1      27.739 -14.979   4.541  0.00  0.00    -0.265 OA
ATOM      7  C   UNL d   1      27.473 -13.377   2.741  0.00  0.00     0.081 C 
ATOM      8  C   UNL d   1      27.568 -14.170   1.652  0.00  0.00     0.019 C 
ATOM      9  C   UNL d   1      27.514 -13.642   0.222  0.00  0.00     0.069 C 
ENDROOT
BRANCH   8  10
ATOM     10  N   UNL d   1      27.777 -15.550   1.734  0.00  0.00    -0.392 N 
ATOM     11  H   UNL d   1      27.919 -15.930   2.677  0.00  0.00     0.159 HD
BRANCH  10  12
ATOM     12  C   UNL d   1      28.102 -16.366   0.593  0.00  0.00     0.124 C 
BRANCH  12  13
ATOM     13  C   UNL d   1      26.961 -17.195   0.053  0.00  0.00     0.057 C 
BRANCH  13  14
ATOM     14  C   UNL d   1      26.186 -16.462  -1.009  0.00  0.00    -0.044 A 
ATOM     15  C   UNL d   1      26.604 -15.916  -2.161  0.00  0.00    -0.005 A 
ATOM     16  C   UNL d   1      27.861 -15.809  -2.829  0.00  0.00     0.014 A 
ATOM     17  C   UNL d   1      25.380 -15.381  -2.796  0.00  0.00     0.039 A 
ATOM     18  C   UNL d   1      27.936 -15.181  -4.005  0.00  0.00     0.001 A 
ATOM     19  C   UNL d   1      26.758 -14.634  -4.644  0.00  0.00     0.002 A 
ATOM     20  C   UNL d   1      25.524 -14.711  -4.108  0.00  0.00     0.030 A 
ATOM     21  N   UNL d   1      24.334 -15.596  -2.090  0.00  0.00    -0.381 N 
ATOM     22  C   UNL d   1      24.697 -16.306  -0.837  0.00  0.00     0.108 A 
ATOM     23  H   UNL d   1      23.401 -15.290  -2.360  0.00  0.00     0.160 HD
ATOM     24  C   UNL d   1      24.022 -17.662  -0.752  0.00  0.00     0.037 C 
ENDBRANCH  13  14
ENDBRANCH  12  13
ENDBRANCH  10  12
ENDBRANCH   8  10
BRANCH   4  25
ATOM     25  C   UNL d   1      28.745 -12.488   6.042  0.00  0.00     0.280 C 
ATOM     26  N   UNL d   1      28.008 -12.023   7.205  0.00  0.00    -0.357 N 
ATOM     27  C   UNL d   1      28.440 -12.632   8.383  0.00  0.00     0.047 A 
ATOM     28  H   UNL d   1      27.363 -11.254   7.165  0.00  0.00     0.162 HD
ATOM     29  C   UNL d   1      28.156 -12.198   9.674  0.00  0.00     0.030 A 
ATOM     30  C   UNL d   1      29.243 -13.769   8.216  0.00  0.00     0.030 A 
ATOM     31  C   UNL d   1      28.616 -12.941  10.775  0.00  0.00     0.002 A 
ATOM     32  C   UNL d   1      29.362 -14.110  10.584  0.00  0.00     0.002 A 
ATOM     33  C   UNL d   1      29.691 -14.525   9.294  0.00  0.00     0.021 A 
ATOM     34  S   UNL d   1      29.573 -14.061   6.499  0.00  0.00    -0.079 SA
ENDBRANCH   4  25
TORSDOF 5
ENDMDL
MODEL 2
REMARK VINA RESULT:    -8.500      6.987      8.846
REMARK INTER + INTRA:         -11.991
REMARK INTER:                  -9.991
REMARK INTRA:                  -2.000
REMARK CONF_INDEPENDENT:        1.492
REMARK UNBOUND:                -2.000
REMARK  5 active torsions:
REMARK  status: ('A' for Active; 'I' for Inactive)
REMARK    1  A    between atoms: N_4  and  C_5 
REMARK    2  A    between atoms: C_17  and  N_19 
REMARK    3  A    between atoms: N_19  and  C_20 
REMARK    4  A    between atoms: C_20  and  C_21 
REMARK    5  A    between atoms: C_21  and  C_22 
ROOT
ATOM      1  C   UNL d   1      26.085 -10.776  -5.748  0.00  0.00     0.073 C 
ATOM      2  C   UNL d   1      26.213 -12.120  -5.097  0.00  0.00     0.069 C 
ATOM      3  N   UNL d   1      25.583 -12.451  -3.998  0.00  0.00    -0.171 NA
ATOM      4  N   UNL d   1      25.817 -13.832  -3.795  0.00  0.00    -0.200 N 
ATOM      5  C   UNL d   1      26.559 -14.414  -4.821  0.00  0.00     0.280 C 
ATOM      6  O   UNL d   1      26.854 -15.586  -5.032  0.00  0.00    -0.265 OA
ATOM      7  C   UNL d   1      27.015 -13.241  -5.627  0.00  0.00     0.081 C 
ATOM      8  C   UNL d   1      28.049 -13.250  -6.497  0.00  0.00     0.019 C 
ATOM      9  C   UNL d   1      28.607 -11.988  -7.149  0.00  0.00     0.069 C 
ENDROOT
BRANCH   8  10
ATOM     10  N   UNL d   1      28.740 -14.414  -6.843  0.00  0.00    -0.392 N 
ATOM     11  H   UNL d   1      28.281 -15.301  -6.603  0.00  0.00     0.159 HD
BRANCH  10  12
ATOM     12  C   UNL d   1      30.132 -14.423  -7.209  0.00  0.00     0.124 C 
BRANCH  12  13
ATOM     13  C   UNL d   1      31.074 -14.917  -6.136  0.00  0.00     0.057 C 
BRANCH  13  14
ATOM     14  C   UNL d   1      30.741 -16.317  -5.696  0.00  0.00    -0.044 A 
ATOM     15  C   UNL d   1      30.813 -17.474  -6.372  0.00  0.00    -0.005 A 
ATOM     16  C   UNL d   1      31.210 -17.848  -7.691  0.00  0.00     0.014 A 
ATOM     17  C   UNL d   1      30.402 -18.510  -5.400  0.00  0.00     0.039 A 
ATOM     18  C   UNL d   1      31.162 -19.132  -8.060  0.00  0.00     0.001 A 
ATOM     19  C   UNL d   1      30.750 -20.166  -7.135  0.00  0.00     0.002 A 
ATOM     20  C   UNL d   1      30.385 -19.917  -5.861  0.00  0.00     0.030 A 
ATOM     21  N   UNL d   1      30.120 -18.015  -4.254  0.00  0.00    -0.381 N 
ATOM     22  C   UNL d   1      30.282 -16.539  -4.278  0.00  0.00     0.108 A 
ATOM     23  H   UNL d   1      29.807 -18.573  -3.462  0.00  0.00     0.160 HD
ATOM     24  C   UNL d   1      31.340 -16.080  -3.294  0.00  0.00     0.037 C 
ENDBRANCH  13  14
ENDBRANCH  12  13
ENDBRANCH  10  12
ENDBRANCH   8  10
BRANCH   4  25
ATOM     25  C   UNL d   1      25.620 -14.416  -2.468  0.00  0.00     0.280 C 
ATOM     26  N   UNL d   1      24.351 -15.102  -2.293  0.00  0.00    -0.357 N 
ATOM     27  C   UNL d   1      24.472 -16.240  -1.496  0.00  0.00     0.047 A 
ATOM     28  H   UNL d   1      23.478 -14.713  -2.601  0.00  0.00     0.162 HD
ATOM     29  C   UNL d   1      23.421 -16.932  -0.903  0.00  0.00     0.030 A 
ATOM     30  C   UNL d   1      25.782 -16.691  -1.280  0.00  0.00     0.030 A 
ATOM     31  C   UNL d   1      23.685 -18.098  -0.163  0.00  0.00     0.002 A 
ATOM     32  C   UNL d   1      24.995 -18.567  -0.015  0.00  0.00     0.002 A 
ATOM     33  C   UNL d   1      26.058 -17.852  -0.567  0.00  0.00     0.021 A 
ATOM     34  S   UNL d   1      26.957 -15.592  -2.024  0.00  0.00    -0.079 SA
ENDBRANCH   4  25
TORSDOF 5
ENDMDL
MODEL 3
REMARK VINA RESULT:    -8.021      7.071      8.692
REMARK INTER + INTRA:         -11.785
REMARK INTER:                  -9.513
REMARK INTRA:                  -2.272
REMARK CONF_INDEPENDENT:        1.492
REMARK UNBOUND:                -2.272
REMARK  5 active torsions:
REMARK  status: ('A' for Active; 'I' for Inactive)
REMARK    1  A    between atoms: N_4  and  C_5 
REMARK    2  A    between atoms: C_17  and  N_19 
REMARK    3  A    between atoms: N_19  and  C_20 
REMARK    4  A    between atoms: C_20  and  C_21 
REMARK    5  A    between atoms: C_21  and  C_22 
ROOT
ATOM      1  C   UNL d   1      26.408 -11.074  -5.543  0.00  0.00     0.073 C 
ATOM      2  C   UNL d   1      26.346 -12.432  -4.911  0.00  0.00     0.069 C 
ATOM      3  N   UNL d   1      25.636 -12.698  -3.845  0.00  0.00    -0.171 NA
ATOM      4  N   UNL d   1      25.693 -14.100  -3.657  0.00  0.00    -0.200 N 
ATOM      5  C   UNL d   1      26.402 -14.754  -4.662  0.00  0.00     0.280 C 
ATOM      6  O   UNL d   1      26.563 -15.950  -4.882  0.00  0.00    -0.265 OA
ATOM      7  C   UNL d   1      27.030 -13.634  -5.428  0.00  0.00     0.081 C 
ATOM      8  C   UNL d   1      28.091 -13.757  -6.255  0.00  0.00     0.019 C 
ATOM      9  C   UNL d   1      28.823 -12.564  -6.863  0.00  0.00     0.069 C 
ENDROOT
BRANCH   8  10
ATOM     10  N   UNL d   1      28.651 -14.991  -6.594  0.00  0.00    -0.392 N 
ATOM     11  H   UNL d   1      28.050 -15.813  -6.457  0.00  0.00     0.159 HD
BRANCH  10  12
ATOM     12  C   UNL d   1      30.062 -15.183  -6.809  0.00  0.00     0.124 C 
BRANCH  12  13
ATOM     13  C   UNL d   1      30.506 -16.625  -6.896  0.00  0.00     0.057 C 
BRANCH  13  14
ATOM     14  C   UNL d   1      30.660 -17.249  -5.535  0.00  0.00    -0.044 A 
ATOM     15  C   UNL d   1      30.321 -16.776  -4.325  0.00  0.00    -0.005 A 
ATOM     16  C   UNL d   1      29.710 -15.579  -3.845  0.00  0.00     0.014 A 
ATOM     17  C   UNL d   1      30.675 -17.858  -3.380  0.00  0.00     0.039 A 
ATOM     18  C   UNL d   1      29.506 -15.417  -2.535  0.00  0.00     0.001 A 
ATOM     19  C   UNL d   1      29.857 -16.451  -1.585  0.00  0.00     0.002 A 
ATOM     20  C   UNL d   1      30.409 -17.627  -1.942  0.00  0.00     0.030 A 
ATOM     21  N   UNL d   1      31.172 -18.877  -3.974  0.00  0.00    -0.381 N 
ATOM     22  C   UNL d   1      31.248 -18.633  -5.437  0.00  0.00     0.108 A 
ATOM     23  H   UNL d   1      31.485 -19.714  -3.487  0.00  0.00     0.160 HD
ATOM     24  C   UNL d   1      30.405 -19.628  -6.211  0.00  0.00     0.037 C 
ENDBRANCH  13  14
ENDBRANCH  12  13
ENDBRANCH  10  12
ENDBRANCH   8  10
BRANCH   4  25
ATOM     25  C   UNL d   1      25.372 -14.672  -2.349  0.00  0.00     0.280 C 
ATOM     26  N   UNL d   1      24.006 -15.151  -2.219  0.00  0.00    -0.357 N 
ATOM     27  C   UNL d   1      23.924 -16.309  -1.448  0.00  0.00     0.047 A 
ATOM     28  H   UNL d   1      23.214 -14.621  -2.537  0.00  0.00     0.162 HD
ATOM     29  C   UNL d   1      22.761 -16.837  -0.895  0.00  0.00     0.030 A 
ATOM     30  C   UNL d   1      25.139 -16.968  -1.215  0.00  0.00     0.030 A 
ATOM     31  C   UNL d   1      22.817 -18.045  -0.179  0.00  0.00     0.002 A 
ATOM     32  C   UNL d   1      24.032 -18.720  -0.013  0.00  0.00     0.002 A 
ATOM     33  C   UNL d   1      25.209 -18.173  -0.524  0.00  0.00     0.021 A 
ATOM     34  S   UNL d   1      26.493 -16.055  -1.905  0.00  0.00    -0.079 SA
ENDBRANCH   4  25
TORSDOF 5
ENDMDL
MODEL 4
REMARK VINA RESULT:    -7.704      6.167      8.041
REMARK INTER + INTRA:         -12.374
REMARK INTER:                  -9.196
REMARK INTRA:                  -3.179
REMARK CONF_INDEPENDENT:        1.492
REMARK UNBOUND:                -3.179
REMARK  5 active torsions:
REMARK  status: ('A' for Active; 'I' for Inactive)
REMARK    1  A    between atoms: N_4  and  C_5 
REMARK    2  A    between atoms: C_17  and  N_19 
REMARK    3  A    between atoms: N_19  and  C_20 
REMARK    4  A    between atoms: C_20  and  C_21 
REMARK    5  A    between atoms: C_21  and  C_22 
ROOT
ATOM      1  C   UNL d   1      31.478 -18.615  -1.573  0.00  0.00     0.073 C 
ATOM      2  C   UNL d   1      30.228 -17.789  -1.527  0.00  0.00     0.069 C 
ATOM      3  N   UNL d   1      29.371 -17.835  -0.539  0.00  0.00    -0.171 NA
ATOM      4  N   UNL d   1      28.429 -16.804  -0.770  0.00  0.00    -0.200 N 
ATOM      5  C   UNL d   1      28.726 -16.039  -1.896  0.00  0.00     0.280 C 
ATOM      6  O   UNL d   1      28.204 -15.018  -2.332  0.00  0.00    -0.265 OA
ATOM      7  C   UNL d   1      29.833 -16.800  -2.550  0.00  0.00     0.081 C 
ATOM      8  C   UNL d   1      30.209 -16.671  -3.841  0.00  0.00     0.019 C 
ATOM      9  C   UNL d   1      31.208 -17.603  -4.521  0.00  0.00     0.069 C 
ENDROOT
BRANCH   8  10
ATOM     10  N   UNL d   1      29.678 -15.698  -4.693  0.00  0.00    -0.392 N 
ATOM     11  H   UNL d   1      29.171 -14.928  -4.239  0.00  0.00     0.159 HD
BRANCH  10  12
ATOM     12  C   UNL d   1      29.541 -15.886  -6.113  0.00  0.00     0.124 C 
BRANCH  12  13
ATOM     13  C   UNL d   1      28.963 -14.708  -6.862  0.00  0.00     0.057 C 
BRANCH  13  14
ATOM     14  C   UNL d   1      28.068 -13.871  -5.989  0.00  0.00    -0.044 A 
ATOM     15  C   UNL d   1      27.090 -14.242  -5.148  0.00  0.00    -0.005 A 
ATOM     16  C   UNL d   1      26.527 -15.490  -4.743  0.00  0.00     0.014 A 
ATOM     17  C   UNL d   1      26.608 -12.981  -4.543  0.00  0.00     0.039 A 
ATOM     18  C   UNL d   1      25.530 -15.511  -3.854  0.00  0.00     0.001 A 
ATOM     19  C   UNL d   1      25.027 -14.292  -3.258  0.00  0.00     0.002 A 
ATOM     20  C   UNL d   1      25.513 -13.070  -3.551  0.00  0.00     0.030 A 
ATOM     21  N   UNL d   1      27.245 -11.960  -4.980  0.00  0.00    -0.381 N 
ATOM     22  C   UNL d   1      28.261 -12.376  -5.978  0.00  0.00     0.108 A 
ATOM     23  H   UNL d   1      27.044 -11.006  -4.687  0.00  0.00     0.160 HD
ATOM     24  C   UNL d   1      29.664 -12.021  -5.525  0.00  0.00     0.037 C 
ENDBRANCH  13  14
ENDBRANCH  12  13
ENDBRANCH  10  12
ENDBRANCH   8  10
BRANCH   4  25
ATOM     25  C   UNL d   1      27.126 -16.848  -0.106  0.00  0.00     0.280 C 
ATOM     26  N   UNL d   1      26.061 -16.164  -0.821  0.00  0.00    -0.357 N 
ATOM     27  C   UNL d   1      24.838 -16.825  -0.705  0.00  0.00     0.047 A 
ATOM     28  H   UNL d   1      26.179 -15.253  -1.227  0.00  0.00     0.162 HD
ATOM     29  C   UNL d   1      23.591 -16.288  -1.010  0.00  0.00     0.030 A 
ATOM     30  C   UNL d   1      24.905 -18.140  -0.223  0.00  0.00     0.030 A 
ATOM     31  C   UNL d   1      22.442 -17.088  -0.895  0.00  0.00     0.002 A 
ATOM     32  C   UNL d   1      22.539 -18.419  -0.472  0.00  0.00     0.002 A 
ATOM     33  C   UNL d   1      23.780 -18.950  -0.120  0.00  0.00     0.021 A 
ATOM     34  S   UNL d   1      26.569 -18.567   0.213  0.00  0.00    -0.079 SA
ENDBRANCH   4  25
TORSDOF 5
ENDMDL
MODEL 5
REMARK VINA RESULT:    -7.663      3.071      8.430
REMARK INTER + INTRA:         -11.793
REMARK INTER:                  -9.155
REMARK INTRA:                  -2.638
REMARK CONF_INDEPENDENT:        1.492
REMARK UNBOUND:                -2.638
REMARK  5 active torsions:
REMARK  status: ('A' for Active; 'I' for Inactive)
REMARK    1  A    between atoms: N_4  and  C_5 
REMARK    2  A    between atoms: C_17  and  N_19 
REMARK    3  A    between atoms: N_19  and  C_20 
REMARK    4  A    between atoms: C_20  and  C_21 
REMARK    5  A    between atoms: C_21  and  C_22 
ROOT
ATOM      1  C   UNL d   1      25.905  -9.764  -3.366  0.00  0.00     0.073 C 
ATOM      2  C   UNL d   1      26.412 -11.044  -2.774  0.00  0.00     0.069 C 
ATOM      3  N   UNL d   1      26.146 -12.224  -3.274  0.00  0.00    -0.171 NA
ATOM      4  N   UNL d   1      26.930 -13.157  -2.555  0.00  0.00    -0.200 N 
ATOM      5  C   UNL d   1      27.766 -12.555  -1.617  0.00  0.00     0.280 C 
ATOM      6  O   UNL d   1      28.644 -13.030  -0.904  0.00  0.00    -0.265 OA
ATOM      7  C   UNL d   1      27.300 -11.135  -1.598  0.00  0.00     0.081 C 
ATOM      8  C   UNL d   1      27.539 -10.252  -0.604  0.00  0.00     0.019 C 
ATOM      9  C   UNL d   1      26.883  -8.877  -0.528  0.00  0.00     0.069 C 
ENDROOT
BRANCH   8  10
ATOM     10  N   UNL d   1      28.376 -10.535   0.479  0.00  0.00    -0.392 N 
ATOM     11  H   UNL d   1      29.101 -11.245   0.317  0.00  0.00     0.159 HD
BRANCH  10  12
ATOM     12  C   UNL d   1      28.080 -10.132   1.829  0.00  0.00     0.124 C 
BRANCH  12  13
ATOM     13  C   UNL d   1      27.047 -10.976   2.537  0.00  0.00     0.057 C 
BRANCH  13  14
ATOM     14  C   UNL d   1      27.623 -12.277   3.028  0.00  0.00    -0.044 A 
ATOM     15  C   UNL d   1      27.912 -12.677   4.275  0.00  0.00    -0.005 A 
ATOM     16  C   UNL d   1      27.798 -12.093   5.573  0.00  0.00     0.014 A 
ATOM     17  C   UNL d   1      28.406 -14.063   4.128  0.00  0.00     0.039 A 
ATOM     18  C   UNL d   1      28.188 -12.784   6.649  0.00  0.00     0.001 A 
ATOM     19  C   UNL d   1      28.690 -14.136   6.533  0.00  0.00     0.002 A 
ATOM     20  C   UNL d   1      28.806 -14.784   5.357  0.00  0.00     0.030 A 
ATOM     21  N   UNL d   1      28.405 -14.450   2.907  0.00  0.00    -0.381 N 
ATOM     22  C   UNL d   1      27.917 -13.361   2.023  0.00  0.00     0.108 A 
ATOM     23  H   UNL d   1      28.722 -15.370   2.610  0.00  0.00     0.160 HD
ATOM     24  C   UNL d   1      26.655 -13.766   1.287  0.00  0.00     0.037 C 
ENDBRANCH  13  14
ENDBRANCH  12  13
ENDBRANCH  10  12
ENDBRANCH   8  10
BRANCH   4  25
ATOM     25  C   UNL d   1      26.568 -14.575  -2.568  0.00  0.00     0.280 C 
ATOM     26  N   UNL d   1      26.988 -15.316  -1.391  0.00  0.00    -0.357 N 
ATOM     27  C   UNL d   1      26.054 -16.279  -1.012  0.00  0.00     0.047 A 
ATOM     28  H   UNL d   1      27.907 -15.227  -0.995  0.00  0.00     0.162 HD
ATOM     29  C   UNL d   1      26.283 -17.332  -0.133  0.00  0.00     0.030 A 
ATOM     30  C   UNL d   1      24.786 -16.154  -1.598  0.00  0.00     0.030 A 
ATOM     31  C   UNL d   1      25.230 -18.202   0.201  0.00  0.00     0.002 A 
ATOM     32  C   UNL d   1      23.955 -18.021  -0.347  0.00  0.00     0.002 A 
ATOM     33  C   UNL d   1      23.730 -16.995  -1.265  0.00  0.00     0.021 A 
ATOM     34  S   UNL d   1      24.762 -14.825  -2.770  0.00  0.00    -0.079 SA
ENDBRANCH   4  25
TORSDOF 5
ENDMDL
MODEL 6
REMARK VINA RESULT:    -7.210      5.661      9.955
REMARK INTER + INTRA:         -11.315
REMARK INTER:                  -8.702
REMARK INTRA:                  -2.613
REMARK CONF_INDEPENDENT:        1.492
REMARK UNBOUND:                -2.613
REMARK  5 active torsions:
REMARK  status: ('A' for Active; 'I' for Inactive)
REMARK    1  A    between atoms: N_4  and  C_5 
REMARK    2  A    between atoms: C_17  and  N_19 
REMARK    3  A    between atoms: N_19  and  C_20 
REMARK    4  A    between atoms: C_20  and  C_21 
REMARK    5  A    between atoms: C_21  and  C_22 
ROOT
ATOM      1  C   UNL d   1      27.298 -12.319  -4.924  0.00  0.00     0.073 C 
ATOM      2  C   UNL d   1      27.866 -13.671  -4.614  0.00  0.00     0.069 C 
ATOM      3  N   UNL d   1      29.067 -14.047  -4.973  0.00  0.00    -0.171 NA
ATOM      4  N   UNL d   1      29.301 -15.301  -4.358  0.00  0.00    -0.200 N 
ATOM      5  C   UNL d   1      28.254 -15.706  -3.534  0.00  0.00     0.280 C 
ATOM      6  O   UNL d   1      28.156 -16.664  -2.774  0.00  0.00    -0.265 OA
ATOM      7  C   UNL d   1      27.174 -14.717  -3.835  0.00  0.00     0.081 C 
ATOM      8  C   UNL d   1      25.860 -14.897  -3.574  0.00  0.00     0.019 C 
ATOM      9  C   UNL d   1      24.770 -13.954  -4.073  0.00  0.00     0.069 C 
ENDROOT
BRANCH   8  10
ATOM     10  N   UNL d   1      25.371 -15.994  -2.861  0.00  0.00    -0.392 N 
ATOM     11  H   UNL d   1      25.621 -16.920  -3.229  0.00  0.00     0.159 HD
BRANCH  10  12
ATOM     12  C   UNL d   1      24.326 -15.891  -1.877  0.00  0.00     0.124 C 
BRANCH  12  13
ATOM     13  C   UNL d   1      24.667 -16.458  -0.518  0.00  0.00     0.057 C 
BRANCH  13  14
ATOM     14  C   UNL d   1      26.146 -16.417  -0.247  0.00  0.00    -0.044 A 
ATOM     15  C   UNL d   1      26.957 -15.368  -0.041  0.00  0.00    -0.005 A 
ATOM     16  C   UNL d   1      26.781 -13.952   0.013  0.00  0.00     0.014 A 
ATOM     17  C   UNL d   1      28.288 -15.958   0.218  0.00  0.00     0.039 A 
ATOM     18  C   UNL d   1      27.831 -13.160   0.248  0.00  0.00     0.001 A 
ATOM     19  C   UNL d   1      29.148 -13.710   0.489  0.00  0.00     0.002 A 
ATOM     20  C   UNL d   1      29.410 -15.032   0.489  0.00  0.00     0.030 A 
ATOM     21  N   UNL d   1      28.267 -17.238   0.175  0.00  0.00    -0.381 N 
ATOM     22  C   UNL d   1      26.898 -17.718  -0.142  0.00  0.00     0.108 A 
ATOM     23  H   UNL d   1      29.091 -17.818   0.316  0.00  0.00     0.160 HD
ATOM     24  C   UNL d   1      26.336 -18.573   0.978  0.00  0.00     0.037 C 
ENDBRANCH  13  14
ENDBRANCH  12  13
ENDBRANCH  10  12
ENDBRANCH   8  10
BRANCH   4  25
ATOM     25  C   UNL d   1      30.348 -16.181  -4.878  0.00  0.00     0.280 C 
ATOM     26  N   UNL d   1      30.131 -17.595  -4.621  0.00  0.00    -0.357 N 
ATOM     27  C   UNL d   1      30.553 -18.395  -5.682  0.00  0.00     0.047 A 
ATOM     28  H   UNL d   1      29.839 -17.944  -3.726  0.00  0.00     0.162 HD
ATOM     29  C   UNL d   1      30.758 -19.771  -5.631  0.00  0.00     0.030 A 
ATOM     30  C   UNL d   1      30.798 -17.722  -6.887  0.00  0.00     0.030 A 
ATOM     31  C   UNL d   1      31.137 -20.462  -6.795  0.00  0.00     0.002 A 
ATOM     32  C   UNL d   1      31.314 -19.778  -8.004  0.00  0.00     0.002 A 
ATOM     33  C   UNL d   1      31.156 -18.393  -8.051  0.00  0.00     0.021 A 
ATOM     34  S   UNL d   1      30.592 -15.973  -6.685  0.00  0.00    -0.079 SA
ENDBRANCH   4  25
TORSDOF 5
ENDMDL
MODEL 7
REMARK VINA RESULT:    -7.130      6.222      8.203
REMARK INTER + INTRA:         -11.407
REMARK INTER:                  -8.622
REMARK INTRA:                  -2.785
REMARK CONF_INDEPENDENT:        1.492
REMARK UNBOUND:                -2.785
REMARK  5 active torsions:
REMARK  status: ('A' for Active; 'I' for Inactive)
REMARK    1  A    between atoms: N_4  and  C_5 
REMARK    2  A    between atoms: C_17  and  N_19 
REMARK    3  A    between atoms: N_19  and  C_20 
REMARK    4  A    between atoms: C_20  and  C_21 
REMARK    5  A    between atoms: C_21  and  C_22 
ROOT
ATOM      1  C   UNL d   1      30.786 -16.579  -2.069  0.00  0.00     0.073 C 
ATOM      2  C   UNL d   1      29.321 -16.273  -1.989  0.00  0.00     0.069 C 
ATOM      3  N   UNL d   1      28.594 -16.504  -0.925  0.00  0.00    -0.171 NA
ATOM      4  N   UNL d   1      27.323 -15.931  -1.169  0.00  0.00    -0.200 N 
ATOM      5  C   UNL d   1      27.254 -15.262  -2.388  0.00  0.00     0.280 C 
ATOM      6  O   UNL d   1      26.364 -14.569  -2.873  0.00  0.00    -0.265 OA
ATOM      7  C   UNL d   1      28.532 -15.639  -3.064  0.00  0.00     0.081 C 
ATOM      8  C   UNL d   1      28.766 -15.547  -4.392  0.00  0.00     0.019 C 
ATOM      9  C   UNL d   1      30.007 -16.125  -5.066  0.00  0.00     0.069 C 
ENDROOT
BRANCH   8  10
ATOM     10  N   UNL d   1      27.866 -14.957  -5.282  0.00  0.00    -0.392 N 
ATOM     11  H   UNL d   1      26.872 -15.155  -5.119  0.00  0.00     0.159 HD
BRANCH  10  12
ATOM     12  C   UNL d   1      28.267 -14.378  -6.538  0.00  0.00     0.124 C 
BRANCH  12  13
ATOM     13  C   UNL d   1      28.192 -12.870  -6.601  0.00  0.00     0.057 C 
BRANCH  13  14
ATOM     14  C   UNL d   1      27.430 -12.295  -5.438  0.00  0.00    -0.044 A 
ATOM     15  C   UNL d   1      27.815 -12.095  -4.168  0.00  0.00    -0.005 A 
ATOM     16  C   UNL d   1      29.018 -12.314  -3.432  0.00  0.00     0.014 A 
ATOM     17  C   UNL d   1      26.650 -11.461  -3.512  0.00  0.00     0.039 A 
ATOM     18  C   UNL d   1      29.073 -11.992  -2.137  0.00  0.00     0.001 A 
ATOM     19  C   UNL d   1      27.944 -11.385  -1.464  0.00  0.00     0.002 A 
ATOM     20  C   UNL d   1      26.777 -11.110  -2.079  0.00  0.00     0.030 A 
ATOM     21  N   UNL d   1      25.670 -11.296  -4.318  0.00  0.00    -0.381 N 
ATOM     22  C   UNL d   1      26.019 -11.818  -5.664  0.00  0.00     0.108 A 
ATOM     23  H   UNL d   1      24.780 -10.887  -4.043  0.00  0.00     0.160 HD
ATOM     24  C   UNL d   1      25.986 -10.720  -6.711  0.00  0.00     0.037 C 
ENDBRANCH  13  14
ENDBRANCH  12  13
ENDBRANCH  10  12
ENDBRANCH   8  10
BRANCH   4  25
ATOM     25  C   UNL d   1      26.167 -16.366  -0.383  0.00  0.00     0.280 C 
ATOM     26  N   UNL d   1      24.881 -15.986  -0.942  0.00  0.00    -0.357 N 
ATOM     27  C   UNL d   1      23.911 -16.970  -0.751  0.00  0.00     0.047 A 
ATOM     28  H   UNL d   1      24.695 -15.065  -1.296  0.00  0.00     0.162 HD
ATOM     29  C   UNL d   1      22.538 -16.796  -0.895  0.00  0.00     0.030 A 
ATOM     30  C   UNL d   1      24.394 -18.228  -0.367  0.00  0.00     0.030 A 
ATOM     31  C   UNL d   1      21.676 -17.893  -0.720  0.00  0.00     0.002 A 
ATOM     32  C   UNL d   1      22.185 -19.156  -0.399  0.00  0.00     0.002 A 
ATOM     33  C   UNL d   1      23.557 -19.327  -0.208  0.00  0.00     0.021 A 
ATOM     34  S   UNL d   1      26.149 -18.183  -0.127  0.00  0.00    -0.079 SA
ENDBRANCH   4  25
TORSDOF 5
ENDMDL
MODEL 8
REMARK VINA RESULT:    -6.807      5.862      7.759
REMARK INTER + INTRA:         -11.404
REMARK INTER:                  -8.298
REMARK INTRA:                  -3.106
REMARK CONF_INDEPENDENT:        1.492
REMARK UNBOUND:                -3.106
REMARK  5 active torsions:
REMARK  status: ('A' for Active; 'I' for Inactive)
REMARK    1  A    between atoms: N_4  and  C_5 
REMARK    2  A    between atoms: C_17  and  N_19 
REMARK    3  A    between atoms: N_19  and  C_20 
REMARK    4  A    between atoms: C_20  and  C_21 
REMARK    5  A    between atoms: C_21  and  C_22 
ROOT
ATOM      1  C   UNL d   1      30.748 -16.055   0.221  0.00  0.00     0.073 C 
ATOM      2  C   UNL d   1      29.416 -15.741  -0.390  0.00  0.00     0.069 C 
ATOM      3  N   UNL d   1      28.416 -16.585  -0.410  0.00  0.00    -0.171 NA
ATOM      4  N   UNL d   1      27.296 -15.877  -0.906  0.00  0.00    -0.200 N 
ATOM      5  C   UNL d   1      27.566 -14.531  -1.145  0.00  0.00     0.280 C 
ATOM      6  O   UNL d   1      26.824 -13.609  -1.468  0.00  0.00    -0.265 OA
ATOM      7  C   UNL d   1      29.051 -14.444  -0.994  0.00  0.00     0.081 C 
ATOM      8  C   UNL d   1      29.825 -13.450  -1.481  0.00  0.00     0.019 C 
ATOM      9  C   UNL d   1      31.350 -13.497  -1.477  0.00  0.00     0.069 C 
ENDROOT
BRANCH   8  10
ATOM     10  N   UNL d   1      29.300 -12.303  -2.082  0.00  0.00    -0.392 N 
ATOM     11  H   UNL d   1      28.303 -12.121  -1.913  0.00  0.00     0.159 HD
BRANCH  10  12
ATOM     12  C   UNL d   1      29.976 -11.583  -3.129  0.00  0.00     0.124 C 
BRANCH  12  13
ATOM     13  C   UNL d   1      29.071 -10.962  -4.167  0.00  0.00     0.057 C 
BRANCH  13  14
ATOM     14  C   UNL d   1      27.703 -11.591  -4.169  0.00  0.00    -0.044 A 
ATOM     15  C   UNL d   1      27.337 -12.860  -4.405  0.00  0.00    -0.005 A 
ATOM     16  C   UNL d   1      28.029 -14.067  -4.721  0.00  0.00     0.014 A 
ATOM     17  C   UNL d   1      25.869 -12.875  -4.217  0.00  0.00     0.039 A 
ATOM     18  C   UNL d   1      27.343 -15.200  -4.897  0.00  0.00     0.001 A 
ATOM     19  C   UNL d   1      25.905 -15.241  -4.736  0.00  0.00     0.002 A 
ATOM     20  C   UNL d   1      25.166 -14.163  -4.408  0.00  0.00     0.030 A 
ATOM     21  N   UNL d   1      25.411 -11.724  -3.895  0.00  0.00    -0.381 N 
ATOM     22  C   UNL d   1      26.513 -10.731  -3.830  0.00  0.00     0.108 A 
ATOM     23  H   UNL d   1      24.423 -11.538  -3.736  0.00  0.00     0.160 HD
ATOM     24  C   UNL d   1      26.653 -10.146  -2.438  0.00  0.00     0.037 C 
ENDBRANCH  13  14
ENDBRANCH  12  13
ENDBRANCH  10  12
ENDBRANCH   8  10
BRANCH   4  25
ATOM     25  C   UNL d   1      26.152 -16.611  -1.447  0.00  0.00     0.280 C 
ATOM     26  N   UNL d   1      25.827 -17.834  -0.732  0.00  0.00    -0.357 N 
ATOM     27  C   UNL d   1      24.452 -18.056  -0.662  0.00  0.00     0.047 A 
ATOM     28  H   UNL d   1      26.526 -18.498  -0.450  0.00  0.00     0.162 HD
ATOM     29  C   UNL d   1      23.839 -19.258  -0.320  0.00  0.00     0.030 A 
ATOM     30  C   UNL d   1      23.645 -16.957  -0.987  0.00  0.00     0.030 A 
ATOM     31  C   UNL d   1      22.437 -19.325  -0.240  0.00  0.00     0.002 A 
ATOM     32  C   UNL d   1      21.653 -18.197  -0.505  0.00  0.00     0.002 A 
ATOM     33  C   UNL d   1      22.259 -17.002  -0.895  0.00  0.00     0.021 A 
ATOM     34  S   UNL d   1      24.634 -15.581  -1.508  0.00  0.00    -0.079 SA
ENDBRANCH   4  25
TORSDOF 5
ENDMDL
MODEL 9
REMARK VINA RESULT:    -5.799      2.937      7.417
REMARK INTER + INTRA:         -11.395
REMARK INTER:                  -7.290
REMARK INTRA:                  -4.104
REMARK CONF_INDEPENDENT:        1.492
REMARK UNBOUND:                -4.104
REMARK  5 active torsions:
REMARK  status: ('A' for Active; 'I' for Inactive)
REMARK    1  A    between atoms: N_4  and  C_5 
REMARK    2  A    between atoms: C_17  and  N_19 
REMARK    3  A    between atoms: N_19  and  C_20 
REMARK    4  A    between atoms: C_20  and  C_21 
REMARK    5  A    between atoms: C_21  and  C_22 
ROOT
ATOM      1  C   UNL d   1      30.703  -9.601   1.275  0.00  0.00     0.073 C 
ATOM      2  C   UNL d   1      30.597 -11.093   1.380  0.00  0.00     0.069 C 
ATOM      3  N   UNL d   1      30.298 -11.867   0.369  0.00  0.00    -0.171 NA
ATOM      4  N   UNL d   1      30.464 -13.200   0.814  0.00  0.00    -0.200 N 
ATOM      5  C   UNL d   1      30.943 -13.281   2.119  0.00  0.00     0.280 C 
ATOM      6  O   UNL d   1      31.302 -14.249   2.783  0.00  0.00    -0.265 OA
ATOM      7  C   UNL d   1      30.860 -11.871   2.607  0.00  0.00     0.081 C 
ATOM      8  C   UNL d   1      30.860 -11.496   3.906  0.00  0.00     0.019 C 
ATOM      9  C   UNL d   1      30.575 -10.070   4.366  0.00  0.00     0.069 C 
ENDROOT
BRANCH   8  10
ATOM     10  N   UNL d   1      31.072 -12.394   4.955  0.00  0.00    -0.392 N 
ATOM     11  H   UNL d   1      31.392 -13.333   4.689  0.00  0.00     0.159 HD
BRANCH  10  12
ATOM     12  C   UNL d   1      30.581 -12.173   6.291  0.00  0.00     0.124 C 
BRANCH  12  13
ATOM     13  C   UNL d   1      29.155 -12.611   6.530  0.00  0.00     0.057 C 
BRANCH  13  14
ATOM     14  C   UNL d   1      28.539 -13.219   5.298  0.00  0.00    -0.044 A 
ATOM     15  C   UNL d   1      27.942 -12.629   4.252  0.00  0.00    -0.005 A 
ATOM     16  C   UNL d   1      27.661 -11.280   3.878  0.00  0.00     0.014 A 
ATOM     17  C   UNL d   1      27.585 -13.739   3.341  0.00  0.00     0.039 A 
ATOM     18  C   UNL d   1      27.031 -11.027   2.728  0.00  0.00     0.001 A 
ATOM     19  C   UNL d   1      26.655 -12.093   1.825  0.00  0.00     0.002 A 
ATOM     20  C   UNL d   1      26.903 -13.395   2.073  0.00  0.00     0.030 A 
ATOM     21  N   UNL d   1      27.942 -14.878   3.802  0.00  0.00    -0.381 N 
ATOM     22  C   UNL d   1      28.593 -14.715   5.127  0.00  0.00     0.108 A 
ATOM     23  H   UNL d   1      27.770 -15.758   3.321  0.00  0.00     0.160 HD
ATOM     24  C   UNL d   1      30.029 -15.201   5.105  0.00  0.00     0.037 C 
ENDBRANCH  13  14
ENDBRANCH  12  13
ENDBRANCH  10  12
ENDBRANCH   8  10
BRANCH   4  25
ATOM     25  C   UNL d   1      29.819 -14.295   0.088  0.00  0.00     0.280 C 
ATOM     26  N   UNL d   1      29.232 -15.318   0.936  0.00  0.00    -0.357 N 
ATOM     27  C   UNL d   1      28.042 -15.820   0.411  0.00  0.00     0.047 A 
ATOM     28  H   UNL d   1      29.711 -15.704   1.730  0.00  0.00     0.162 HD
ATOM     29  C   UNL d   1      27.405 -16.991   0.813  0.00  0.00     0.030 A 
ATOM     30  C   UNL d   1      27.470 -15.064  -0.622  0.00  0.00     0.030 A 
ATOM     31  C   UNL d   1      26.178 -17.351   0.230  0.00  0.00     0.002 A 
ATOM     32  C   UNL d   1      25.593 -16.547  -0.755  0.00  0.00     0.002 A 
ATOM     33  C   UNL d   1      26.249 -15.398  -1.196  0.00  0.00     0.021 A 
ATOM     34  S   UNL d   1      28.510 -13.694  -1.049  0.00  0.00    -0.079 SA
ENDBRANCH   4  25
TORSDOF 5
ENDMDL
