MODEL 1
REMARK VINA RESULT:   -30.905      0.000      0.000
REMARK INTER + INTRA:         -33.745
REMARK INTER:                 -32.694
REMARK INTRA:                  -1.050
REMARK CONF_INDEPENDENT:        1.790
REMARK UNBOUND:                -1.050
REMARK  6 active torsions:
REMARK  status: ('A' for Active; 'I' for Inactive)
REMARK    1  A    between atoms: C_2  and  C_3 
REMARK       I    between atoms: C_2  and  N_11 
REMARK    2  A    between atoms: C_4  and  C_5 
REMARK    3  A    between atoms: N_11  and  C_12 
REMARK    4  A    between atoms: C_12  and  C_13 
REMARK       I    between atoms: C_13  and  N_15 
REMARK    5  A    between atoms: N_15  and  N_16 
REMARK       I    between atoms: N_16  and  C_17 
REMARK    6  A    between atoms: C_17  and  C_19 
ROOT
ATOM      1  C   UNL d   1      24.682 -16.438  -0.813  0.00  0.00     0.253 C 
ATOM      2  O   UNL d   1      24.893 -17.152   0.170  0.00  0.00    -0.270 OA
ATOM      3  N   UNL d   1      23.414 -16.308  -1.372  0.00  0.00    -0.266 N 
ATOM      4  H   UNL d   1      23.193 -15.746  -2.194  0.00  0.00     0.190 HD
ENDROOT
BRANCH   1   5
ATOM      5  C   UNL d   1      25.805 -15.621  -1.499  0.00  0.00     0.227 C 
BRANCH   5   6
ATOM      6  N   UNL d   1      26.027 -15.985  -2.902  0.00  0.00    -0.349 N 
ATOM      7  C   UNL d   1      26.077 -15.180  -4.009  0.00  0.00     0.241 C 
ATOM      8  O   UNL d   1      26.283 -15.659  -5.125  0.00  0.00    -0.269 OA
ATOM      9  H   UNL d   1      26.160 -16.973  -3.105  0.00  0.00     0.163 HD
BRANCH   7  10
ATOM     10  C   UNL d   1      25.882 -13.722  -3.807  0.00  0.00     0.075 C 
ATOM     11  C   UNL d   1      26.086 -12.829  -4.790  0.00  0.00     0.017 C 
BRANCH  11  12
ATOM     12  C   UNL d   1      25.961 -11.375  -4.583  0.00  0.00    -0.036 A 
ATOM     13  C   UNL d   1      25.794 -10.851  -3.294  0.00  0.00     0.011 A 
ATOM     14  C   UNL d   1      25.531  -9.488  -3.110  0.00  0.00     0.001 A 
ATOM     15  C   UNL d   1      25.497  -8.626  -4.205  0.00  0.00     0.000 A 
ATOM     16  C   UNL d   1      25.684  -9.130  -5.487  0.00  0.00     0.001 A 
ATOM     17  C   UNL d   1      25.900 -10.498  -5.675  0.00  0.00     0.011 A 
ENDBRANCH  11  12
ENDBRANCH   7  10
ENDBRANCH   5   6
ENDBRANCH   1   5
BRANCH   3  18
ATOM     18  N   UNL d   1      22.320 -17.009  -0.782  0.00  0.00    -0.262 N 
ATOM     19  C   UNL d   1      22.110 -18.356  -1.089  0.00  0.00     0.288 C 
ATOM     20  O   UNL d   1      22.824 -18.958  -1.890  0.00  0.00    -0.264 OA
ATOM     21  H   UNL d   1      21.815 -16.516  -0.047  0.00  0.00     0.190 HD
BRANCH  19  22
ATOM     22  C   UNL d   1      20.949 -19.036  -0.391  0.00  0.00     0.125 A 
ATOM     23  C   UNL d   1      21.016 -19.326   0.970  0.00  0.00     0.037 A 
ATOM     24  C   UNL d   1      19.934 -19.969   1.577  0.00  0.00     0.004 A 
ATOM     25  C   UNL d   1      18.815 -20.296   0.819  0.00  0.00     0.019 A 
ATOM     26  C   UNL d   1      18.816 -19.944  -0.521  0.00  0.00     0.117 A 
ATOM     27  N   UNL d   1      19.851 -19.325  -1.143  0.00  0.00    -0.255 NA
ENDBRANCH  19  22
ENDBRANCH   3  18
TORSDOF 6
ENDMDL
MODEL 2
REMARK VINA RESULT:   -30.810      4.056      5.918
REMARK INTER + INTRA:         -34.057
REMARK INTER:                 -32.599
REMARK INTRA:                  -1.458
REMARK CONF_INDEPENDENT:        1.790
REMARK UNBOUND:                -1.458
REMARK  6 active torsions:
REMARK  status: ('A' for Active; 'I' for Inactive)
REMARK    1  A    between atoms: C_2  and  C_3 
REMARK       I    between atoms: C_2  and  N_11 
REMARK    2  A    between atoms: C_4  and  C_5 
REMARK    3  A    between atoms: N_11  and  C_12 
REMARK    4  A    between atoms: C_12  and  C_13 
REMARK       I    between atoms: C_13  and  N_15 
REMARK    5  A    between atoms: N_15  and  N_16 
REMARK       I    between atoms: N_16  and  C_17 
REMARK    6  A    between atoms: C_17  and  C_19 
ROOT
ATOM      1  C   UNL d   1      25.507 -17.908   0.210  0.00  0.00     0.253 C 
ATOM      2  O   UNL d   1      25.569 -18.552   1.259  0.00  0.00    -0.270 OA
ATOM      3  N   UNL d   1      24.351 -17.868  -0.564  0.00  0.00    -0.266 N 
ATOM      4  H   UNL d   1      24.257 -17.365  -1.447  0.00  0.00     0.190 HD
ENDROOT
BRANCH   1   5
ATOM      5  C   UNL d   1      26.703 -17.084  -0.327  0.00  0.00     0.227 C 
BRANCH   5   6
ATOM      6  N   UNL d   1      26.364 -15.697  -0.661  0.00  0.00    -0.349 N 
ATOM      7  C   UNL d   1      26.698 -14.541  -0.008  0.00  0.00     0.241 C 
ATOM      8  O   UNL d   1      26.329 -13.447  -0.437  0.00  0.00    -0.269 OA
ATOM      9  H   UNL d   1      25.794 -15.550  -1.492  0.00  0.00     0.163 HD
BRANCH   7  10
ATOM     10  C   UNL d   1      27.521 -14.661   1.222  0.00  0.00     0.075 C 
ATOM     11  C   UNL d   1      27.359 -13.841   2.275  0.00  0.00     0.017 C 
BRANCH  11  12
ATOM     12  C   UNL d   1      28.214 -13.908   3.473  0.00  0.00    -0.036 A 
ATOM     13  C   UNL d   1      29.605 -14.038   3.351  0.00  0.00     0.011 A 
ATOM     14  C   UNL d   1      30.401 -14.246   4.483  0.00  0.00     0.001 A 
ATOM     15  C   UNL d   1      29.826 -14.261   5.753  0.00  0.00     0.000 A 
ATOM     16  C   UNL d   1      28.450 -14.110   5.890  0.00  0.00     0.001 A 
ATOM     17  C   UNL d   1      27.649 -13.949   4.756  0.00  0.00     0.011 A 
ENDBRANCH  11  12
ENDBRANCH   7  10
ENDBRANCH   5   6
ENDBRANCH   1   5
BRANCH   3  18
ATOM     18  N   UNL d   1      23.196 -18.580  -0.125  0.00  0.00    -0.262 N 
ATOM     19  C   UNL d   1      21.923 -18.142  -0.501  0.00  0.00     0.288 C 
ATOM     20  O   UNL d   1      21.759 -17.127  -1.177  0.00  0.00    -0.264 OA
ATOM     21  H   UNL d   1      23.367 -19.471   0.341  0.00  0.00     0.190 HD
BRANCH  19  22
ATOM     22  C   UNL d   1      20.751 -18.978  -0.023  0.00  0.00     0.125 A 
ATOM     23  C   UNL d   1      20.647 -19.346   1.316  0.00  0.00     0.037 A 
ATOM     24  C   UNL d   1      19.563 -20.131   1.718  0.00  0.00     0.004 A 
ATOM     25  C   UNL d   1      18.611 -20.518   0.781  0.00  0.00     0.019 A 
ATOM     26  C   UNL d   1      18.772 -20.083  -0.524  0.00  0.00     0.117 A 
ATOM     27  N   UNL d   1      19.815 -19.325  -0.949  0.00  0.00    -0.255 NA
ENDBRANCH  19  22
ENDBRANCH   3  18
TORSDOF 6
ENDMDL
MODEL 3
REMARK VINA RESULT:   -30.689      2.129      3.004
REMARK INTER + INTRA:         -33.868
REMARK INTER:                 -32.479
REMARK INTRA:                  -1.389
REMARK CONF_INDEPENDENT:        1.790
REMARK UNBOUND:                -1.389
REMARK  6 active torsions:
REMARK  status: ('A' for Active; 'I' for Inactive)
REMARK    1  A    between atoms: C_2  and  C_3 
REMARK       I    between atoms: C_2  and  N_11 
REMARK    2  A    between atoms: C_4  and  C_5 
REMARK    3  A    between atoms: N_11  and  C_12 
REMARK    4  A    between atoms: C_12  and  C_13 
REMARK       I    between atoms: C_13  and  N_15 
REMARK    5  A    between atoms: N_15  and  N_16 
REMARK       I    between atoms: N_16  and  C_17 
REMARK    6  A    between atoms: C_17  and  C_19 
ROOT
ATOM      1  C   UNL d   1      25.536 -17.960   0.283  0.00  0.00     0.253 C 
ATOM      2  O   UNL d   1      25.559 -18.572   1.354  0.00  0.00    -0.270 OA
ATOM      3  N   UNL d   1      24.414 -17.954  -0.539  0.00  0.00    -0.266 N 
ATOM      4  H   UNL d   1      24.353 -17.480  -1.441  0.00  0.00     0.190 HD
ENDROOT
BRANCH   1   5
ATOM      5  C   UNL d   1      26.748 -17.143  -0.228  0.00  0.00     0.227 C 
BRANCH   5   6
ATOM      6  N   UNL d   1      27.336 -16.260   0.785  0.00  0.00    -0.349 N 
ATOM      7  C   UNL d   1      27.354 -14.892   0.837  0.00  0.00     0.241 C 
ATOM      8  O   UNL d   1      27.893 -14.307   1.777  0.00  0.00    -0.269 OA
ATOM      9  H   UNL d   1      27.807 -16.708   1.568  0.00  0.00     0.163 HD
BRANCH   7  10
ATOM     10  C   UNL d   1      26.698 -14.154  -0.272  0.00  0.00     0.075 C 
ATOM     11  C   UNL d   1      27.107 -14.265  -1.547  0.00  0.00     0.017 C 
BRANCH  11  12
ATOM     12  C   UNL d   1      26.507 -13.486  -2.645  0.00  0.00    -0.036 A 
ATOM     13  C   UNL d   1      25.584 -14.078  -3.518  0.00  0.00     0.011 A 
ATOM     14  C   UNL d   1      25.125 -13.385  -4.644  0.00  0.00     0.001 A 
ATOM     15  C   UNL d   1      25.530 -12.070  -4.872  0.00  0.00     0.000 A 
ATOM     16  C   UNL d   1      26.427 -11.463  -4.000  0.00  0.00     0.001 A 
ATOM     17  C   UNL d   1      26.923 -12.172  -2.903  0.00  0.00     0.011 A 
ENDBRANCH  11  12
ENDBRANCH   7  10
ENDBRANCH   5   6
ENDBRANCH   1   5
BRANCH   3  18
ATOM     18  N   UNL d   1      23.246 -18.663  -0.127  0.00  0.00    -0.262 N 
ATOM     19  C   UNL d   1      21.980 -18.138  -0.399  0.00  0.00     0.288 C 
ATOM     20  O   UNL d   1      21.835 -17.051  -0.957  0.00  0.00    -0.264 OA
ATOM     21  H   UNL d   1      23.396 -19.604   0.235  0.00  0.00     0.190 HD
BRANCH  19  22
ATOM     22  C   UNL d   1      20.793 -18.972   0.040  0.00  0.00     0.125 A 
ATOM     23  C   UNL d   1      20.646 -19.344   1.374  0.00  0.00     0.037 A 
ATOM     24  C   UNL d   1      19.549 -20.129   1.739  0.00  0.00     0.004 A 
ATOM     25  C   UNL d   1      18.626 -20.511   0.772  0.00  0.00     0.019 A 
ATOM     26  C   UNL d   1      18.828 -20.072  -0.527  0.00  0.00     0.117 A 
ATOM     27  N   UNL d   1      19.885 -19.315  -0.916  0.00  0.00    -0.255 NA
ENDBRANCH  19  22
ENDBRANCH   3  18
TORSDOF 6
ENDMDL
MODEL 4
REMARK VINA RESULT:   -30.419      2.808      4.228
REMARK INTER + INTRA:         -33.817
REMARK INTER:                 -32.209
REMARK INTRA:                  -1.608
REMARK CONF_INDEPENDENT:        1.790
REMARK UNBOUND:                -1.608
REMARK  6 active torsions:
REMARK  status: ('A' for Active; 'I' for Inactive)
REMARK    1  A    between atoms: C_2  and  C_3 
REMARK       I    between atoms: C_2  and  N_11 
REMARK    2  A    between atoms: C_4  and  C_5 
REMARK    3  A    between atoms: N_11  and  C_12 
REMARK    4  A    between atoms: C_12  and  C_13 
REMARK       I    between atoms: C_13  and  N_15 
REMARK    5  A    between atoms: N_15  and  N_16 
REMARK       I    between atoms: N_16  and  C_17 
REMARK    6  A    between atoms: C_17  and  C_19 
ROOT
ATOM      1  C   UNL d   1      25.143 -17.298  -1.041  0.00  0.00     0.253 C 
ATOM      2  O   UNL d   1      25.579 -18.221  -0.351  0.00  0.00    -0.270 OA
ATOM      3  N   UNL d   1      23.785 -17.163  -1.318  0.00  0.00    -0.266 N 
ATOM      4  H   UNL d   1      23.378 -16.428  -1.898  0.00  0.00     0.190 HD
ENDROOT
BRANCH   1   5
ATOM      5  C   UNL d   1      26.063 -16.211  -1.648  0.00  0.00     0.227 C 
BRANCH   5   6
ATOM      6  N   UNL d   1      25.378 -15.306  -2.576  0.00  0.00    -0.349 N 
ATOM      7  C   UNL d   1      25.718 -14.954  -3.854  0.00  0.00     0.241 C 
ATOM      8  O   UNL d   1      25.016 -14.176  -4.500  0.00  0.00    -0.269 OA
ATOM      9  H   UNL d   1      24.527 -14.860  -2.239  0.00  0.00     0.163 HD
BRANCH   7  10
ATOM     10  C   UNL d   1      26.954 -15.549  -4.424  0.00  0.00     0.075 C 
ATOM     11  C   UNL d   1      27.949 -14.794  -4.921  0.00  0.00     0.017 C 
BRANCH  11  12
ATOM     12  C   UNL d   1      29.149 -15.375  -5.550  0.00  0.00    -0.036 A 
ATOM     13  C   UNL d   1      29.807 -14.703  -6.588  0.00  0.00     0.011 A 
ATOM     14  C   UNL d   1      30.856 -15.318  -7.280  0.00  0.00     0.001 A 
ATOM     15  C   UNL d   1      31.303 -16.583  -6.899  0.00  0.00     0.000 A 
ATOM     16  C   UNL d   1      30.674 -17.251  -5.854  0.00  0.00     0.001 A 
ATOM     17  C   UNL d   1      29.595 -16.657  -5.194  0.00  0.00     0.011 A 
ENDBRANCH  11  12
ENDBRANCH   7  10
ENDBRANCH   5   6
ENDBRANCH   1   5
BRANCH   3  18
ATOM     18  N   UNL d   1      22.867 -18.110  -0.775  0.00  0.00    -0.262 N 
ATOM     19  C   UNL d   1      21.495 -17.850  -0.812  0.00  0.00     0.288 C 
ATOM     20  O   UNL d   1      21.046 -16.800  -1.270  0.00  0.00    -0.264 OA
ATOM     21  H   UNL d   1      23.260 -19.010  -0.502  0.00  0.00     0.190 HD
BRANCH  19  22
ATOM     22  C   UNL d   1      20.587 -18.925  -0.248  0.00  0.00     0.125 A 
ATOM     23  C   UNL d   1      20.822 -19.453   1.019  0.00  0.00     0.037 A 
ATOM     24  C   UNL d   1      19.975 -20.456   1.499  0.00  0.00     0.004 A 
ATOM     25  C   UNL d   1      18.916 -20.896   0.713  0.00  0.00     0.019 A 
ATOM     26  C   UNL d   1      18.733 -20.296  -0.522  0.00  0.00     0.117 A 
ATOM     27  N   UNL d   1      19.540 -19.325  -1.021  0.00  0.00    -0.255 NA
ENDBRANCH  19  22
ENDBRANCH   3  18
TORSDOF 6
ENDMDL
MODEL 5
REMARK VINA RESULT:   -30.310      3.348      4.618
REMARK INTER + INTRA:         -33.733
REMARK INTER:                 -32.100
REMARK INTRA:                  -1.633
REMARK CONF_INDEPENDENT:        1.790
REMARK UNBOUND:                -1.633
REMARK  6 active torsions:
REMARK  status: ('A' for Active; 'I' for Inactive)
REMARK    1  A    between atoms: C_2  and  C_3 
REMARK       I    between atoms: C_2  and  N_11 
REMARK    2  A    between atoms: C_4  and  C_5 
REMARK    3  A    between atoms: N_11  and  C_12 
REMARK    4  A    between atoms: C_12  and  C_13 
REMARK       I    between atoms: C_13  and  N_15 
REMARK    5  A    between atoms: N_15  and  N_16 
REMARK       I    between atoms: N_16  and  C_17 
REMARK    6  A    between atoms: C_17  and  C_19 
ROOT
ATOM      1  C   UNL d   1      25.401 -17.813   0.043  0.00  0.00     0.253 C 
ATOM      2  O   UNL d   1      25.554 -18.573   1.002  0.00  0.00    -0.270 OA
ATOM      3  N   UNL d   1      24.183 -17.699  -0.620  0.00  0.00    -0.266 N 
ATOM      4  H   UNL d   1      24.013 -17.099  -1.428  0.00  0.00     0.190 HD
ENDROOT
BRANCH   1   5
ATOM      5  C   UNL d   1      26.546 -16.920  -0.495  0.00  0.00     0.227 C 
BRANCH   5   6
ATOM      6  N   UNL d   1      26.107 -15.927  -1.481  0.00  0.00    -0.349 N 
ATOM      7  C   UNL d   1      26.252 -14.566  -1.465  0.00  0.00     0.241 C 
ATOM      8  O   UNL d   1      25.824 -13.877  -2.391  0.00  0.00    -0.269 OA
ATOM      9  H   UNL d   1      25.617 -16.279  -2.301  0.00  0.00     0.163 HD
BRANCH   7  10
ATOM     10  C   UNL d   1      26.947 -13.964  -0.298  0.00  0.00     0.075 C 
ATOM     11  C   UNL d   1      26.383 -13.907   0.921  0.00  0.00     0.017 C 
BRANCH  11  12
ATOM     12  C   UNL d   1      27.036 -13.252   2.068  0.00  0.00    -0.036 A 
ATOM     13  C   UNL d   1      27.635 -14.016   3.080  0.00  0.00     0.011 A 
ATOM     14  C   UNL d   1      28.126 -13.401   4.237  0.00  0.00     0.001 A 
ATOM     15  C   UNL d   1      28.084 -12.014   4.367  0.00  0.00     0.000 A 
ATOM     16  C   UNL d   1      27.515 -11.243   3.360  0.00  0.00     0.001 A 
ATOM     17  C   UNL d   1      26.981 -11.859   2.226  0.00  0.00     0.011 A 
ENDBRANCH  11  12
ENDBRANCH   7  10
ENDBRANCH   5   6
ENDBRANCH   1   5
BRANCH   3  18
ATOM     18  N   UNL d   1      23.071 -18.471  -0.169  0.00  0.00    -0.262 N 
ATOM     19  C   UNL d   1      21.776 -18.120  -0.560  0.00  0.00     0.288 C 
ATOM     20  O   UNL d   1      21.555 -17.132  -1.260  0.00  0.00    -0.264 OA
ATOM     21  H   UNL d   1      23.294 -19.338   0.317  0.00  0.00     0.190 HD
BRANCH  19  22
ATOM     22  C   UNL d   1      20.655 -19.014  -0.069  0.00  0.00     0.125 A 
ATOM     23  C   UNL d   1      20.643 -19.471   1.247  0.00  0.00     0.037 A 
ATOM     24  C   UNL d   1      19.604 -20.309   1.661  0.00  0.00     0.004 A 
ATOM     25  C   UNL d   1      18.604 -20.658   0.761  0.00  0.00     0.019 A 
ATOM     26  C   UNL d   1      18.673 -20.135  -0.520  0.00  0.00     0.117 A 
ATOM     27  N   UNL d   1      19.671 -19.325  -0.956  0.00  0.00    -0.255 NA
ENDBRANCH  19  22
ENDBRANCH   3  18
TORSDOF 6
ENDMDL
MODEL 6
REMARK VINA RESULT:   -30.255      3.278      4.080
REMARK INTER + INTRA:         -33.777
REMARK INTER:                 -32.045
REMARK INTRA:                  -1.732
REMARK CONF_INDEPENDENT:        1.790
REMARK UNBOUND:                -1.732
REMARK  6 active torsions:
REMARK  status: ('A' for Active; 'I' for Inactive)
REMARK    1  A    between atoms: C_2  and  C_3 
REMARK       I    between atoms: C_2  and  N_11 
REMARK    2  A    between atoms: C_4  and  C_5 
REMARK    3  A    between atoms: N_11  and  C_12 
REMARK    4  A    between atoms: C_12  and  C_13 
REMARK       I    between atoms: C_13  and  N_15 
REMARK    5  A    between atoms: N_15  and  N_16 
REMARK       I    between atoms: N_16  and  C_17 
REMARK    6  A    between atoms: C_17  and  C_19 
ROOT
ATOM      1  C   UNL d   1      25.451 -17.731   0.047  0.00  0.00     0.253 C 
ATOM      2  O   UNL d   1      25.621 -18.512   0.986  0.00  0.00    -0.270 OA
ATOM      3  N   UNL d   1      24.224 -17.607  -0.596  0.00  0.00    -0.266 N 
ATOM      4  H   UNL d   1      24.039 -16.989  -1.387  0.00  0.00     0.190 HD
ENDROOT
BRANCH   1   5
ATOM      5  C   UNL d   1      26.584 -16.818  -0.484  0.00  0.00     0.227 C 
BRANCH   5   6
ATOM      6  N   UNL d   1      27.931 -17.331  -0.217  0.00  0.00    -0.349 N 
ATOM      7  C   UNL d   1      29.091 -17.127  -0.916  0.00  0.00     0.241 C 
ATOM      8  O   UNL d   1      30.148 -17.635  -0.540  0.00  0.00    -0.269 OA
ATOM      9  H   UNL d   1      28.041 -17.931   0.598  0.00  0.00     0.163 HD
BRANCH   7  10
ATOM     10  C   UNL d   1      29.021 -16.272  -2.127  0.00  0.00     0.075 C 
ATOM     11  C   UNL d   1      29.313 -16.740  -3.353  0.00  0.00     0.017 C 
BRANCH  11  12
ATOM     12  C   UNL d   1      29.312 -15.884  -4.552  0.00  0.00    -0.036 A 
ATOM     13  C   UNL d   1      28.547 -14.710  -4.590  0.00  0.00     0.011 A 
ATOM     14  C   UNL d   1      28.432 -13.975  -5.776  0.00  0.00     0.001 A 
ATOM     15  C   UNL d   1      29.133 -14.367  -6.916  0.00  0.00     0.000 A 
ATOM     16  C   UNL d   1      29.915 -15.516  -6.884  0.00  0.00     0.001 A 
ATOM     17  C   UNL d   1      29.992 -16.277  -5.715  0.00  0.00     0.011 A 
ENDBRANCH  11  12
ENDBRANCH   7  10
ENDBRANCH   5   6
ENDBRANCH   1   5
BRANCH   3  18
ATOM     18  N   UNL d   1      23.122 -18.395  -0.149  0.00  0.00    -0.262 N 
ATOM     19  C   UNL d   1      21.820 -18.046  -0.518  0.00  0.00     0.288 C 
ATOM     20  O   UNL d   1      21.584 -17.046  -1.195  0.00  0.00    -0.264 OA
ATOM     21  H   UNL d   1      23.356 -19.271   0.317  0.00  0.00     0.190 HD
BRANCH  19  22
ATOM     22  C   UNL d   1      20.711 -18.958  -0.032  0.00  0.00     0.125 A 
ATOM     23  C   UNL d   1      20.672 -19.374   1.296  0.00  0.00     0.037 A 
ATOM     24  C   UNL d   1      19.644 -20.230   1.705  0.00  0.00     0.004 A 
ATOM     25  C   UNL d   1      18.683 -20.636   0.786  0.00  0.00     0.019 A 
ATOM     26  C   UNL d   1      18.777 -20.151  -0.508  0.00  0.00     0.117 A 
ATOM     27  N   UNL d   1      19.764 -19.325  -0.939  0.00  0.00    -0.255 NA
ENDBRANCH  19  22
ENDBRANCH   3  18
TORSDOF 6
ENDMDL
MODEL 7
REMARK VINA RESULT:   -30.197      3.896      4.987
REMARK INTER + INTRA:         -33.060
REMARK INTER:                 -31.987
REMARK INTRA:                  -1.073
REMARK CONF_INDEPENDENT:        1.790
REMARK UNBOUND:                -1.073
REMARK  6 active torsions:
REMARK  status: ('A' for Active; 'I' for Inactive)
REMARK    1  A    between atoms: C_2  and  C_3 
REMARK       I    between atoms: C_2  and  N_11 
REMARK    2  A    between atoms: C_4  and  C_5 
REMARK    3  A    between atoms: N_11  and  C_12 
REMARK    4  A    between atoms: C_12  and  C_13 
REMARK       I    between atoms: C_13  and  N_15 
REMARK    5  A    between atoms: N_15  and  N_16 
REMARK       I    between atoms: N_16  and  C_17 
REMARK    6  A    between atoms: C_17  and  C_19 
ROOT
ATOM      1  C   UNL d   1      24.884 -16.892  -0.687  0.00  0.00     0.253 C 
ATOM      2  O   UNL d   1      25.073 -17.869   0.041  0.00  0.00    -0.270 OA
ATOM      3  N   UNL d   1      23.605 -16.445  -1.003  0.00  0.00    -0.266 N 
ATOM      4  H   UNL d   1      23.397 -15.655  -1.614  0.00  0.00     0.190 HD
ENDROOT
BRANCH   1   5
ATOM      5  C   UNL d   1      26.051 -16.078  -1.299  0.00  0.00     0.227 C 
BRANCH   5   6
ATOM      6  N   UNL d   1      27.335 -16.786  -1.291  0.00  0.00    -0.349 N 
ATOM      7  C   UNL d   1      28.309 -16.804  -0.330  0.00  0.00     0.241 C 
ATOM      8  O   UNL d   1      29.334 -17.468  -0.487  0.00  0.00    -0.269 OA
ATOM      9  H   UNL d   1      27.555 -17.347  -2.111  0.00  0.00     0.163 HD
BRANCH   7  10
ATOM     10  C   UNL d   1      28.076 -16.003   0.899  0.00  0.00     0.075 C 
ATOM     11  C   UNL d   1      28.080 -14.659   0.889  0.00  0.00     0.017 C 
BRANCH  11  12
ATOM     12  C   UNL d   1      27.917 -13.855   2.114  0.00  0.00    -0.036 A 
ATOM     13  C   UNL d   1      27.968 -12.456   2.061  0.00  0.00     0.011 A 
ATOM     14  C   UNL d   1      27.958 -11.699   3.238  0.00  0.00     0.001 A 
ATOM     15  C   UNL d   1      27.829 -12.328   4.476  0.00  0.00     0.000 A 
ATOM     16  C   UNL d   1      27.752 -13.715   4.541  0.00  0.00     0.001 A 
ATOM     17  C   UNL d   1      27.810 -14.473   3.368  0.00  0.00     0.011 A 
ENDBRANCH  11  12
ENDBRANCH   7  10
ENDBRANCH   5   6
ENDBRANCH   1   5
BRANCH   3  18
ATOM     18  N   UNL d   1      22.476 -17.127  -0.458  0.00  0.00    -0.262 N 
ATOM     19  C   UNL d   1      22.093 -18.366  -0.979  0.00  0.00     0.288 C 
ATOM     20  O   UNL d   1      22.680 -18.879  -1.931  0.00  0.00    -0.264 OA
ATOM     21  H   UNL d   1      22.079 -16.729   0.392  0.00  0.00     0.190 HD
BRANCH  19  22
ATOM     22  C   UNL d   1      20.907 -19.040  -0.318  0.00  0.00     0.125 A 
ATOM     23  C   UNL d   1      20.929 -19.329   1.044  0.00  0.00     0.037 A 
ATOM     24  C   UNL d   1      19.825 -19.967   1.616  0.00  0.00     0.004 A 
ATOM     25  C   UNL d   1      18.731 -20.290   0.823  0.00  0.00     0.019 A 
ATOM     26  C   UNL d   1      18.775 -19.939  -0.517  0.00  0.00     0.117 A 
ATOM     27  N   UNL d   1      19.833 -19.325  -1.106  0.00  0.00    -0.255 NA
ENDBRANCH  19  22
ENDBRANCH   3  18
TORSDOF 6
ENDMDL
MODEL 8
REMARK VINA RESULT:   -28.887      3.485      5.366
REMARK INTER + INTRA:         -31.613
REMARK INTER:                 -30.677
REMARK INTRA:                  -0.936
REMARK CONF_INDEPENDENT:        1.790
REMARK UNBOUND:                -0.936
REMARK  6 active torsions:
REMARK  status: ('A' for Active; 'I' for Inactive)
REMARK    1  A    between atoms: C_2  and  C_3 
REMARK       I    between atoms: C_2  and  N_11 
REMARK    2  A    between atoms: C_4  and  C_5 
REMARK    3  A    between atoms: N_11  and  C_12 
REMARK    4  A    between atoms: C_12  and  C_13 
REMARK       I    between atoms: C_13  and  N_15 
REMARK    5  A    between atoms: N_15  and  N_16 
REMARK       I    between atoms: N_16  and  C_17 
REMARK    6  A    between atoms: C_17  and  C_19 
ROOT
ATOM      1  C   UNL d   1      24.845 -17.518  -1.164  0.00  0.00     0.253 C 
ATOM      2  O   UNL d   1      24.264 -17.939  -2.166  0.00  0.00    -0.270 OA
ATOM      3  N   UNL d   1      24.379 -17.778   0.122  0.00  0.00    -0.266 N 
ATOM      4  H   UNL d   1      24.814 -17.437   0.980  0.00  0.00     0.190 HD
ENDROOT
BRANCH   1   5
ATOM      5  C   UNL d   1      26.143 -16.678  -1.251  0.00  0.00     0.227 C 
BRANCH   5   6
ATOM      6  N   UNL d   1      25.906 -15.243  -1.444  0.00  0.00    -0.349 N 
ATOM      7  C   UNL d   1      26.789 -14.200  -1.364  0.00  0.00     0.241 C 
ATOM      8  O   UNL d   1      26.416 -13.044  -1.564  0.00  0.00    -0.269 OA
ATOM      9  H   UNL d   1      24.953 -14.960  -1.664  0.00  0.00     0.163 HD
BRANCH   7  10
ATOM     10  C   UNL d   1      28.202 -14.521  -1.035  0.00  0.00     0.075 C 
ATOM     11  C   UNL d   1      28.548 -15.143   0.104  0.00  0.00     0.017 C 
BRANCH  11  12
ATOM     12  C   UNL d   1      29.952 -15.406   0.471  0.00  0.00    -0.036 A 
ATOM     13  C   UNL d   1      30.697 -16.377  -0.211  0.00  0.00     0.011 A 
ATOM     14  C   UNL d   1      31.979 -16.727   0.229  0.00  0.00     0.001 A 
ATOM     15  C   UNL d   1      32.554 -16.065   1.313  0.00  0.00     0.000 A 
ATOM     16  C   UNL d   1      31.835 -15.082   1.983  0.00  0.00     0.001 A 
ATOM     17  C   UNL d   1      30.536 -14.766   1.574  0.00  0.00     0.011 A 
ENDBRANCH  11  12
ENDBRANCH   7  10
ENDBRANCH   5   6
ENDBRANCH   1   5
BRANCH   3  18
ATOM     18  N   UNL d   1      23.203 -18.567   0.288  0.00  0.00    -0.262 N 
ATOM     19  C   UNL d   1      21.979 -18.107  -0.207  0.00  0.00     0.288 C 
ATOM     20  O   UNL d   1      21.873 -17.011  -0.756  0.00  0.00    -0.264 OA
ATOM     21  H   UNL d   1      23.341 -19.510   0.650  0.00  0.00     0.190 HD
BRANCH  19  22
ATOM     22  C   UNL d   1      20.786 -19.023  -0.022  0.00  0.00     0.125 A 
ATOM     23  C   UNL d   1      20.609 -19.718   1.173  0.00  0.00     0.037 A 
ATOM     24  C   UNL d   1      19.507 -20.568   1.301  0.00  0.00     0.004 A 
ATOM     25  C   UNL d   1      18.611 -20.695   0.246  0.00  0.00     0.019 A 
ATOM     26  C   UNL d   1      18.842 -19.944  -0.895  0.00  0.00     0.117 A 
ATOM     27  N   UNL d   1      19.905 -19.115  -1.055  0.00  0.00    -0.255 NA
ENDBRANCH  19  22
ENDBRANCH   3  18
TORSDOF 6
ENDMDL
