MODEL 1
REMARK VINA RESULT:    -6.696      0.000      0.000
REMARK INTER + INTRA:         -12.226
REMARK INTER:                  -9.381
REMARK INTRA:                  -2.845
REMARK CONF_INDEPENDENT:        2.685
REMARK UNBOUND:                -2.845
REMARK  9 active torsions:
REMARK  status: ('A' for Active; 'I' for Inactive)
REMARK    1  A    between atoms: C_3  and  C_2 
REMARK    2  A    between atoms: C_3  and  N_5 
REMARK       I    between atoms: N_5  and  C_6 
REMARK    3  A    between atoms: C_6  and  C_8 
REMARK    4  A    between atoms: C_8  and  N_10 
REMARK       I    between atoms: N_10  and  C_11 
REMARK       I    between atoms: C_11  and  N_13 
REMARK    5  A    between atoms: N_13  and  C_14 
REMARK    6  A    between atoms: C_14  and  C_15 
REMARK    7  A    between atoms: C_15  and  N_16 
REMARK    8  A    between atoms: N_16  and  C_17 
REMARK    9  A    between atoms: C_22  and  N_23 
ROOT
ATOM      1  N   UNL d   1      23.909 -17.059  -1.238  0.00  0.00    -0.330 N 
ATOM      2  C   UNL d   1      25.267 -16.881  -1.336  0.00  0.00     0.316 C 
ATOM      3  O   UNL d   1      26.065 -17.378  -0.556  0.00  0.00    -0.247 OA
ATOM      4  N   UNL d   1      25.673 -16.165  -2.433  0.00  0.00    -0.342 N 
ATOM      5  H   UNL d   1      23.267 -16.557  -1.839  0.00  0.00     0.165 HD
ATOM      6  H   UNL d   1      24.999 -15.598  -2.927  0.00  0.00     0.164 HD
ENDROOT
BRANCH   4   7
ATOM      7  C   UNL d   1      27.104 -15.940  -2.663  0.00  0.00     0.144 C 
BRANCH   7   8
ATOM      8  C   UNL d   1      27.562 -14.529  -2.268  0.00  0.00     0.139 C 
BRANCH   8   9
ATOM      9  N   UNL d   1      28.130 -13.785  -3.396  0.00  0.00    -0.386 N 
ATOM     10  H   UNL d   1      28.969 -14.158  -3.833  0.00  0.00     0.159 HD
BRANCH   9  11
ATOM     11  C   UNL d   1      27.422 -12.828  -4.117  0.00  0.00     0.061 A 
ATOM     12  C   UNL d   1      28.070 -11.587  -4.345  0.00  0.00     0.031 A 
ATOM     13  C   UNL d   1      27.449 -10.523  -5.020  0.00  0.00     0.002 A 
ATOM     14  C   UNL d   1      26.184 -10.692  -5.561  0.00  0.00     0.003 A 
ATOM     15  C   UNL d   1      25.528 -11.905  -5.387  0.00  0.00     0.038 A 
ATOM     16  C   UNL d   1      26.129 -12.968  -4.669  0.00  0.00     0.129 A 
BRANCH  16  17
ATOM     17  N   UNL d   1      25.262 -14.141  -4.457  0.00  0.00    -0.113 N 
ATOM     18  O   UNL d   1      24.309 -14.009  -3.678  0.00  0.00    -0.532 OA
ATOM     19  O   UNL d   1      25.532 -15.216  -5.016  0.00  0.00    -0.532 OA
ENDBRANCH  16  17
ENDBRANCH   9  11
ENDBRANCH   8   9
ENDBRANCH   7   8
ENDBRANCH   4   7
BRANCH   1  20
ATOM     20  C   UNL d   1      23.307 -17.923  -0.197  0.00  0.00     0.174 C 
ATOM     21  C   UNL d   1      23.966 -19.297  -0.198  0.00  0.00     0.042 C 
BRANCH  20  22
ATOM     22  C   UNL d   1      21.779 -18.114  -0.434  0.00  0.00     0.240 C 
ATOM     23  N   UNL d   1      21.144 -19.098   0.328  0.00  0.00    -0.355 N 
ATOM     24  H   UNL d   1      21.651 -19.533   1.089  0.00  0.00     0.162 HD
ATOM     25  O   UNL d   1      21.176 -17.413  -1.248  0.00  0.00    -0.271 OA
BRANCH  23  26
ATOM     26  C   UNL d   1      19.680 -19.287   0.304  0.00  0.00     0.080 C 
ATOM     27  C   UNL d   1      19.162 -19.699  -1.092  0.00  0.00     0.032 C 
BRANCH  26  28
ATOM     28  C   UNL d   1      19.265 -20.352   1.338  0.00  0.00     0.020 C 
ATOM     29  C   UNL d   1      18.283 -21.330   0.704  0.00  0.00     0.007 C 
ENDBRANCH  26  28
ENDBRANCH  23  26
ENDBRANCH  20  22
ENDBRANCH   1  20
TORSDOF 9
ENDMDL
MODEL 2
REMARK VINA RESULT:    -5.802      2.043      3.401
REMARK INTER + INTRA:         -12.558
REMARK INTER:                  -8.487
REMARK INTRA:                  -4.071
REMARK CONF_INDEPENDENT:        2.685
REMARK UNBOUND:                -4.071
REMARK  9 active torsions:
REMARK  status: ('A' for Active; 'I' for Inactive)
REMARK    1  A    between atoms: C_3  and  C_2 
REMARK    2  A    between atoms: C_3  and  N_5 
REMARK       I    between atoms: N_5  and  C_6 
REMARK    3  A    between atoms: C_6  and  C_8 
REMARK    4  A    between atoms: C_8  and  N_10 
REMARK       I    between atoms: N_10  and  C_11 
REMARK       I    between atoms: C_11  and  N_13 
REMARK    5  A    between atoms: N_13  and  C_14 
REMARK    6  A    between atoms: C_14  and  C_15 
REMARK    7  A    between atoms: C_15  and  N_16 
REMARK    8  A    between atoms: N_16  and  C_17 
REMARK    9  A    between atoms: C_22  and  N_23 
ROOT
ATOM      1  N   UNL d   1      25.887 -15.173  -1.205  0.00  0.00    -0.330 N 
ATOM      2  C   UNL d   1      26.409 -13.910  -1.076  0.00  0.00     0.316 C 
ATOM      3  O   UNL d   1      27.100 -13.564  -0.131  0.00  0.00    -0.247 OA
ATOM      4  N   UNL d   1      26.163 -13.078  -2.139  0.00  0.00    -0.342 N 
ATOM      5  H   UNL d   1      25.238 -15.403  -1.947  0.00  0.00     0.165 HD
ATOM      6  H   UNL d   1      25.426 -13.314  -2.788  0.00  0.00     0.164 HD
ENDROOT
BRANCH   4   7
ATOM      7  C   UNL d   1      26.700 -11.714  -2.133  0.00  0.00     0.144 C 
BRANCH   7   8
ATOM      8  C   UNL d   1      26.401 -10.943  -3.426  0.00  0.00     0.139 C 
BRANCH   8   9
ATOM      9  N   UNL d   1      25.915 -11.813  -4.500  0.00  0.00    -0.386 N 
ATOM     10  H   UNL d   1      25.103 -11.503  -5.029  0.00  0.00     0.159 HD
BRANCH   9  11
ATOM     11  C   UNL d   1      26.677 -12.832  -5.064  0.00  0.00     0.061 A 
ATOM     12  C   UNL d   1      27.740 -12.442  -5.918  0.00  0.00     0.031 A 
ATOM     13  C   UNL d   1      28.555 -13.373  -6.584  0.00  0.00     0.002 A 
ATOM     14  C   UNL d   1      28.385 -14.729  -6.355  0.00  0.00     0.003 A 
ATOM     15  C   UNL d   1      27.373 -15.151  -5.499  0.00  0.00     0.038 A 
ATOM     16  C   UNL d   1      26.519 -14.220  -4.859  0.00  0.00     0.129 A 
BRANCH  16  17
ATOM     17  N   UNL d   1      25.415 -14.822  -4.087  0.00  0.00    -0.113 N 
ATOM     18  O   UNL d   1      25.531 -16.012  -3.766  0.00  0.00    -0.532 OA
ATOM     19  O   UNL d   1      24.406 -14.147  -3.827  0.00  0.00    -0.532 OA
ENDBRANCH  16  17
ENDBRANCH   9  11
ENDBRANCH   8   9
ENDBRANCH   7   8
ENDBRANCH   4   7
BRANCH   1  20
ATOM     20  C   UNL d   1      26.173 -16.240  -0.219  0.00  0.00     0.174 C 
ATOM     21  C   UNL d   1      27.432 -17.005  -0.611  0.00  0.00     0.042 C 
BRANCH  20  22
ATOM     22  C   UNL d   1      24.995 -17.256  -0.126  0.00  0.00     0.240 C 
ATOM     23  N   UNL d   1      24.188 -17.387  -1.259  0.00  0.00    -0.355 N 
ATOM     24  H   UNL d   1      24.479 -16.944  -2.122  0.00  0.00     0.162 HD
ATOM     25  O   UNL d   1      24.810 -17.912   0.901  0.00  0.00    -0.271 OA
BRANCH  23  26
ATOM     26  C   UNL d   1      23.128 -18.410  -1.354  0.00  0.00     0.080 C 
ATOM     27  C   UNL d   1      23.449 -19.669  -0.520  0.00  0.00     0.032 C 
BRANCH  26  28
ATOM     28  C   UNL d   1      21.780 -17.822  -0.895  0.00  0.00     0.020 C 
ATOM     29  C   UNL d   1      20.815 -18.952  -0.555  0.00  0.00     0.007 C 
ENDBRANCH  26  28
ENDBRANCH  23  26
ENDBRANCH  20  22
ENDBRANCH   1  20
TORSDOF 9
ENDMDL
MODEL 3
REMARK VINA RESULT:    -4.970      2.195      3.388
REMARK INTER + INTRA:         -12.645
REMARK INTER:                  -7.654
REMARK INTRA:                  -4.991
REMARK CONF_INDEPENDENT:        2.685
REMARK UNBOUND:                -4.991
REMARK  9 active torsions:
REMARK  status: ('A' for Active; 'I' for Inactive)
REMARK    1  A    between atoms: C_3  and  C_2 
REMARK    2  A    between atoms: C_3  and  N_5 
REMARK       I    between atoms: N_5  and  C_6 
REMARK    3  A    between atoms: C_6  and  C_8 
REMARK    4  A    between atoms: C_8  and  N_10 
REMARK       I    between atoms: N_10  and  C_11 
REMARK       I    between atoms: C_11  and  N_13 
REMARK    5  A    between atoms: N_13  and  C_14 
REMARK    6  A    between atoms: C_14  and  C_15 
REMARK    7  A    between atoms: C_15  and  N_16 
REMARK    8  A    between atoms: N_16  and  C_17 
REMARK    9  A    between atoms: C_22  and  N_23 
ROOT
ATOM      1  N   UNL d   1      27.166 -16.345  -2.108  0.00  0.00    -0.330 N 
ATOM      2  C   UNL d   1      28.274 -15.932  -2.806  0.00  0.00     0.316 C 
ATOM      3  O   UNL d   1      29.338 -15.658  -2.273  0.00  0.00    -0.247 OA
ATOM      4  N   UNL d   1      28.122 -15.929  -4.170  0.00  0.00    -0.342 N 
ATOM      5  H   UNL d   1      26.272 -16.471  -2.564  0.00  0.00     0.165 HD
ATOM      6  H   UNL d   1      27.192 -15.951  -4.561  0.00  0.00     0.164 HD
ENDROOT
BRANCH   4   7
ATOM      7  C   UNL d   1      29.249 -15.541  -5.024  0.00  0.00     0.144 C 
BRANCH   7   8
ATOM      8  C   UNL d   1      28.844 -14.588  -6.157  0.00  0.00     0.139 C 
BRANCH   8   9
ATOM      9  N   UNL d   1      27.417 -14.259  -6.133  0.00  0.00    -0.386 N 
ATOM     10  H   UNL d   1      26.771 -14.928  -6.545  0.00  0.00     0.159 HD
BRANCH   9  11
ATOM     11  C   UNL d   1      26.866 -13.293  -5.295  0.00  0.00     0.061 A 
ATOM     12  C   UNL d   1      27.320 -11.960  -5.467  0.00  0.00     0.031 A 
ATOM     13  C   UNL d   1      26.877 -10.901  -4.658  0.00  0.00     0.002 A 
ATOM     14  C   UNL d   1      25.903 -11.125  -3.698  0.00  0.00     0.003 A 
ATOM     15  C   UNL d   1      25.409 -12.413  -3.520  0.00  0.00     0.038 A 
ATOM     16  C   UNL d   1      25.883 -13.495  -4.301  0.00  0.00     0.129 A 
BRANCH  16  17
ATOM     17  N   UNL d   1      25.362 -14.817  -3.910  0.00  0.00    -0.113 N 
ATOM     18  O   UNL d   1      24.781 -14.898  -2.820  0.00  0.00    -0.532 OA
ATOM     19  O   UNL d   1      25.556 -15.798  -4.646  0.00  0.00    -0.532 OA
ENDBRANCH  16  17
ENDBRANCH   9  11
ENDBRANCH   8   9
ENDBRANCH   7   8
ENDBRANCH   4   7
BRANCH   1  20
ATOM     20  C   UNL d   1      27.197 -16.542  -0.640  0.00  0.00     0.174 C 
ATOM     21  C   UNL d   1      28.316 -17.503  -0.255  0.00  0.00     0.042 C 
BRANCH  20  22
ATOM     22  C   UNL d   1      25.850 -17.128  -0.119  0.00  0.00     0.240 C 
ATOM     23  N   UNL d   1      24.680 -16.582  -0.652  0.00  0.00    -0.355 N 
ATOM     24  H   UNL d   1      24.748 -15.952  -1.442  0.00  0.00     0.162 HD
ATOM     25  O   UNL d   1      25.840 -18.038   0.711  0.00  0.00    -0.271 OA
BRANCH  23  26
ATOM     26  C   UNL d   1      23.346 -17.138  -0.352  0.00  0.00     0.080 C 
ATOM     27  C   UNL d   1      22.203 -16.252  -0.895  0.00  0.00     0.032 C 
BRANCH  26  28
ATOM     28  C   UNL d   1      23.217 -18.556  -0.940  0.00  0.00     0.020 C 
ATOM     29  C   UNL d   1      21.760 -19.001  -0.896  0.00  0.00     0.007 C 
ENDBRANCH  26  28
ENDBRANCH  23  26
ENDBRANCH  20  22
ENDBRANCH   1  20
TORSDOF 9
ENDMDL
MODEL 4
REMARK VINA RESULT:    -4.668      2.947      8.107
REMARK INTER + INTRA:         -11.864
REMARK INTER:                  -7.353
REMARK INTRA:                  -4.511
REMARK CONF_INDEPENDENT:        2.685
REMARK UNBOUND:                -4.511
REMARK  9 active torsions:
REMARK  status: ('A' for Active; 'I' for Inactive)
REMARK    1  A    between atoms: C_3  and  C_2 
REMARK    2  A    between atoms: C_3  and  N_5 
REMARK       I    between atoms: N_5  and  C_6 
REMARK    3  A    between atoms: C_6  and  C_8 
REMARK    4  A    between atoms: C_8  and  N_10 
REMARK       I    between atoms: N_10  and  C_11 
REMARK       I    between atoms: C_11  and  N_13 
REMARK    5  A    between atoms: N_13  and  C_14 
REMARK    6  A    between atoms: C_14  and  C_15 
REMARK    7  A    between atoms: C_15  and  N_16 
REMARK    8  A    between atoms: N_16  and  C_17 
REMARK    9  A    between atoms: C_22  and  N_23 
ROOT
ATOM      1  N   UNL d   1      27.594 -13.922  -3.524  0.00  0.00    -0.330 N 
ATOM      2  C   UNL d   1      28.329 -14.529  -2.536  0.00  0.00     0.316 C 
ATOM      3  O   UNL d   1      29.507 -14.825  -2.664  0.00  0.00    -0.247 OA
ATOM      4  N   UNL d   1      27.659 -14.708  -1.353  0.00  0.00    -0.342 N 
ATOM      5  H   UNL d   1      26.596 -13.778  -3.426  0.00  0.00     0.165 HD
ATOM      6  H   UNL d   1      26.652 -14.655  -1.345  0.00  0.00     0.164 HD
ENDROOT
BRANCH   4   7
ATOM      7  C   UNL d   1      28.353 -15.315  -0.211  0.00  0.00     0.144 C 
BRANCH   7   8
ATOM      8  C   UNL d   1      27.843 -16.724   0.122  0.00  0.00     0.139 C 
BRANCH   8   9
ATOM      9  N   UNL d   1      26.954 -17.260  -0.912  0.00  0.00    -0.386 N 
ATOM     10  H   UNL d   1      27.353 -17.907  -1.587  0.00  0.00     0.159 HD
BRANCH   9  11
ATOM     11  C   UNL d   1      25.565 -17.225  -0.823  0.00  0.00     0.061 A 
ATOM     12  C   UNL d   1      24.949 -18.200   0.001  0.00  0.00     0.031 A 
ATOM     13  C   UNL d   1      23.555 -18.300   0.142  0.00  0.00     0.002 A 
ATOM     14  C   UNL d   1      22.730 -17.375  -0.478  0.00  0.00     0.003 A 
ATOM     15  C   UNL d   1      23.298 -16.382  -1.270  0.00  0.00     0.038 A 
ATOM     16  C   UNL d   1      24.700 -16.302  -1.452  0.00  0.00     0.129 A 
BRANCH  16  17
ATOM     17  N   UNL d   1      25.142 -15.281  -2.420  0.00  0.00    -0.113 N 
ATOM     18  O   UNL d   1      25.530 -15.678  -3.526  0.00  0.00    -0.532 OA
ATOM     19  O   UNL d   1      25.155 -14.084  -2.090  0.00  0.00    -0.532 OA
ENDBRANCH  16  17
ENDBRANCH   9  11
ENDBRANCH   8   9
ENDBRANCH   7   8
ENDBRANCH   4   7
BRANCH   1  20
ATOM     20  C   UNL d   1      28.198 -13.526  -4.816  0.00  0.00     0.174 C 
ATOM     21  C   UNL d   1      27.236 -12.649  -5.609  0.00  0.00     0.042 C 
BRANCH  20  22
ATOM     22  C   UNL d   1      28.548 -14.773  -5.683  0.00  0.00     0.240 C 
ATOM     23  N   UNL d   1      29.787 -15.373  -5.448  0.00  0.00    -0.355 N 
ATOM     24  H   UNL d   1      30.331 -15.079  -4.646  0.00  0.00     0.162 HD
ATOM     25  O   UNL d   1      27.751 -15.200  -6.520  0.00  0.00    -0.271 OA
BRANCH  23  26
ATOM     26  C   UNL d   1      30.183 -16.638  -6.098  0.00  0.00     0.080 C 
ATOM     27  C   UNL d   1      31.166 -16.416  -7.268  0.00  0.00     0.032 C 
BRANCH  26  28
ATOM     28  C   UNL d   1      30.822 -17.587  -5.066  0.00  0.00     0.020 C 
ATOM     29  C   UNL d   1      30.405 -19.023  -5.361  0.00  0.00     0.007 C 
ENDBRANCH  26  28
ENDBRANCH  23  26
ENDBRANCH  20  22
ENDBRANCH   1  20
TORSDOF 9
ENDMDL
MODEL 5
REMARK VINA RESULT:    -4.470      2.608      4.290
REMARK INTER + INTRA:         -11.995
REMARK INTER:                  -7.155
REMARK INTRA:                  -4.840
REMARK CONF_INDEPENDENT:        2.685
REMARK UNBOUND:                -4.840
REMARK  9 active torsions:
REMARK  status: ('A' for Active; 'I' for Inactive)
REMARK    1  A    between atoms: C_3  and  C_2 
REMARK    2  A    between atoms: C_3  and  N_5 
REMARK       I    between atoms: N_5  and  C_6 
REMARK    3  A    between atoms: C_6  and  C_8 
REMARK    4  A    between atoms: C_8  and  N_10 
REMARK       I    between atoms: N_10  and  C_11 
REMARK       I    between atoms: C_11  and  N_13 
REMARK    5  A    between atoms: N_13  and  C_14 
REMARK    6  A    between atoms: C_14  and  C_15 
REMARK    7  A    between atoms: C_15  and  N_16 
REMARK    8  A    between atoms: N_16  and  C_17 
REMARK    9  A    between atoms: C_22  and  N_23 
ROOT
ATOM      1  N   UNL d   1      28.216 -14.029  -1.840  0.00  0.00    -0.330 N 
ATOM      2  C   UNL d   1      28.427 -14.967  -2.821  0.00  0.00     0.316 C 
ATOM      3  O   UNL d   1      27.558 -15.728  -3.217  0.00  0.00    -0.247 OA
ATOM      4  N   UNL d   1      29.675 -14.930  -3.388  0.00  0.00    -0.342 N 
ATOM      5  H   UNL d   1      28.978 -13.479  -1.464  0.00  0.00     0.165 HD
ATOM      6  H   UNL d   1      30.421 -14.451  -2.906  0.00  0.00     0.164 HD
ENDROOT
BRANCH   4   7
ATOM      7  C   UNL d   1      30.007 -15.861  -4.473  0.00  0.00     0.144 C 
BRANCH   7   8
ATOM      8  C   UNL d   1      29.356 -15.482  -5.810  0.00  0.00     0.139 C 
BRANCH   8   9
ATOM      9  N   UNL d   1      27.924 -15.199  -5.679  0.00  0.00    -0.386 N 
ATOM     10  H   UNL d   1      27.315 -15.965  -5.400  0.00  0.00     0.159 HD
BRANCH   9  11
ATOM     11  C   UNL d   1      27.404 -13.913  -5.568  0.00  0.00     0.061 A 
ATOM     12  C   UNL d   1      28.196 -12.854  -6.079  0.00  0.00     0.031 A 
ATOM     13  C   UNL d   1      27.805 -11.507  -5.990  0.00  0.00     0.002 A 
ATOM     14  C   UNL d   1      26.569 -11.180  -5.456  0.00  0.00     0.003 A 
ATOM     15  C   UNL d   1      25.749 -12.194  -4.973  0.00  0.00     0.038 A 
ATOM     16  C   UNL d   1      26.155 -13.550  -5.018  0.00  0.00     0.129 A 
BRANCH  16  17
ATOM     17  N   UNL d   1      25.238 -14.494  -4.352  0.00  0.00    -0.113 N 
ATOM     18  O   UNL d   1      25.315 -15.685  -4.679  0.00  0.00    -0.532 OA
ATOM     19  O   UNL d   1      24.404 -14.070  -3.536  0.00  0.00    -0.532 OA
ENDBRANCH  16  17
ENDBRANCH   9  11
ENDBRANCH   8   9
ENDBRANCH   7   8
ENDBRANCH   4   7
BRANCH   1  20
ATOM     20  C   UNL d   1      26.886 -13.834  -1.219  0.00  0.00     0.174 C 
ATOM     21  C   UNL d   1      26.981 -12.859  -0.052  0.00  0.00     0.042 C 
BRANCH  20  22
ATOM     22  C   UNL d   1      26.307 -15.179  -0.685  0.00  0.00     0.240 C 
ATOM     23  N   UNL d   1      25.527 -15.923  -1.574  0.00  0.00    -0.355 N 
ATOM     24  H   UNL d   1      25.492 -15.646  -2.547  0.00  0.00     0.162 HD
ATOM     25  O   UNL d   1      26.549 -15.556   0.462  0.00  0.00    -0.271 OA
BRANCH  23  26
ATOM     26  C   UNL d   1      25.037 -17.276  -1.245  0.00  0.00     0.080 C 
ATOM     27  C   UNL d   1      26.061 -18.091  -0.426  0.00  0.00     0.032 C 
BRANCH  26  28
ATOM     28  C   UNL d   1      23.713 -17.184  -0.461  0.00  0.00     0.020 C 
ATOM     29  C   UNL d   1      22.779 -18.307  -0.896  0.00  0.00     0.007 C 
ENDBRANCH  26  28
ENDBRANCH  23  26
ENDBRANCH  20  22
ENDBRANCH   1  20
TORSDOF 9
ENDMDL
MODEL 6
REMARK VINA RESULT:    -4.432      3.387      6.462
REMARK INTER + INTRA:         -11.912
REMARK INTER:                  -7.116
REMARK INTRA:                  -4.796
REMARK CONF_INDEPENDENT:        2.685
REMARK UNBOUND:                -4.796
REMARK  9 active torsions:
REMARK  status: ('A' for Active; 'I' for Inactive)
REMARK    1  A    between atoms: C_3  and  C_2 
REMARK    2  A    between atoms: C_3  and  N_5 
REMARK       I    between atoms: N_5  and  C_6 
REMARK    3  A    between atoms: C_6  and  C_8 
REMARK    4  A    between atoms: C_8  and  N_10 
REMARK       I    between atoms: N_10  and  C_11 
REMARK       I    between atoms: C_11  and  N_13 
REMARK    5  A    between atoms: N_13  and  C_14 
REMARK    6  A    between atoms: C_14  and  C_15 
REMARK    7  A    between atoms: C_15  and  N_16 
REMARK    8  A    between atoms: N_16  and  C_17 
REMARK    9  A    between atoms: C_22  and  N_23 
ROOT
ATOM      1  N   UNL d   1      27.276 -13.495  -4.378  0.00  0.00    -0.330 N 
ATOM      2  C   UNL d   1      28.025 -12.998  -5.416  0.00  0.00     0.316 C 
ATOM      3  O   UNL d   1      27.546 -12.375  -6.350  0.00  0.00    -0.247 OA
ATOM      4  N   UNL d   1      29.378 -13.185  -5.285  0.00  0.00    -0.342 N 
ATOM      5  H   UNL d   1      27.686 -14.091  -3.669  0.00  0.00     0.165 HD
ATOM      6  H   UNL d   1      29.719 -13.873  -4.630  0.00  0.00     0.164 HD
ENDROOT
BRANCH   4   7
ATOM      7  C   UNL d   1      30.285 -12.666  -6.314  0.00  0.00     0.144 C 
BRANCH   7   8
ATOM      8  C   UNL d   1      30.769 -13.747  -7.290  0.00  0.00     0.139 C 
BRANCH   8   9
ATOM      9  N   UNL d   1      29.923 -14.943  -7.270  0.00  0.00    -0.386 N 
ATOM     10  H   UNL d   1      29.173 -15.002  -7.955  0.00  0.00     0.159 HD
BRANCH   9  11
ATOM     11  C   UNL d   1      30.282 -16.127  -6.633  0.00  0.00     0.061 A 
ATOM     12  C   UNL d   1      31.237 -16.945  -7.289  0.00  0.00     0.031 A 
ATOM     13  C   UNL d   1      31.652 -18.184  -6.774  0.00  0.00     0.002 A 
ATOM     14  C   UNL d   1      31.184 -18.612  -5.543  0.00  0.00     0.003 A 
ATOM     15  C   UNL d   1      30.270 -17.823  -4.853  0.00  0.00     0.038 A 
ATOM     16  C   UNL d   1      29.813 -16.594  -5.386  0.00  0.00     0.129 A 
BRANCH  16  17
ATOM     17  N   UNL d   1      28.750 -15.936  -4.603  0.00  0.00    -0.113 N 
ATOM     18  O   UNL d   1      29.044 -15.544  -3.466  0.00  0.00    -0.532 OA
ATOM     19  O   UNL d   1      27.607 -15.836  -5.077  0.00  0.00    -0.532 OA
ENDBRANCH  16  17
ENDBRANCH   9  11
ENDBRANCH   8   9
ENDBRANCH   7   8
ENDBRANCH   4   7
BRANCH   1  20
ATOM     20  C   UNL d   1      25.817 -13.260  -4.287  0.00  0.00     0.174 C 
ATOM     21  C   UNL d   1      25.531 -11.943  -3.575  0.00  0.00     0.042 C 
BRANCH  20  22
ATOM     22  C   UNL d   1      25.108 -14.404  -3.499  0.00  0.00     0.240 C 
ATOM     23  N   UNL d   1      25.920 -15.436  -3.025  0.00  0.00    -0.355 N 
ATOM     24  H   UNL d   1      26.926 -15.332  -3.077  0.00  0.00     0.162 HD
ATOM     25  O   UNL d   1      23.892 -14.372  -3.303  0.00  0.00    -0.271 OA
BRANCH  23  26
ATOM     26  C   UNL d   1      25.402 -16.504  -2.148  0.00  0.00     0.080 C 
ATOM     27  C   UNL d   1      26.506 -17.138  -1.274  0.00  0.00     0.032 C 
BRANCH  26  28
ATOM     28  C   UNL d   1      24.287 -15.951  -1.240  0.00  0.00     0.020 C 
ATOM     29  C   UNL d   1      23.302 -17.062  -0.898  0.00  0.00     0.007 C 
ENDBRANCH  26  28
ENDBRANCH  23  26
ENDBRANCH  20  22
ENDBRANCH   1  20
TORSDOF 9
ENDMDL
MODEL 7
REMARK VINA RESULT:    -4.245      4.322      6.907
REMARK INTER + INTRA:         -12.002
REMARK INTER:                  -6.930
REMARK INTRA:                  -5.072
REMARK CONF_INDEPENDENT:        2.685
REMARK UNBOUND:                -5.072
REMARK  9 active torsions:
REMARK  status: ('A' for Active; 'I' for Inactive)
REMARK    1  A    between atoms: C_3  and  C_2 
REMARK    2  A    between atoms: C_3  and  N_5 
REMARK       I    between atoms: N_5  and  C_6 
REMARK    3  A    between atoms: C_6  and  C_8 
REMARK    4  A    between atoms: C_8  and  N_10 
REMARK       I    between atoms: N_10  and  C_11 
REMARK       I    between atoms: C_11  and  N_13 
REMARK    5  A    between atoms: N_13  and  C_14 
REMARK    6  A    between atoms: C_14  and  C_15 
REMARK    7  A    between atoms: C_15  and  N_16 
REMARK    8  A    between atoms: N_16  and  C_17 
REMARK    9  A    between atoms: C_22  and  N_23 
ROOT
ATOM      1  N   UNL d   1      27.225 -13.561  -1.420  0.00  0.00    -0.330 N 
ATOM      2  C   UNL d   1      28.593 -13.533  -1.306  0.00  0.00     0.316 C 
ATOM      3  O   UNL d   1      29.348 -13.778  -2.234  0.00  0.00    -0.247 OA
ATOM      4  N   UNL d   1      29.056 -13.125  -0.080  0.00  0.00    -0.342 N 
ATOM      5  H   UNL d   1      26.626 -13.451  -0.612  0.00  0.00     0.165 HD
ATOM      6  H   UNL d   1      28.430 -13.139   0.711  0.00  0.00     0.164 HD
ENDROOT
BRANCH   4   7
ATOM      7  C   UNL d   1      30.501 -13.021   0.151  0.00  0.00     0.144 C 
BRANCH   7   8
ATOM      8  C   UNL d   1      30.950 -13.688   1.459  0.00  0.00     0.139 C 
BRANCH   8   9
ATOM      9  N   UNL d   1      29.957 -14.631   1.980  0.00  0.00    -0.386 N 
ATOM     10  H   UNL d   1      30.059 -15.611   1.727  0.00  0.00     0.159 HD
BRANCH   9  11
ATOM     11  C   UNL d   1      29.117 -14.345   3.052  0.00  0.00     0.061 A 
ATOM     12  C   UNL d   1      29.672 -14.464   4.352  0.00  0.00     0.031 A 
ATOM     13  C   UNL d   1      28.919 -14.247   5.518  0.00  0.00     0.002 A 
ATOM     14  C   UNL d   1      27.602 -13.825   5.421  0.00  0.00     0.003 A 
ATOM     15  C   UNL d   1      27.031 -13.666   4.164  0.00  0.00     0.038 A 
ATOM     16  C   UNL d   1      27.770 -13.926   2.984  0.00  0.00     0.129 A 
BRANCH  16  17
ATOM     17  N   UNL d   1      26.993 -13.839   1.734  0.00  0.00    -0.113 N 
ATOM     18  O   UNL d   1      26.999 -14.830   0.993  0.00  0.00    -0.532 OA
ATOM     19  O   UNL d   1      26.407 -12.784   1.445  0.00  0.00    -0.532 OA
ENDBRANCH  16  17
ENDBRANCH   9  11
ENDBRANCH   8   9
ENDBRANCH   7   8
ENDBRANCH   4   7
BRANCH   1  20
ATOM     20  C   UNL d   1      26.555 -13.842  -2.710  0.00  0.00     0.174 C 
ATOM     21  C   UNL d   1      25.564 -12.735  -3.049  0.00  0.00     0.042 C 
BRANCH  20  22
ATOM     22  C   UNL d   1      25.779 -15.193  -2.663  0.00  0.00     0.240 C 
ATOM     23  N   UNL d   1      25.804 -15.889  -1.452  0.00  0.00    -0.355 N 
ATOM     24  H   UNL d   1      26.185 -15.434  -0.632  0.00  0.00     0.162 HD
ATOM     25  O   UNL d   1      25.168 -15.603  -3.652  0.00  0.00    -0.271 OA
BRANCH  23  26
ATOM     26  C   UNL d   1      24.999 -17.106  -1.229  0.00  0.00     0.080 C 
ATOM     27  C   UNL d   1      25.547 -17.971  -0.073  0.00  0.00     0.032 C 
BRANCH  26  28
ATOM     28  C   UNL d   1      23.535 -16.727  -0.933  0.00  0.00     0.020 C 
ATOM     29  C   UNL d   1      22.768 -17.960  -0.468  0.00  0.00     0.007 C 
ENDBRANCH  26  28
ENDBRANCH  23  26
ENDBRANCH  20  22
ENDBRANCH   1  20
TORSDOF 9
ENDMDL
MODEL 8
REMARK VINA RESULT:    -3.971      3.505      5.675
REMARK INTER + INTRA:         -11.752
REMARK INTER:                  -6.656
REMARK INTRA:                  -5.096
REMARK CONF_INDEPENDENT:        2.685
REMARK UNBOUND:                -5.096
REMARK  9 active torsions:
REMARK  status: ('A' for Active; 'I' for Inactive)
REMARK    1  A    between atoms: C_3  and  C_2 
REMARK    2  A    between atoms: C_3  and  N_5 
REMARK       I    between atoms: N_5  and  C_6 
REMARK    3  A    between atoms: C_6  and  C_8 
REMARK    4  A    between atoms: C_8  and  N_10 
REMARK       I    between atoms: N_10  and  C_11 
REMARK       I    between atoms: C_11  and  N_13 
REMARK    5  A    between atoms: N_13  and  C_14 
REMARK    6  A    between atoms: C_14  and  C_15 
REMARK    7  A    between atoms: C_15  and  N_16 
REMARK    8  A    between atoms: N_16  and  C_17 
REMARK    9  A    between atoms: C_22  and  N_23 
ROOT
ATOM      1  N   UNL d   1      28.263 -15.303  -4.333  0.00  0.00    -0.330 N 
ATOM      2  C   UNL d   1      28.458 -14.096  -4.958  0.00  0.00     0.316 C 
ATOM      3  O   UNL d   1      29.535 -13.521  -4.981  0.00  0.00    -0.247 OA
ATOM      4  N   UNL d   1      27.364 -13.617  -5.632  0.00  0.00    -0.342 N 
ATOM      5  H   UNL d   1      27.339 -15.709  -4.246  0.00  0.00     0.165 HD
ATOM      6  H   UNL d   1      26.452 -13.995  -5.420  0.00  0.00     0.164 HD
ENDROOT
BRANCH   4   7
ATOM      7  C   UNL d   1      27.461 -12.353  -6.368  0.00  0.00     0.144 C 
BRANCH   7   8
ATOM      8  C   UNL d   1      26.677 -11.210  -5.709  0.00  0.00     0.139 C 
BRANCH   8   9
ATOM      9  N   UNL d   1      25.729 -11.688  -4.699  0.00  0.00    -0.386 N 
ATOM     10  H   UNL d   1      24.780 -11.894  -5.002  0.00  0.00     0.159 HD
BRANCH   9  11
ATOM     11  C   UNL d   1      26.117 -12.205  -3.466  0.00  0.00     0.061 A 
ATOM     12  C   UNL d   1      26.811 -11.328  -2.593  0.00  0.00     0.031 A 
ATOM     13  C   UNL d   1      27.295 -11.738  -1.339  0.00  0.00     0.002 A 
ATOM     14  C   UNL d   1      27.032 -13.019  -0.881  0.00  0.00     0.003 A 
ATOM     15  C   UNL d   1      26.326 -13.899  -1.695  0.00  0.00     0.038 A 
ATOM     16  C   UNL d   1      25.874 -13.508  -2.979  0.00  0.00     0.129 A 
BRANCH  16  17
ATOM     17  N   UNL d   1      25.256 -14.586  -3.773  0.00  0.00    -0.113 N 
ATOM     18  O   UNL d   1      24.444 -14.253  -4.646  0.00  0.00    -0.532 OA
ATOM     19  O   UNL d   1      25.528 -15.770  -3.521  0.00  0.00    -0.532 OA
ENDBRANCH  16  17
ENDBRANCH   9  11
ENDBRANCH   8   9
ENDBRANCH   7   8
ENDBRANCH   4   7
BRANCH   1  20
ATOM     20  C   UNL d   1      29.373 -16.032  -3.678  0.00  0.00     0.174 C 
ATOM     21  C   UNL d   1      29.891 -17.142  -4.585  0.00  0.00     0.042 C 
BRANCH  20  22
ATOM     22  C   UNL d   1      28.914 -16.675  -2.335  0.00  0.00     0.240 C 
ATOM     23  N   UNL d   1      27.556 -16.572  -2.022  0.00  0.00    -0.355 N 
ATOM     24  H   UNL d   1      26.915 -16.228  -2.726  0.00  0.00     0.162 HD
ATOM     25  O   UNL d   1      29.721 -17.254  -1.606  0.00  0.00    -0.271 OA
BRANCH  23  26
ATOM     26  C   UNL d   1      26.965 -17.255  -0.854  0.00  0.00     0.080 C 
ATOM     27  C   UNL d   1      27.287 -16.535   0.474  0.00  0.00     0.032 C 
BRANCH  26  28
ATOM     28  C   UNL d   1      25.437 -17.362  -1.019  0.00  0.00     0.020 C 
ATOM     29  C   UNL d   1      24.830 -18.011   0.220  0.00  0.00     0.007 C 
ENDBRANCH  26  28
ENDBRANCH  23  26
ENDBRANCH  20  22
ENDBRANCH   1  20
TORSDOF 9
ENDMDL
MODEL 9
REMARK VINA RESULT:    -3.745      3.442      6.215
REMARK INTER + INTRA:         -12.005
REMARK INTER:                  -6.429
REMARK INTRA:                  -5.575
REMARK CONF_INDEPENDENT:        2.685
REMARK UNBOUND:                -5.575
REMARK  9 active torsions:
REMARK  status: ('A' for Active; 'I' for Inactive)
REMARK    1  A    between atoms: C_3  and  C_2 
REMARK    2  A    between atoms: C_3  and  N_5 
REMARK       I    between atoms: N_5  and  C_6 
REMARK    3  A    between atoms: C_6  and  C_8 
REMARK    4  A    between atoms: C_8  and  N_10 
REMARK       I    between atoms: N_10  and  C_11 
REMARK       I    between atoms: C_11  and  N_13 
REMARK    5  A    between atoms: N_13  and  C_14 
REMARK    6  A    between atoms: C_14  and  C_15 
REMARK    7  A    between atoms: C_15  and  N_16 
REMARK    8  A    between atoms: N_16  and  C_17 
REMARK    9  A    between atoms: C_22  and  N_23 
ROOT
ATOM      1  N   UNL d   1      27.245 -13.527  -4.789  0.00  0.00    -0.330 N 
ATOM      2  C   UNL d   1      27.715 -14.638  -5.445  0.00  0.00     0.316 C 
ATOM      3  O   UNL d   1      27.003 -15.575  -5.771  0.00  0.00    -0.247 OA
ATOM      4  N   UNL d   1      29.044 -14.582  -5.783  0.00  0.00    -0.342 N 
ATOM      5  H   UNL d   1      27.874 -12.812  -4.445  0.00  0.00     0.165 HD
ATOM      6  H   UNL d   1      29.641 -13.912  -5.323  0.00  0.00     0.164 HD
ENDROOT
BRANCH   4   7
ATOM      7  C   UNL d   1      29.652 -15.696  -6.518  0.00  0.00     0.144 C 
BRANCH   7   8
ATOM      8  C   UNL d   1      30.759 -16.407  -5.727  0.00  0.00     0.139 C 
BRANCH   8   9
ATOM      9  N   UNL d   1      31.074 -15.728  -4.467  0.00  0.00    -0.386 N 
ATOM     10  H   UNL d   1      31.554 -14.833  -4.521  0.00  0.00     0.159 HD
BRANCH   9  11
ATOM     11  C   UNL d   1      30.466 -16.040  -3.254  0.00  0.00     0.061 A 
ATOM     12  C   UNL d   1      30.693 -17.342  -2.739  0.00  0.00     0.031 A 
ATOM     13  C   UNL d   1      30.103 -17.796  -1.548  0.00  0.00     0.002 A 
ATOM     14  C   UNL d   1      29.327 -16.935  -0.788  0.00  0.00     0.003 A 
ATOM     15  C   UNL d   1      29.108 -15.640  -1.244  0.00  0.00     0.038 A 
ATOM     16  C   UNL d   1      29.662 -15.188  -2.466  0.00  0.00     0.129 A 
BRANCH  16  17
ATOM     17  N   UNL d   1      29.235 -13.838  -2.879  0.00  0.00    -0.113 N 
ATOM     18  O   UNL d   1      29.925 -13.261  -3.729  0.00  0.00    -0.532 OA
ATOM     19  O   UNL d   1      28.247 -13.313  -2.341  0.00  0.00    -0.532 OA
ENDBRANCH  16  17
ENDBRANCH   9  11
ENDBRANCH   8   9
ENDBRANCH   7   8
ENDBRANCH   4   7
BRANCH   1  20
ATOM     20  C   UNL d   1      25.808 -13.357  -4.473  0.00  0.00     0.174 C 
ATOM     21  C   UNL d   1      25.549 -11.969  -3.899  0.00  0.00     0.042 C 
BRANCH  20  22
ATOM     22  C   UNL d   1      25.329 -14.412  -3.431  0.00  0.00     0.240 C 
ATOM     23  N   UNL d   1      26.302 -15.270  -2.913  0.00  0.00    -0.355 N 
ATOM     24  H   UNL d   1      27.277 -15.083  -3.113  0.00  0.00     0.162 HD
ATOM     25  O   UNL d   1      24.148 -14.461  -3.084  0.00  0.00    -0.271 OA
BRANCH  23  26
ATOM     26  C   UNL d   1      26.012 -16.219  -1.820  0.00  0.00     0.080 C 
ATOM     27  C   UNL d   1      25.772 -15.507  -0.471  0.00  0.00     0.032 C 
BRANCH  26  28
ATOM     28  C   UNL d   1      24.780 -17.074  -2.173  0.00  0.00     0.020 C 
ATOM     29  C   UNL d   1      24.112 -17.566  -0.894  0.00  0.00     0.007 C 
ENDBRANCH  26  28
ENDBRANCH  23  26
ENDBRANCH  20  22
ENDBRANCH   1  20
TORSDOF 9
ENDMDL
