MODEL 1
REMARK VINA RESULT:   -31.416      0.000      0.000
REMARK INTER + INTRA:         -32.831
REMARK INTER:                 -32.310
REMARK INTRA:                  -0.521
REMARK CONF_INDEPENDENT:        0.895
REMARK UNBOUND:                -0.521
REMARK  3 active torsions:
REMARK  status: ('A' for Active; 'I' for Inactive)
REMARK       I    between atoms: C_2  and  N_4 
REMARK    1  A    between atoms: N_4  and  C_5 
REMARK    2  A    between atoms: C_7  and  C_8 
REMARK       I    between atoms: C_8  and  N_10 
REMARK    3  A    between atoms: N_10  and  C_11 
ROOT
ATOM      1  C   UNL d   1      25.294 -15.420  -1.828  0.00  0.00     0.041 A 
ATOM      2  C   UNL d   1      24.174 -16.269  -1.828  0.00  0.00     0.047 A 
ATOM      3  C   UNL d   1      24.139 -17.435  -1.062  0.00  0.00     0.034 A 
ATOM      4  C   UNL d   1      25.262 -17.752  -0.283  0.00  0.00     0.018 A 
ATOM      5  C   UNL d   1      26.390 -16.920  -0.279  0.00  0.00     0.010 A 
ATOM      6  C   UNL d   1      26.425 -15.750  -1.059  0.00  0.00    -0.035 A 
ATOM      7  C   UNL d   1      27.623 -14.847  -0.962  0.00  0.00     0.050 C 
ENDROOT
BRANCH   3   8
ATOM      8  C   UNL d   1      22.945 -18.338  -1.017  0.00  0.00     0.257 C 
ATOM      9  O   UNL d   1      22.850 -19.200  -1.897  0.00  0.00    -0.267 OA
ATOM     10  N   UNL d   1      21.990 -18.139  -0.029  0.00  0.00    -0.307 N 
ATOM     11  H   UNL d   1      21.935 -17.271   0.480  0.00  0.00     0.170 HD
BRANCH  10  12
ATOM     12  C   UNL d   1      20.837 -18.935   0.074  0.00  0.00     0.130 A 
ATOM     13  C   UNL d   1      20.671 -19.784   1.163  0.00  0.00     0.052 A 
ATOM     14  C   UNL d   1      19.547 -20.603   1.235  0.00  0.00     0.029 A 
ATOM     15  C   UNL d   1      18.624 -20.565   0.204  0.00  0.00     0.051 A 
ATOM     16 CL   UNL d   1      17.257 -21.602   0.224  0.00  0.00    -0.083 Cl
ATOM     17  C   UNL d   1      18.838 -19.663  -0.829  0.00  0.00     0.142 A 
ATOM     18  N   UNL d   1      19.904 -18.813  -0.897  0.00  0.00    -0.242 NA
ENDBRANCH  10  12
ENDBRANCH   3   8
BRANCH   1  19
ATOM     19  N   UNL d   1      25.256 -14.237  -2.610  0.00  0.00    -0.327 N 
ATOM     20  C   UNL d   1      25.319 -14.278  -3.997  0.00  0.00     0.218 C 
ATOM     21  C   UNL d   1      25.245 -12.939  -4.681  0.00  0.00     0.117 C 
ATOM     22  O   UNL d   1      25.401 -15.307  -4.666  0.00  0.00    -0.274 OA
ATOM     23  H   UNL d   1      24.928 -13.387  -2.168  0.00  0.00     0.169 HD
ENDBRANCH   1  19
TORSDOF 3
ENDMDL
MODEL 2
REMARK VINA RESULT:   -30.915      2.016      2.939
REMARK INTER + INTRA:         -32.116
REMARK INTER:                 -31.810
REMARK INTRA:                  -0.306
REMARK CONF_INDEPENDENT:        0.895
REMARK UNBOUND:                -0.306
REMARK  3 active torsions:
REMARK  status: ('A' for Active; 'I' for Inactive)
REMARK       I    between atoms: C_2  and  N_4 
REMARK    1  A    between atoms: N_4  and  C_5 
REMARK    2  A    between atoms: C_7  and  C_8 
REMARK       I    between atoms: C_8  and  N_10 
REMARK    3  A    between atoms: N_10  and  C_11 
ROOT
ATOM      1  C   UNL d   1      26.608 -16.675  -1.278  0.00  0.00     0.041 A 
ATOM      2  C   UNL d   1      25.619 -17.452  -0.651  0.00  0.00     0.047 A 
ATOM      3  C   UNL d   1      24.260 -17.185  -0.824  0.00  0.00     0.034 A 
ATOM      4  C   UNL d   1      23.894 -16.107  -1.645  0.00  0.00     0.018 A 
ATOM      5  C   UNL d   1      24.870 -15.318  -2.270  0.00  0.00     0.010 A 
ATOM      6  C   UNL d   1      26.238 -15.585  -2.086  0.00  0.00    -0.035 A 
ATOM      7  C   UNL d   1      27.247 -14.763  -2.839  0.00  0.00     0.050 C 
ENDROOT
BRANCH   3   8
ATOM      8  C   UNL d   1      23.185 -18.018  -0.197  0.00  0.00     0.257 C 
ATOM      9  O   UNL d   1      23.449 -18.575   0.874  0.00  0.00    -0.267 OA
ATOM     10  N   UNL d   1      21.973 -18.161  -0.860  0.00  0.00    -0.307 N 
ATOM     11  H   UNL d   1      21.886 -17.951  -1.842  0.00  0.00     0.170 HD
BRANCH  10  12
ATOM     12  C   UNL d   1      20.919 -18.934  -0.344  0.00  0.00     0.130 A 
ATOM     13  C   UNL d   1      20.929 -19.323   0.991  0.00  0.00     0.052 A 
ATOM     14  C   UNL d   1      19.904 -20.127   1.483  0.00  0.00     0.029 A 
ATOM     15  C   UNL d   1      18.902 -20.537   0.619  0.00  0.00     0.051 A 
ATOM     16 CL   UNL d   1      17.655 -21.579   1.170  0.00  0.00    -0.083 Cl
ATOM     17  C   UNL d   1      18.940 -20.075  -0.689  0.00  0.00     0.142 A 
ATOM     18  N   UNL d   1      19.905 -19.244  -1.182  0.00  0.00    -0.242 NA
ENDBRANCH  10  12
ENDBRANCH   3   8
BRANCH   1  19
ATOM     19  N   UNL d   1      27.972 -17.015  -1.080  0.00  0.00    -0.327 N 
ATOM     20  C   UNL d   1      28.817 -16.220  -0.318  0.00  0.00     0.218 C 
ATOM     21  C   UNL d   1      30.229 -16.728  -0.186  0.00  0.00     0.117 C 
ATOM     22  O   UNL d   1      28.481 -15.183   0.252  0.00  0.00    -0.274 OA
ATOM     23  H   UNL d   1      28.258 -17.965  -1.283  0.00  0.00     0.169 HD
ENDBRANCH   1  19
TORSDOF 3
ENDMDL
MODEL 3
REMARK VINA RESULT:   -30.622      2.015      2.943
REMARK INTER + INTRA:         -32.032
REMARK INTER:                 -31.517
REMARK INTRA:                  -0.515
REMARK CONF_INDEPENDENT:        0.895
REMARK UNBOUND:                -0.515
REMARK  3 active torsions:
REMARK  status: ('A' for Active; 'I' for Inactive)
REMARK       I    between atoms: C_2  and  N_4 
REMARK    1  A    between atoms: N_4  and  C_5 
REMARK    2  A    between atoms: C_7  and  C_8 
REMARK       I    between atoms: C_8  and  N_10 
REMARK    3  A    between atoms: N_10  and  C_11 
ROOT
ATOM      1  C   UNL d   1      26.466 -16.094  -0.323  0.00  0.00     0.041 A 
ATOM      2  C   UNL d   1      25.441 -16.978   0.056  0.00  0.00     0.047 A 
ATOM      3  C   UNL d   1      24.420 -17.336  -0.825  0.00  0.00     0.034 A 
ATOM      4  C   UNL d   1      24.433 -16.786  -2.116  0.00  0.00     0.018 A 
ATOM      5  C   UNL d   1      25.444 -15.896  -2.506  0.00  0.00     0.010 A 
ATOM      6  C   UNL d   1      26.466 -15.531  -1.612  0.00  0.00    -0.035 A 
ATOM      7  C   UNL d   1      27.573 -14.638  -2.099  0.00  0.00     0.050 C 
ENDROOT
BRANCH   3   8
ATOM      8  C   UNL d   1      23.336 -18.301  -0.459  0.00  0.00     0.257 C 
ATOM      9  O   UNL d   1      23.675 -19.450  -0.155  0.00  0.00    -0.267 OA
ATOM     10  N   UNL d   1      22.013 -17.881  -0.520  0.00  0.00    -0.307 N 
ATOM     11  H   UNL d   1      21.748 -17.060  -1.041  0.00  0.00     0.170 HD
BRANCH  10  12
ATOM     12  C   UNL d   1      20.938 -18.729  -0.204  0.00  0.00     0.130 A 
ATOM     13  C   UNL d   1      20.948 -19.454   0.983  0.00  0.00     0.052 A 
ATOM     14  C   UNL d   1      19.900 -20.326   1.268  0.00  0.00     0.029 A 
ATOM     15  C   UNL d   1      18.876 -20.465   0.347  0.00  0.00     0.051 A 
ATOM     16 CL   UNL d   1      17.599 -21.575   0.631  0.00  0.00    -0.083 Cl
ATOM     17  C   UNL d   1      18.917 -19.678  -0.796  0.00  0.00     0.142 A 
ATOM     18  N   UNL d   1      19.905 -18.778  -1.074  0.00  0.00    -0.242 NA
ENDBRANCH  10  12
ENDBRANCH   3   8
BRANCH   1  19
ATOM     19  N   UNL d   1      27.488 -15.791   0.613  0.00  0.00    -0.327 N 
ATOM     20  C   UNL d   1      27.475 -14.614   1.349  0.00  0.00     0.218 C 
ATOM     21  C   UNL d   1      28.619 -14.450   2.315  0.00  0.00     0.117 C 
ATOM     22  O   UNL d   1      26.602 -13.750   1.277  0.00  0.00    -0.274 OA
ATOM     23  H   UNL d   1      28.085 -16.547   0.924  0.00  0.00     0.169 HD
ENDBRANCH   1  19
TORSDOF 3
ENDMDL
