MODEL 1
REMARK VINA RESULT:    -8.337      0.000      0.000
REMARK INTER + INTRA:         -12.621
REMARK INTER:                 -11.021
REMARK INTRA:                  -1.600
REMARK CONF_INDEPENDENT:        2.685
REMARK UNBOUND:                -1.600
REMARK  9 active torsions:
REMARK  status: ('A' for Active; 'I' for Inactive)
REMARK    1  A    between atoms: O_2  and  C_3 
REMARK    2  A    between atoms: C_7  and  C_8 
REMARK    3  A    between atoms: N_9  and  N_10 
REMARK       I    between atoms: N_10  and  C_11 
REMARK    4  A    between atoms: C_11  and  C_13 
REMARK    5  A    between atoms: C_15  and  C_16 
REMARK    6  A    between atoms: C_19  and  O_20 
REMARK    7  A    between atoms: O_20  and  C_21 
REMARK    8  A    between atoms: C_21  and  C_22 
REMARK    9  A    between atoms: C_33  and  O_34 
ROOT
ATOM      1  C   UNL d   1      31.002 -21.575   4.123  0.00  0.00     0.121 A 
ATOM      2  C   UNL d   1      31.623 -21.364   2.908  0.00  0.00     0.071 A 
ATOM      3  C   UNL d   1      30.637 -21.584   1.906  0.00  0.00     0.089 A 
ATOM      4  N   UNL d   1      29.461 -21.895   2.468  0.00  0.00    -0.174 NA
ATOM      5  N   UNL d   1      29.725 -21.950   3.789  0.00  0.00    -0.272 N 
ATOM      6  H   UNL d   1      28.975 -22.225   4.419  0.00  0.00     0.189 HD
ENDROOT
BRANCH   1   7
ATOM      7  C   UNL d   1      31.499 -21.545   5.478  0.00  0.00     0.289 C 
ATOM      8  N   UNL d   1      32.843 -21.893   5.646  0.00  0.00    -0.242 N 
ATOM      9  H   UNL d   1      33.436 -22.063   4.841  0.00  0.00     0.192 HD
ATOM     10  O   UNL d   1      30.771 -21.199   6.415  0.00  0.00    -0.264 OA
BRANCH   8  11
ATOM     11  N   UNL d   1      33.382 -21.897   6.908  0.00  0.00    -0.183 NA
ATOM     12  C   UNL d   1      34.647 -22.148   7.068  0.00  0.00     0.153 C 
BRANCH  12  13
ATOM     13  C   UNL d   1      35.240 -22.177   8.442  0.00  0.00     0.019 A 
ATOM     14  C   UNL d   1      35.513 -23.410   9.054  0.00  0.00     0.016 A 
ATOM     15  C   UNL d   1      36.069 -23.450  10.340  0.00  0.00     0.004 A 
ATOM     16  C   UNL d   1      36.344 -22.263  11.020  0.00  0.00     0.040 A 
ATOM     17  C   UNL d   1      36.069 -21.022  10.431  0.00  0.00     0.102 A 
ATOM     18  C   UNL d   1      35.523 -20.984   9.134  0.00  0.00     0.110 A 
BRANCH  17  19
ATOM     19  O   UNL d   1      36.383 -19.958  11.239  0.00  0.00    -0.353 OA
ATOM     20  C   UNL d   1      35.389 -19.539  12.167  0.00  0.00     0.210 C 
ENDBRANCH  17  19
BRANCH  18  21
ATOM     21  O   UNL d   1      35.272 -19.770   8.547  0.00  0.00    -0.357 OA
ATOM     22  H   UNL d   1      35.386 -19.048   9.203  0.00  0.00     0.217 HD
ENDBRANCH  18  21
ENDBRANCH  12  13
ENDBRANCH   8  11
ENDBRANCH   1   7
BRANCH   3  23
ATOM     23  C   UNL d   1      30.826 -21.490   0.460  0.00  0.00    -0.005 A 
ATOM     24  C   UNL d   1      30.739 -22.638  -0.336  0.00  0.00     0.016 A 
ATOM     25  C   UNL d   1      30.983 -22.574  -1.714  0.00  0.00     0.037 A 
ATOM     26  C   UNL d   1      31.320 -21.362  -2.315  0.00  0.00     0.069 A 
ATOM     27  C   UNL d   1      31.407 -20.213  -1.523  0.00  0.00     0.037 A 
ATOM     28  C   UNL d   1      31.155 -20.272  -0.145  0.00  0.00     0.016 A 
BRANCH  26  29
ATOM     29  O   UNL d   1      31.583 -21.182  -3.646  0.00  0.00    -0.347 OA
BRANCH  29  30
ATOM     30  C   UNL d   1      30.457 -21.179  -4.529  0.00  0.00     0.216 C 
BRANCH  30  31
ATOM     31  C   UNL d   1      30.780 -20.261  -5.681  0.00  0.00    -0.012 A 
ATOM     32  C   UNL d   1      31.122 -20.825  -6.924  0.00  0.00     0.011 A 
ATOM     33  C   UNL d   1      31.574 -20.020  -7.972  0.00  0.00     0.001 A 
ATOM     34  C   UNL d   1      31.624 -18.638  -7.815  0.00  0.00     0.002 A 
ATOM     35  C   UNL d   1      31.251 -18.062  -6.602  0.00  0.00     0.024 A 
ATOM     36  C   UNL d   1      30.839 -18.867  -5.537  0.00  0.00     0.042 A 
ATOM     37 CL   UNL d   1      30.405 -18.069  -4.066  0.00  0.00    -0.084 Cl
ENDBRANCH  30  31
ENDBRANCH  29  30
ENDBRANCH  26  29
ENDBRANCH   3  23
TORSDOF 9
ENDMDL
MODEL 2
REMARK VINA RESULT:    -7.802     10.801     13.300
REMARK INTER + INTRA:         -12.540
REMARK INTER:                 -10.487
REMARK INTRA:                  -2.053
REMARK CONF_INDEPENDENT:        2.685
REMARK UNBOUND:                -2.053
REMARK  9 active torsions:
REMARK  status: ('A' for Active; 'I' for Inactive)
REMARK    1  A    between atoms: O_2  and  C_3 
REMARK    2  A    between atoms: C_7  and  C_8 
REMARK    3  A    between atoms: N_9  and  N_10 
REMARK       I    between atoms: N_10  and  C_11 
REMARK    4  A    between atoms: C_11  and  C_13 
REMARK    5  A    between atoms: C_15  and  C_16 
REMARK    6  A    between atoms: C_19  and  O_20 
REMARK    7  A    between atoms: O_20  and  C_21 
REMARK    8  A    between atoms: C_21  and  C_22 
REMARK    9  A    between atoms: C_33  and  O_34 
ROOT
ATOM      1  C   UNL d   1      25.146 -17.110  -1.326  0.00  0.00     0.121 A 
ATOM      2  C   UNL d   1      24.918 -16.224  -2.361  0.00  0.00     0.071 A 
ATOM      3  C   UNL d   1      26.193 -15.743  -2.768  0.00  0.00     0.089 A 
ATOM      4  N   UNL d   1      27.164 -16.314  -2.041  0.00  0.00    -0.174 NA
ATOM      5  N   UNL d   1      26.505 -17.073  -1.142  0.00  0.00    -0.272 N 
ATOM      6  H   UNL d   1      27.049 -17.569  -0.439  0.00  0.00     0.189 HD
ENDROOT
BRANCH   1   7
ATOM      7  C   UNL d   1      24.246 -17.869  -0.491  0.00  0.00     0.289 C 
ATOM      8  N   UNL d   1      23.031 -18.238  -1.076  0.00  0.00    -0.242 N 
ATOM      9  H   UNL d   1      22.854 -18.053  -2.057  0.00  0.00     0.192 HD
ATOM     10  O   UNL d   1      24.562 -18.189   0.661  0.00  0.00    -0.264 OA
BRANCH   8  11
ATOM     11  N   UNL d   1      22.120 -18.952  -0.339  0.00  0.00    -0.183 NA
ATOM     12  C   UNL d   1      20.866 -18.948  -0.682  0.00  0.00     0.153 C 
BRANCH  12  13
ATOM     13  C   UNL d   1      19.862 -19.705   0.129  0.00  0.00     0.019 A 
ATOM     14  C   UNL d   1      18.863 -20.447  -0.519  0.00  0.00     0.016 A 
ATOM     15  C   UNL d   1      17.918 -21.161   0.229  0.00  0.00     0.004 A 
ATOM     16  C   UNL d   1      17.961 -21.128   1.624  0.00  0.00     0.040 A 
ATOM     17  C   UNL d   1      18.943 -20.384   2.291  0.00  0.00     0.102 A 
ATOM     18  C   UNL d   1      19.900 -19.679   1.537  0.00  0.00     0.110 A 
BRANCH  17  19
ATOM     19  O   UNL d   1      18.833 -20.445   3.658  0.00  0.00    -0.353 OA
ATOM     20  C   UNL d   1      19.861 -21.137   4.356  0.00  0.00     0.210 C 
ENDBRANCH  17  19
BRANCH  18  21
ATOM     21  O   UNL d   1      20.875 -18.966   2.187  0.00  0.00    -0.357 OA
ATOM     22  H   UNL d   1      21.759 -19.191   1.821  0.00  0.00     0.217 HD
ENDBRANCH  18  21
ENDBRANCH  12  13
ENDBRANCH   8  11
ENDBRANCH   1   7
BRANCH   3  23
ATOM     23  C   UNL d   1      26.462 -14.772  -3.826  0.00  0.00    -0.005 A 
ATOM     24  C   UNL d   1      27.571 -14.935  -4.665  0.00  0.00     0.016 A 
ATOM     25  C   UNL d   1      27.879 -13.978  -5.640  0.00  0.00     0.037 A 
ATOM     26  C   UNL d   1      27.084 -12.843  -5.790  0.00  0.00     0.069 A 
ATOM     27  C   UNL d   1      25.974 -12.676  -4.955  0.00  0.00     0.037 A 
ATOM     28  C   UNL d   1      25.659 -13.637  -3.983  0.00  0.00     0.016 A 
BRANCH  26  29
ATOM     29  O   UNL d   1      27.290 -11.844  -6.702  0.00  0.00    -0.347 OA
BRANCH  29  30
ATOM     30  C   UNL d   1      27.930 -10.657  -6.222  0.00  0.00     0.216 C 
BRANCH  30  31
ATOM     31  C   UNL d   1      26.901  -9.853  -5.469  0.00  0.00    -0.012 A 
ATOM     32  C   UNL d   1      25.980  -9.076  -6.195  0.00  0.00     0.011 A 
ATOM     33  C   UNL d   1      25.111  -8.201  -5.540  0.00  0.00     0.001 A 
ATOM     34  C   UNL d   1      25.103  -8.142  -4.149  0.00  0.00     0.002 A 
ATOM     35  C   UNL d   1      25.983  -8.934  -3.415  0.00  0.00     0.024 A 
ATOM     36  C   UNL d   1      26.884  -9.780  -4.068  0.00  0.00     0.042 A 
ATOM     37 CL   UNL d   1      27.946 -10.719  -3.079  0.00  0.00    -0.084 Cl
ENDBRANCH  30  31
ENDBRANCH  29  30
ENDBRANCH  26  29
ENDBRANCH   3  23
TORSDOF 9
ENDMDL
MODEL 3
REMARK VINA RESULT:    -7.665     10.529     12.961
REMARK INTER + INTRA:         -12.206
REMARK INTER:                 -10.349
REMARK INTRA:                  -1.857
REMARK CONF_INDEPENDENT:        2.685
REMARK UNBOUND:                -1.857
REMARK  9 active torsions:
REMARK  status: ('A' for Active; 'I' for Inactive)
REMARK    1  A    between atoms: O_2  and  C_3 
REMARK    2  A    between atoms: C_7  and  C_8 
REMARK    3  A    between atoms: N_9  and  N_10 
REMARK       I    between atoms: N_10  and  C_11 
REMARK    4  A    between atoms: C_11  and  C_13 
REMARK    5  A    between atoms: C_15  and  C_16 
REMARK    6  A    between atoms: C_19  and  O_20 
REMARK    7  A    between atoms: O_20  and  C_21 
REMARK    8  A    between atoms: C_21  and  C_22 
REMARK    9  A    between atoms: C_33  and  O_34 
ROOT
ATOM      1  C   UNL d   1      26.308 -16.420  -1.499  0.00  0.00     0.121 A 
ATOM      2  C   UNL d   1      26.358 -15.914  -2.784  0.00  0.00     0.071 A 
ATOM      3  C   UNL d   1      27.705 -15.516  -3.009  0.00  0.00     0.089 A 
ATOM      4  N   UNL d   1      28.458 -15.779  -1.932  0.00  0.00    -0.174 NA
ATOM      5  N   UNL d   1      27.584 -16.255  -1.021  0.00  0.00    -0.272 N 
ATOM      6  H   UNL d   1      27.930 -16.477  -0.090  0.00  0.00     0.189 HD
ENDROOT
BRANCH   1   7
ATOM      7  C   UNL d   1      25.215 -16.928  -0.706  0.00  0.00     0.289 C 
ATOM      8  N   UNL d   1      23.950 -16.873  -1.298  0.00  0.00    -0.242 N 
ATOM      9  H   UNL d   1      23.844 -16.577  -2.262  0.00  0.00     0.192 HD
ATOM     10  O   UNL d   1      25.412 -17.406   0.417  0.00  0.00    -0.264 OA
BRANCH   8  11
ATOM     11  N   UNL d   1      22.861 -17.329  -0.598  0.00  0.00    -0.183 NA
ATOM     12  C   UNL d   1      22.438 -18.544  -0.782  0.00  0.00     0.153 C 
BRANCH  12  13
ATOM     13  C   UNL d   1      21.237 -19.042  -0.040  0.00  0.00     0.019 A 
ATOM     14  C   UNL d   1      21.199 -18.952   1.360  0.00  0.00     0.016 A 
ATOM     15  C   UNL d   1      20.080 -19.413   2.065  0.00  0.00     0.004 A 
ATOM     16  C   UNL d   1      19.003 -19.974   1.379  0.00  0.00     0.040 A 
ATOM     17  C   UNL d   1      19.025 -20.083  -0.018  0.00  0.00     0.102 A 
ATOM     18  C   UNL d   1      20.144 -19.606  -0.726  0.00  0.00     0.110 A 
BRANCH  17  19
ATOM     19  O   UNL d   1      17.897 -20.672  -0.533  0.00  0.00    -0.353 OA
ATOM     20  C   UNL d   1      17.247 -21.641   0.282  0.00  0.00     0.210 C 
ENDBRANCH  17  19
BRANCH  18  21
ATOM     21  O   UNL d   1      20.160 -19.694  -2.094  0.00  0.00    -0.357 OA
ATOM     22  H   UNL d   1      19.290 -20.013  -2.423  0.00  0.00     0.217 HD
ENDBRANCH  18  21
ENDBRANCH  12  13
ENDBRANCH   8  11
ENDBRANCH   1   7
BRANCH   3  23
ATOM     23  C   UNL d   1      28.245 -14.910  -4.224  0.00  0.00    -0.005 A 
ATOM     24  C   UNL d   1      27.392 -14.588  -5.287  0.00  0.00     0.016 A 
ATOM     25  C   UNL d   1      27.904 -14.069  -6.483  0.00  0.00     0.037 A 
ATOM     26  C   UNL d   1      29.275 -13.866  -6.634  0.00  0.00     0.069 A 
ATOM     27  C   UNL d   1      30.130 -14.185  -5.575  0.00  0.00     0.037 A 
ATOM     28  C   UNL d   1      29.620 -14.698  -4.373  0.00  0.00     0.016 A 
BRANCH  26  29
ATOM     29  O   UNL d   1      29.885 -13.370  -7.755  0.00  0.00    -0.347 OA
BRANCH  29  30
ATOM     30  C   UNL d   1      29.994 -11.947  -7.851  0.00  0.00     0.216 C 
BRANCH  30  31
ATOM     31  C   UNL d   1      28.692 -11.352  -7.378  0.00  0.00    -0.012 A 
ATOM     32  C   UNL d   1      28.585 -10.925  -6.042  0.00  0.00     0.011 A 
ATOM     33  C   UNL d   1      27.357 -10.511  -5.522  0.00  0.00     0.001 A 
ATOM     34  C   UNL d   1      26.237 -10.452  -6.346  0.00  0.00     0.002 A 
ATOM     35  C   UNL d   1      26.337 -10.835  -7.682  0.00  0.00     0.024 A 
ATOM     36  C   UNL d   1      27.553 -11.291  -8.196  0.00  0.00     0.042 A 
ATOM     37 CL   UNL d   1      27.584 -11.756  -9.861  0.00  0.00    -0.084 Cl
ENDBRANCH  30  31
ENDBRANCH  29  30
ENDBRANCH  26  29
ENDBRANCH   3  23
TORSDOF 9
ENDMDL
MODEL 4
REMARK VINA RESULT:    -7.661     11.091     12.971
REMARK INTER + INTRA:         -12.251
REMARK INTER:                 -10.346
REMARK INTRA:                  -1.905
REMARK CONF_INDEPENDENT:        2.685
REMARK UNBOUND:                -1.905
REMARK  9 active torsions:
REMARK  status: ('A' for Active; 'I' for Inactive)
REMARK    1  A    between atoms: O_2  and  C_3 
REMARK    2  A    between atoms: C_7  and  C_8 
REMARK    3  A    between atoms: N_9  and  N_10 
REMARK       I    between atoms: N_10  and  C_11 
REMARK    4  A    between atoms: C_11  and  C_13 
REMARK    5  A    between atoms: C_15  and  C_16 
REMARK    6  A    between atoms: C_19  and  O_20 
REMARK    7  A    between atoms: O_20  and  C_21 
REMARK    8  A    between atoms: C_21  and  C_22 
REMARK    9  A    between atoms: C_33  and  O_34 
ROOT
ATOM      1  C   UNL d   1      25.166 -16.732  -1.229  0.00  0.00     0.121 A 
ATOM      2  C   UNL d   1      25.014 -15.649  -2.072  0.00  0.00     0.071 A 
ATOM      3  C   UNL d   1      26.325 -15.207  -2.403  0.00  0.00     0.089 A 
ATOM      4  N   UNL d   1      27.243 -15.986  -1.815  0.00  0.00    -0.174 NA
ATOM      5  N   UNL d   1      26.523 -16.845  -1.065  0.00  0.00    -0.272 N 
ATOM      6  H   UNL d   1      27.024 -17.510  -0.479  0.00  0.00     0.189 HD
ENDROOT
BRANCH   1   7
ATOM      7  C   UNL d   1      24.204 -17.558  -0.538  0.00  0.00     0.289 C 
ATOM      8  N   UNL d   1      22.867 -17.166  -0.649  0.00  0.00    -0.242 N 
ATOM      9  H   UNL d   1      22.603 -16.399  -1.258  0.00  0.00     0.192 HD
ATOM     10  O   UNL d   1      24.561 -18.566   0.083  0.00  0.00    -0.264 OA
BRANCH   8  11
ATOM     11  N   UNL d   1      21.898 -17.897  -0.010  0.00  0.00    -0.183 NA
ATOM     12  C   UNL d   1      21.099 -18.654  -0.702  0.00  0.00     0.153 C 
BRANCH  12  13
ATOM     13  C   UNL d   1      20.024 -19.439  -0.016  0.00  0.00     0.019 A 
ATOM     14  C   UNL d   1      19.035 -20.076  -0.780  0.00  0.00     0.016 A 
ATOM     15  C   UNL d   1      18.025 -20.814  -0.149  0.00  0.00     0.004 A 
ATOM     16  C   UNL d   1      17.994 -20.910   1.243  0.00  0.00     0.040 A 
ATOM     17  C   UNL d   1      18.965 -20.271   2.025  0.00  0.00     0.102 A 
ATOM     18  C   UNL d   1      19.987 -19.542   1.388  0.00  0.00     0.110 A 
BRANCH  17  19
ATOM     19  O   UNL d   1      18.780 -20.451   3.373  0.00  0.00    -0.353 OA
ATOM     20  C   UNL d   1      19.920 -20.830   4.135  0.00  0.00     0.210 C 
ENDBRANCH  17  19
BRANCH  18  21
ATOM     21  O   UNL d   1      20.952 -18.933   2.150  0.00  0.00    -0.357 OA
ATOM     22  H   UNL d   1      21.610 -18.490   1.571  0.00  0.00     0.217 HD
ENDBRANCH  18  21
ENDBRANCH  12  13
ENDBRANCH   8  11
ENDBRANCH   1   7
BRANCH   3  23
ATOM     23  C   UNL d   1      26.675 -14.078  -3.261  0.00  0.00    -0.005 A 
ATOM     24  C   UNL d   1      27.321 -12.959  -2.722  0.00  0.00     0.016 A 
ATOM     25  C   UNL d   1      27.603 -11.842  -3.519  0.00  0.00     0.037 A 
ATOM     26  C   UNL d   1      27.241 -11.827  -4.866  0.00  0.00     0.069 A 
ATOM     27  C   UNL d   1      26.596 -12.943  -5.408  0.00  0.00     0.037 A 
ATOM     28  C   UNL d   1      26.320 -14.066  -4.615  0.00  0.00     0.016 A 
BRANCH  26  29
ATOM     29  O   UNL d   1      27.462 -10.794  -5.735  0.00  0.00    -0.347 OA
BRANCH  29  30
ATOM     30  C   UNL d   1      26.928 -10.938  -7.055  0.00  0.00     0.216 C 
BRANCH  30  31
ATOM     31  C   UNL d   1      28.017 -11.503  -7.931  0.00  0.00    -0.012 A 
ATOM     32  C   UNL d   1      29.281 -11.756  -7.368  0.00  0.00     0.011 A 
ATOM     33  C   UNL d   1      30.358 -12.133  -8.172  0.00  0.00     0.001 A 
ATOM     34  C   UNL d   1      30.171 -12.330  -9.537  0.00  0.00     0.002 A 
ATOM     35  C   UNL d   1      28.915 -12.121 -10.103  0.00  0.00     0.024 A 
ATOM     36  C   UNL d   1      27.845 -11.702  -9.310  0.00  0.00     0.042 A 
ATOM     37 CL   UNL d   1      26.325 -11.457 -10.097  0.00  0.00    -0.084 Cl
ENDBRANCH  30  31
ENDBRANCH  29  30
ENDBRANCH  26  29
ENDBRANCH   3  23
TORSDOF 9
ENDMDL
MODEL 5
REMARK VINA RESULT:    -7.608      8.291     15.204
REMARK INTER + INTRA:         -12.466
REMARK INTER:                 -10.293
REMARK INTRA:                  -2.173
REMARK CONF_INDEPENDENT:        2.685
REMARK UNBOUND:                -2.173
REMARK  9 active torsions:
REMARK  status: ('A' for Active; 'I' for Inactive)
REMARK    1  A    between atoms: O_2  and  C_3 
REMARK    2  A    between atoms: C_7  and  C_8 
REMARK    3  A    between atoms: N_9  and  N_10 
REMARK       I    between atoms: N_10  and  C_11 
REMARK    4  A    between atoms: C_11  and  C_13 
REMARK    5  A    between atoms: C_15  and  C_16 
REMARK    6  A    between atoms: C_19  and  O_20 
REMARK    7  A    between atoms: O_20  and  C_21 
REMARK    8  A    between atoms: C_21  and  C_22 
REMARK    9  A    between atoms: C_33  and  O_34 
ROOT
ATOM      1  C   UNL d   1      27.938 -14.096   3.425  0.00  0.00     0.121 A 
ATOM      2  C   UNL d   1      28.238 -13.053   4.280  0.00  0.00     0.071 A 
ATOM      3  C   UNL d   1      28.683 -13.644   5.496  0.00  0.00     0.089 A 
ATOM      4  N   UNL d   1      28.681 -14.980   5.395  0.00  0.00    -0.174 NA
ATOM      5  N   UNL d   1      28.166 -15.223   4.173  0.00  0.00    -0.272 N 
ATOM      6  H   UNL d   1      28.020 -16.192   3.895  0.00  0.00     0.189 HD
ENDROOT
BRANCH   1   7
ATOM      7  C   UNL d   1      27.404 -14.119   2.084  0.00  0.00     0.289 C 
ATOM      8  N   UNL d   1      27.947 -15.079   1.224  0.00  0.00    -0.242 N 
ATOM      9  H   UNL d   1      28.609 -15.765   1.569  0.00  0.00     0.192 HD
ATOM     10  O   UNL d   1      26.499 -13.348   1.746  0.00  0.00    -0.264 OA
BRANCH   8  11
ATOM     11  N   UNL d   1      27.496 -15.152  -0.070  0.00  0.00    -0.183 NA
ATOM     12  C   UNL d   1      27.246 -14.060  -0.729  0.00  0.00     0.153 C 
BRANCH  12  13
ATOM     13  C   UNL d   1      26.732 -14.131  -2.133  0.00  0.00     0.019 A 
ATOM     14  C   UNL d   1      25.530 -13.489  -2.466  0.00  0.00     0.016 A 
ATOM     15  C   UNL d   1      25.039 -13.546  -3.777  0.00  0.00     0.004 A 
ATOM     16  C   UNL d   1      25.741 -14.252  -4.755  0.00  0.00     0.040 A 
ATOM     17  C   UNL d   1      26.937 -14.909  -4.442  0.00  0.00     0.102 A 
ATOM     18  C   UNL d   1      27.435 -14.838  -3.127  0.00  0.00     0.110 A 
BRANCH  17  19
ATOM     19  O   UNL d   1      27.489 -15.568  -5.512  0.00  0.00    -0.353 OA
ATOM     20  C   UNL d   1      28.731 -15.075  -6.002  0.00  0.00     0.210 C 
ENDBRANCH  17  19
BRANCH  18  21
ATOM     21  O   UNL d   1      28.617 -15.464  -2.822  0.00  0.00    -0.357 OA
ATOM     22  H   UNL d   1      28.683 -15.609  -1.853  0.00  0.00     0.217 HD
ENDBRANCH  18  21
ENDBRANCH  12  13
ENDBRANCH   8  11
ENDBRANCH   1   7
BRANCH   3  23
ATOM     23  C   UNL d   1      29.101 -12.940   6.706  0.00  0.00    -0.005 A 
ATOM     24  C   UNL d   1      30.454 -12.897   7.061  0.00  0.00     0.016 A 
ATOM     25  C   UNL d   1      30.863 -12.283   8.252  0.00  0.00     0.037 A 
ATOM     26  C   UNL d   1      29.924 -11.705   9.106  0.00  0.00     0.069 A 
ATOM     27  C   UNL d   1      28.571 -11.746   8.755  0.00  0.00     0.037 A 
ATOM     28  C   UNL d   1      28.160 -12.352   7.559  0.00  0.00     0.016 A 
BRANCH  26  29
ATOM     29  O   UNL d   1      30.206 -11.085  10.293  0.00  0.00    -0.347 OA
BRANCH  29  30
ATOM     30  C   UNL d   1      29.939 -11.828  11.486  0.00  0.00     0.216 C 
BRANCH  30  31
ATOM     31  C   UNL d   1      30.399 -13.245  11.258  0.00  0.00    -0.012 A 
ATOM     32  C   UNL d   1      31.779 -13.517  11.236  0.00  0.00     0.011 A 
ATOM     33  C   UNL d   1      32.251 -14.782  10.879  0.00  0.00     0.001 A 
ATOM     34  C   UNL d   1      31.352 -15.808  10.607  0.00  0.00     0.002 A 
ATOM     35  C   UNL d   1      29.981 -15.564  10.663  0.00  0.00     0.024 A 
ATOM     36  C   UNL d   1      29.504 -14.289  10.978  0.00  0.00     0.042 A 
ATOM     37 CL   UNL d   1      27.790 -14.073  11.014  0.00  0.00    -0.084 Cl
ENDBRANCH  30  31
ENDBRANCH  29  30
ENDBRANCH  26  29
ENDBRANCH   3  23
TORSDOF 9
ENDMDL
MODEL 6
REMARK VINA RESULT:    -7.599     10.079     12.353
REMARK INTER + INTRA:         -12.139
REMARK INTER:                 -10.284
REMARK INTRA:                  -1.855
REMARK CONF_INDEPENDENT:        2.685
REMARK UNBOUND:                -1.855
REMARK  9 active torsions:
REMARK  status: ('A' for Active; 'I' for Inactive)
REMARK    1  A    between atoms: O_2  and  C_3 
REMARK    2  A    between atoms: C_7  and  C_8 
REMARK    3  A    between atoms: N_9  and  N_10 
REMARK       I    between atoms: N_10  and  C_11 
REMARK    4  A    between atoms: C_11  and  C_13 
REMARK    5  A    between atoms: C_15  and  C_16 
REMARK    6  A    between atoms: C_19  and  O_20 
REMARK    7  A    between atoms: O_20  and  C_21 
REMARK    8  A    between atoms: C_21  and  C_22 
REMARK    9  A    between atoms: C_33  and  O_34 
ROOT
ATOM      1  C   UNL d   1      25.127 -15.818  -2.327  0.00  0.00     0.121 A 
ATOM      2  C   UNL d   1      26.459 -16.015  -2.637  0.00  0.00     0.071 A 
ATOM      3  C   UNL d   1      26.788 -15.056  -3.635  0.00  0.00     0.089 A 
ATOM      4  N   UNL d   1      25.725 -14.289  -3.916  0.00  0.00    -0.174 NA
ATOM      5  N   UNL d   1      24.730 -14.811  -3.171  0.00  0.00    -0.272 N 
ATOM      6  H   UNL d   1      23.798 -14.413  -3.265  0.00  0.00     0.189 HD
ENDROOT
BRANCH   1   7
ATOM      7  C   UNL d   1      24.234 -16.510  -1.430  0.00  0.00     0.289 C 
ATOM      8  N   UNL d   1      23.953 -17.842  -1.751  0.00  0.00    -0.242 N 
ATOM      9  H   UNL d   1      24.431 -18.299  -2.520  0.00  0.00     0.192 HD
ATOM     10  O   UNL d   1      23.780 -15.950  -0.426  0.00  0.00    -0.264 OA
BRANCH   8  11
ATOM     11  N   UNL d   1      23.102 -18.561  -0.950  0.00  0.00    -0.183 NA
ATOM     12  C   UNL d   1      21.861 -18.193  -0.832  0.00  0.00     0.153 C 
BRANCH  12  13
ATOM     13  C   UNL d   1      20.932 -18.957   0.058  0.00  0.00     0.019 A 
ATOM     14  C   UNL d   1      21.137 -18.950   1.446  0.00  0.00     0.016 A 
ATOM     15  C   UNL d   1      20.273 -19.660   2.290  0.00  0.00     0.004 A 
ATOM     16  C   UNL d   1      19.210 -20.386   1.751  0.00  0.00     0.040 A 
ATOM     17  C   UNL d   1      18.994 -20.415   0.367  0.00  0.00     0.102 A 
ATOM     18  C   UNL d   1      19.855 -19.690  -0.477  0.00  0.00     0.110 A 
BRANCH  17  19
ATOM     19  O   UNL d   1      17.919 -21.188   0.003  0.00  0.00    -0.353 OA
ATOM     20  C   UNL d   1      17.295 -21.949   1.030  0.00  0.00     0.210 C 
ENDBRANCH  17  19
BRANCH  18  21
ATOM     21  O   UNL d   1      19.634 -19.700  -1.831  0.00  0.00    -0.357 OA
ATOM     22  H   UNL d   1      18.676 -19.821  -2.016  0.00  0.00     0.217 HD
ENDBRANCH  18  21
ENDBRANCH  12  13
ENDBRANCH   8  11
ENDBRANCH   1   7
BRANCH   3  23
ATOM     23  C   UNL d   1      28.085 -14.883  -4.286  0.00  0.00    -0.005 A 
ATOM     24  C   UNL d   1      28.241 -15.211  -5.638  0.00  0.00     0.016 A 
ATOM     25  C   UNL d   1      29.494 -15.113  -6.258  0.00  0.00     0.037 A 
ATOM     26  C   UNL d   1      30.608 -14.690  -5.534  0.00  0.00     0.069 A 
ATOM     27  C   UNL d   1      30.456 -14.361  -4.183  0.00  0.00     0.037 A 
ATOM     28  C   UNL d   1      29.201 -14.450  -3.562  0.00  0.00     0.016 A 
BRANCH  26  29
ATOM     29  O   UNL d   1      31.876 -14.562  -6.032  0.00  0.00    -0.347 OA
BRANCH  29  30
ATOM     30  C   UNL d   1      32.815 -15.579  -5.671  0.00  0.00     0.216 C 
BRANCH  30  31
ATOM     31  C   UNL d   1      32.075 -16.892  -5.626  0.00  0.00    -0.012 A 
ATOM     32  C   UNL d   1      31.811 -17.481  -4.375  0.00  0.00     0.011 A 
ATOM     33  C   UNL d   1      31.265 -18.763  -4.292  0.00  0.00     0.001 A 
ATOM     34  C   UNL d   1      30.913 -19.446  -5.453  0.00  0.00     0.002 A 
ATOM     35  C   UNL d   1      31.133 -18.859  -6.697  0.00  0.00     0.024 A 
ATOM     36  C   UNL d   1      31.718 -17.594  -6.787  0.00  0.00     0.042 A 
ATOM     37 CL   UNL d   1      31.963 -16.947  -8.371  0.00  0.00    -0.084 Cl
ENDBRANCH  30  31
ENDBRANCH  29  30
ENDBRANCH  26  29
ENDBRANCH   3  23
TORSDOF 9
ENDMDL
MODEL 7
REMARK VINA RESULT:    -7.518      8.309     15.044
REMARK INTER + INTRA:         -12.474
REMARK INTER:                 -10.203
REMARK INTRA:                  -2.271
REMARK CONF_INDEPENDENT:        2.685
REMARK UNBOUND:                -2.271
REMARK  9 active torsions:
REMARK  status: ('A' for Active; 'I' for Inactive)
REMARK    1  A    between atoms: O_2  and  C_3 
REMARK    2  A    between atoms: C_7  and  C_8 
REMARK    3  A    between atoms: N_9  and  N_10 
REMARK       I    between atoms: N_10  and  C_11 
REMARK    4  A    between atoms: C_11  and  C_13 
REMARK    5  A    between atoms: C_15  and  C_16 
REMARK    6  A    between atoms: C_19  and  O_20 
REMARK    7  A    between atoms: O_20  and  C_21 
REMARK    8  A    between atoms: C_21  and  C_22 
REMARK    9  A    between atoms: C_33  and  O_34 
ROOT
ATOM      1  C   UNL d   1      28.140 -14.094   3.467  0.00  0.00     0.121 A 
ATOM      2  C   UNL d   1      28.402 -13.029   4.307  0.00  0.00     0.071 A 
ATOM      3  C   UNL d   1      28.790 -13.586   5.557  0.00  0.00     0.089 A 
ATOM      4  N   UNL d   1      28.790 -14.925   5.493  0.00  0.00    -0.174 NA
ATOM      5  N   UNL d   1      28.331 -15.200   4.256  0.00  0.00    -0.272 N 
ATOM      6  H   UNL d   1      28.197 -16.176   3.997  0.00  0.00     0.189 HD
ENDROOT
BRANCH   1   7
ATOM      7  C   UNL d   1      27.668 -14.153   2.105  0.00  0.00     0.289 C 
ATOM      8  N   UNL d   1      28.167 -15.202   1.328  0.00  0.00    -0.242 N 
ATOM      9  H   UNL d   1      28.751 -15.919   1.743  0.00  0.00     0.192 HD
ATOM     10  O   UNL d   1      26.847 -13.332   1.679  0.00  0.00    -0.264 OA
BRANCH   8  11
ATOM     11  N   UNL d   1      27.771 -15.316   0.019  0.00  0.00    -0.183 NA
ATOM     12  C   UNL d   1      28.562 -14.917  -0.932  0.00  0.00     0.153 C 
BRANCH  12  13
ATOM     13  C   UNL d   1      28.130 -15.016  -2.362  0.00  0.00     0.019 A 
ATOM     14  C   UNL d   1      29.083 -15.270  -3.359  0.00  0.00     0.016 A 
ATOM     15  C   UNL d   1      28.690 -15.365  -4.700  0.00  0.00     0.004 A 
ATOM     16  C   UNL d   1      27.350 -15.199  -5.050  0.00  0.00     0.040 A 
ATOM     17  C   UNL d   1      26.384 -14.935  -4.071  0.00  0.00     0.102 A 
ATOM     18  C   UNL d   1      26.778 -14.852  -2.722  0.00  0.00     0.110 A 
BRANCH  17  19
ATOM     19  O   UNL d   1      25.120 -14.782  -4.584  0.00  0.00    -0.353 OA
ATOM     20  C   UNL d   1      24.346 -13.700  -4.080  0.00  0.00     0.210 C 
ENDBRANCH  17  19
BRANCH  18  21
ATOM     21  O   UNL d   1      25.832 -14.613  -1.759  0.00  0.00    -0.357 OA
ATOM     22  H   UNL d   1      26.245 -14.182  -0.979  0.00  0.00     0.217 HD
ENDBRANCH  18  21
ENDBRANCH  12  13
ENDBRANCH   8  11
ENDBRANCH   1   7
BRANCH   3  23
ATOM     23  C   UNL d   1      29.154 -12.850   6.766  0.00  0.00    -0.005 A 
ATOM     24  C   UNL d   1      30.501 -12.665   7.097  0.00  0.00     0.016 A 
ATOM     25  C   UNL d   1      30.864 -12.020   8.286  0.00  0.00     0.037 A 
ATOM     26  C   UNL d   1      29.886 -11.552   9.162  0.00  0.00     0.069 A 
ATOM     27  C   UNL d   1      28.538 -11.734   8.835  0.00  0.00     0.037 A 
ATOM     28  C   UNL d   1      28.172 -12.372   7.641  0.00  0.00     0.016 A 
BRANCH  26  29
ATOM     29  O   UNL d   1      30.123 -10.913  10.348  0.00  0.00    -0.347 OA
BRANCH  29  30
ATOM     30  C   UNL d   1      30.006 -11.700  11.537  0.00  0.00     0.216 C 
BRANCH  30  31
ATOM     31  C   UNL d   1      30.418 -13.110  11.198  0.00  0.00    -0.012 A 
ATOM     32  C   UNL d   1      31.787 -13.403  11.057  0.00  0.00     0.011 A 
ATOM     33  C   UNL d   1      32.206 -14.653  10.596  0.00  0.00     0.001 A 
ATOM     34  C   UNL d   1      31.267 -15.647  10.336  0.00  0.00     0.002 A 
ATOM     35  C   UNL d   1      29.910 -15.384  10.508  0.00  0.00     0.024 A 
ATOM     36  C   UNL d   1      29.484 -14.122  10.928  0.00  0.00     0.042 A 
ATOM     37 CL   UNL d   1      27.782 -13.880  11.105  0.00  0.00    -0.084 Cl
ENDBRANCH  30  31
ENDBRANCH  29  30
ENDBRANCH  26  29
ENDBRANCH   3  23
TORSDOF 9
ENDMDL
MODEL 8
REMARK VINA RESULT:    -7.456      7.315      8.291
REMARK INTER + INTRA:         -11.926
REMARK INTER:                 -10.140
REMARK INTRA:                  -1.786
REMARK CONF_INDEPENDENT:        2.685
REMARK UNBOUND:                -1.786
REMARK  9 active torsions:
REMARK  status: ('A' for Active; 'I' for Inactive)
REMARK    1  A    between atoms: O_2  and  C_3 
REMARK    2  A    between atoms: C_7  and  C_8 
REMARK    3  A    between atoms: N_9  and  N_10 
REMARK       I    between atoms: N_10  and  C_11 
REMARK    4  A    between atoms: C_11  and  C_13 
REMARK    5  A    between atoms: C_15  and  C_16 
REMARK    6  A    between atoms: C_19  and  O_20 
REMARK    7  A    between atoms: O_20  and  C_21 
REMARK    8  A    between atoms: C_21  and  C_22 
REMARK    9  A    between atoms: C_33  and  O_34 
ROOT
ATOM      1  C   UNL d   1      28.770 -14.449   3.716  0.00  0.00     0.121 A 
ATOM      2  C   UNL d   1      27.779 -14.788   2.814  0.00  0.00     0.071 A 
ATOM      3  C   UNL d   1      28.282 -14.467   1.523  0.00  0.00     0.089 A 
ATOM      4  N   UNL d   1      29.525 -13.975   1.613  0.00  0.00    -0.174 NA
ATOM      5  N   UNL d   1      29.764 -13.911   2.938  0.00  0.00    -0.272 N 
ATOM      6  H   UNL d   1      30.647 -13.511   3.250  0.00  0.00     0.189 HD
ENDROOT
BRANCH   1   7
ATOM      7  C   UNL d   1      28.820 -14.501   5.157  0.00  0.00     0.289 C 
ATOM      8  N   UNL d   1      30.072 -14.275   5.736  0.00  0.00    -0.242 N 
ATOM      9  H   UNL d   1      30.863 -14.002   5.163  0.00  0.00     0.192 HD
ATOM     10  O   UNL d   1      27.798 -14.704   5.823  0.00  0.00    -0.264 OA
BRANCH   8  11
ATOM     11  N   UNL d   1      30.198 -14.319   7.102  0.00  0.00    -0.183 NA
ATOM     12  C   UNL d   1      29.274 -13.797   7.852  0.00  0.00     0.153 C 
BRANCH  12  13
ATOM     13  C   UNL d   1      29.413 -13.821   9.343  0.00  0.00     0.019 A 
ATOM     14  C   UNL d   1      28.536 -13.063  10.134  0.00  0.00     0.016 A 
ATOM     15  C   UNL d   1      28.656 -13.078  11.529  0.00  0.00     0.004 A 
ATOM     16  C   UNL d   1      29.654 -13.840  12.138  0.00  0.00     0.040 A 
ATOM     17  C   UNL d   1      30.547 -14.594  11.366  0.00  0.00     0.102 A 
ATOM     18  C   UNL d   1      30.416 -14.589   9.964  0.00  0.00     0.110 A 
BRANCH  17  19
ATOM     19  O   UNL d   1      31.476 -15.270  12.117  0.00  0.00    -0.353 OA
ATOM     20  C   UNL d   1      31.361 -16.687  12.162  0.00  0.00     0.210 C 
ENDBRANCH  17  19
BRANCH  18  21
ATOM     21  O   UNL d   1      31.276 -15.343   9.207  0.00  0.00    -0.357 OA
ATOM     22  H   UNL d   1      30.776 -15.844   8.526  0.00  0.00     0.217 HD
ENDBRANCH  18  21
ENDBRANCH  12  13
ENDBRANCH   8  11
ENDBRANCH   1   7
BRANCH   3  23
ATOM     23  C   UNL d   1      27.586 -14.638   0.249  0.00  0.00    -0.005 A 
ATOM     24  C   UNL d   1      27.224 -13.518  -0.509  0.00  0.00     0.016 A 
ATOM     25  C   UNL d   1      26.499 -13.663  -1.699  0.00  0.00     0.037 A 
ATOM     26  C   UNL d   1      26.124 -14.929  -2.147  0.00  0.00     0.069 A 
ATOM     27  C   UNL d   1      26.484 -16.050  -1.393  0.00  0.00     0.037 A 
ATOM     28  C   UNL d   1      27.218 -15.909  -0.205  0.00  0.00     0.016 A 
BRANCH  26  29
ATOM     29  O   UNL d   1      25.414 -15.190  -3.287  0.00  0.00    -0.347 OA
BRANCH  29  30
ATOM     30  C   UNL d   1      25.142 -14.076  -4.144  0.00  0.00     0.216 C 
BRANCH  30  31
ATOM     31  C   UNL d   1      26.353 -13.860  -5.015  0.00  0.00    -0.012 A 
ATOM     32  C   UNL d   1      27.083 -14.979  -5.456  0.00  0.00     0.011 A 
ATOM     33  C   UNL d   1      28.292 -14.820  -6.135  0.00  0.00     0.001 A 
ATOM     34  C   UNL d   1      28.754 -13.544  -6.442  0.00  0.00     0.002 A 
ATOM     35  C   UNL d   1      28.023 -12.426  -6.045  0.00  0.00     0.024 A 
ATOM     36  C   UNL d   1      26.834 -12.579  -5.328  0.00  0.00     0.042 A 
ATOM     37 CL   UNL d   1      25.998 -11.139  -4.867  0.00  0.00    -0.084 Cl
ENDBRANCH  30  31
ENDBRANCH  29  30
ENDBRANCH  26  29
ENDBRANCH   3  23
TORSDOF 9
ENDMDL
MODEL 9
REMARK VINA RESULT:    -7.181      9.173     15.481
REMARK INTER + INTRA:         -11.969
REMARK INTER:                  -9.866
REMARK INTRA:                  -2.103
REMARK CONF_INDEPENDENT:        2.685
REMARK UNBOUND:                -2.103
REMARK  9 active torsions:
REMARK  status: ('A' for Active; 'I' for Inactive)
REMARK    1  A    between atoms: O_2  and  C_3 
REMARK    2  A    between atoms: C_7  and  C_8 
REMARK    3  A    between atoms: N_9  and  N_10 
REMARK       I    between atoms: N_10  and  C_11 
REMARK    4  A    between atoms: C_11  and  C_13 
REMARK    5  A    between atoms: C_15  and  C_16 
REMARK    6  A    between atoms: C_19  and  O_20 
REMARK    7  A    between atoms: O_20  and  C_21 
REMARK    8  A    between atoms: C_21  and  C_22 
REMARK    9  A    between atoms: C_33  and  O_34 
ROOT
ATOM      1  C   UNL d   1      28.009 -14.094   3.886  0.00  0.00     0.121 A 
ATOM      2  C   UNL d   1      28.183 -13.185   4.912  0.00  0.00     0.071 A 
ATOM      3  C   UNL d   1      28.529 -13.940   6.066  0.00  0.00     0.089 A 
ATOM      4  N   UNL d   1      28.589 -15.246   5.771  0.00  0.00    -0.174 NA
ATOM      5  N   UNL d   1      28.206 -15.315   4.480  0.00  0.00    -0.272 N 
ATOM      6  H   UNL d   1      28.126 -16.234   4.049  0.00  0.00     0.189 HD
ENDROOT
BRANCH   1   7
ATOM      7  C   UNL d   1      27.610 -13.928   2.509  0.00  0.00     0.289 C 
ATOM      8  N   UNL d   1      28.199 -14.803   1.590  0.00  0.00    -0.242 N 
ATOM      9  H   UNL d   1      28.795 -15.559   1.908  0.00  0.00     0.192 HD
ATOM     10  O   UNL d   1      26.774 -13.077   2.186  0.00  0.00    -0.264 OA
BRANCH   8  11
ATOM     11  N   UNL d   1      27.875 -14.698   0.261  0.00  0.00    -0.183 NA
ATOM     12  C   UNL d   1      28.256 -15.621  -0.571  0.00  0.00     0.153 C 
BRANCH  12  13
ATOM     13  C   UNL d   1      27.928 -15.503  -2.027  0.00  0.00     0.019 A 
ATOM     14  C   UNL d   1      28.943 -15.664  -2.982  0.00  0.00     0.016 A 
ATOM     15  C   UNL d   1      28.647 -15.557  -4.348  0.00  0.00     0.004 A 
ATOM     16  C   UNL d   1      27.344 -15.281  -4.762  0.00  0.00     0.040 A 
ATOM     17  C   UNL d   1      26.318 -15.106  -3.824  0.00  0.00     0.102 A 
ATOM     18  C   UNL d   1      26.615 -15.227  -2.453  0.00  0.00     0.110 A 
BRANCH  17  19
ATOM     19  O   UNL d   1      25.103 -14.824  -4.396  0.00  0.00    -0.353 OA
ATOM     20  C   UNL d   1      24.403 -13.691  -3.896  0.00  0.00     0.210 C 
ENDBRANCH  17  19
BRANCH  18  21
ATOM     21  O   UNL d   1      25.609 -15.076  -1.533  0.00  0.00    -0.357 OA
ATOM     22  H   UNL d   1      25.951 -14.629  -0.728  0.00  0.00     0.217 HD
ENDBRANCH  18  21
ENDBRANCH  12  13
ENDBRANCH   8  11
ENDBRANCH   1   7
BRANCH   3  23
ATOM     23  C   UNL d   1      28.799 -13.416   7.403  0.00  0.00    -0.005 A 
ATOM     24  C   UNL d   1      28.224 -12.207   7.814  0.00  0.00     0.016 A 
ATOM     25  C   UNL d   1      28.526 -11.659   9.067  0.00  0.00     0.037 A 
ATOM     26  C   UNL d   1      29.410 -12.310   9.926  0.00  0.00     0.069 A 
ATOM     27  C   UNL d   1      29.988 -13.517   9.520  0.00  0.00     0.037 A 
ATOM     28  C   UNL d   1      29.680 -14.073   8.270  0.00  0.00     0.016 A 
BRANCH  26  29
ATOM     29  O   UNL d   1      29.782 -11.868  11.167  0.00  0.00    -0.347 OA
BRANCH  29  30
ATOM     30  C   UNL d   1      31.049 -11.211  11.263  0.00  0.00     0.216 C 
BRANCH  30  31
ATOM     31  C   UNL d   1      30.839  -9.756  10.930  0.00  0.00    -0.012 A 
ATOM     32  C   UNL d   1      30.404  -8.882  11.944  0.00  0.00     0.011 A 
ATOM     33  C   UNL d   1      30.052  -7.564  11.647  0.00  0.00     0.001 A 
ATOM     34  C   UNL d   1      30.196  -7.082  10.350  0.00  0.00     0.002 A 
ATOM     35  C   UNL d   1      30.663  -7.924   9.343  0.00  0.00     0.024 A 
ATOM     36  C   UNL d   1      30.976  -9.256   9.626  0.00  0.00     0.042 A 
ATOM     37 CL   UNL d   1      31.538 -10.232   8.315  0.00  0.00    -0.084 Cl
ENDBRANCH  30  31
ENDBRANCH  29  30
ENDBRANCH  26  29
ENDBRANCH   3  23
TORSDOF 9
ENDMDL
