MODEL 1
REMARK VINA RESULT:    -6.620      0.000      0.000
REMARK INTER + INTRA:         -12.186
REMARK INTER:                  -9.603
REMARK INTRA:                  -2.583
REMARK CONF_INDEPENDENT:        2.983
REMARK UNBOUND:                -2.583
REMARK  10 active torsions:
REMARK  status: ('A' for Active; 'I' for Inactive)
REMARK    1  A    between atoms: C_3  and  N_4 
REMARK       I    between atoms: N_4  and  C_5 
REMARK    2  A    between atoms: C_5  and  C_7 
REMARK    3  A    between atoms: C_7  and  C_8 
REMARK    4  A    between atoms: C_8  and  N_9 
REMARK       I    between atoms: N_9  and  C_10 
REMARK       I    between atoms: C_10  and  N_12 
REMARK    5  A    between atoms: N_12  and  N_13 
REMARK       I    between atoms: N_13  and  C_14 
REMARK    6  A    between atoms: C_14  and  C_16 
REMARK    7  A    between atoms: C_16  and  O_18 
REMARK    8  A    between atoms: O_18  and  C_19 
REMARK    9  A    between atoms: C_22  and  O_23 
REMARK   10  A    between atoms: O_23  and  C_24 
ROOT
ATOM      1  C   UNL d   1      30.081 -15.923  -5.230  0.00  0.00     0.014 C 
ATOM      2  C   UNL d   1      29.389 -15.196  -6.062  0.00  0.00    -0.098 C 
ATOM      3  C   UNL d   1      28.582 -14.349  -7.032  0.00  0.00     0.216 C 
ENDROOT
BRANCH   3   4
ATOM      4  N   UNL d   1      28.331 -12.988  -6.514  0.00  0.00    -0.351 N 
ATOM      5  C   UNL d   1      28.097 -11.921  -7.374  0.00  0.00     0.219 C 
ATOM      6  O   UNL d   1      28.090 -12.081  -8.593  0.00  0.00    -0.274 OA
ATOM      7  H   UNL d   1      28.336 -12.851  -5.512  0.00  0.00     0.163 HD
BRANCH   5   8
ATOM      8  C   UNL d   1      27.844 -10.532  -6.735  0.00  0.00     0.122 C 
BRANCH   8   9
ATOM      9  C   UNL d   1      26.330 -10.259  -6.496  0.00  0.00     0.134 C 
BRANCH   9  10
ATOM     10  N   UNL d   1      25.517 -11.393  -5.986  0.00  0.00    -0.341 N 
ATOM     11  C   UNL d   1      25.946 -12.185  -4.927  0.00  0.00     0.334 C 
ATOM     12  O   UNL d   1      27.013 -12.003  -4.336  0.00  0.00    -0.246 OA
ATOM     13  N   UNL d   1      25.082 -13.217  -4.569  0.00  0.00    -0.249 N 
ATOM     14  H   UNL d   1      24.191 -13.405  -5.018  0.00  0.00     0.192 HD
ATOM     15  H   UNL d   1      24.634 -11.601  -6.426  0.00  0.00     0.164 HD
BRANCH  13  16
ATOM     16  N   UNL d   1      25.450 -14.118  -3.501  0.00  0.00    -0.264 N 
ATOM     17  C   UNL d   1      26.139 -15.309  -3.778  0.00  0.00     0.265 C 
ATOM     18  O   UNL d   1      26.488 -15.574  -4.931  0.00  0.00    -0.269 OA
ATOM     19  H   UNL d   1      25.117 -13.849  -2.577  0.00  0.00     0.190 HD
BRANCH  17  20
ATOM     20  C   UNL d   1      26.429 -16.265  -2.546  0.00  0.00     0.218 C 
ATOM     21  C   UNL d   1      27.947 -16.295  -2.357  0.00  0.00     0.050 C 
BRANCH  20  22
ATOM     22  O   UNL d   1      25.680 -15.833  -1.371  0.00  0.00    -0.337 OA
BRANCH  22  23
ATOM     23  C   UNL d   1      24.567 -16.512  -0.936  0.00  0.00     0.070 A 
ATOM     24  C   UNL d   1      24.684 -17.867  -0.601  0.00  0.00     0.039 A 
ATOM     25  C   UNL d   1      23.537 -18.643  -0.294  0.00  0.00     0.039 A 
ATOM     26  C   UNL d   1      22.271 -18.054  -0.229  0.00  0.00     0.068 A 
ATOM     27  C   UNL d   1      22.157 -16.722  -0.587  0.00  0.00     0.039 A 
ATOM     28  C   UNL d   1      23.278 -15.997  -0.992  0.00  0.00     0.039 A 
BRANCH  26  29
ATOM     29  O   UNL d   1      21.213 -18.835   0.159  0.00  0.00    -0.352 OA
BRANCH  29  30
ATOM     30  C   UNL d   1      20.606 -19.613  -0.885  0.00  0.00     0.171 C 
ATOM     31  C   UNL d   1      19.167 -19.915  -0.518  0.00  0.00     0.034 C 
ENDBRANCH  29  30
ENDBRANCH  26  29
ENDBRANCH  22  23
ENDBRANCH  20  22
ENDBRANCH  17  20
ENDBRANCH  13  16
ENDBRANCH   9  10
ENDBRANCH   8   9
ENDBRANCH   5   8
ENDBRANCH   3   4
TORSDOF 10
ENDMDL
MODEL 2
REMARK VINA RESULT:    -6.360      3.409      4.611
REMARK INTER + INTRA:         -11.528
REMARK INTER:                  -9.343
REMARK INTRA:                  -2.184
REMARK CONF_INDEPENDENT:        2.983
REMARK UNBOUND:                -2.184
REMARK  10 active torsions:
REMARK  status: ('A' for Active; 'I' for Inactive)
REMARK    1  A    between atoms: C_3  and  N_4 
REMARK       I    between atoms: N_4  and  C_5 
REMARK    2  A    between atoms: C_5  and  C_7 
REMARK    3  A    between atoms: C_7  and  C_8 
REMARK    4  A    between atoms: C_8  and  N_9 
REMARK       I    between atoms: N_9  and  C_10 
REMARK       I    between atoms: C_10  and  N_12 
REMARK    5  A    between atoms: N_12  and  N_13 
REMARK       I    between atoms: N_13  and  C_14 
REMARK    6  A    between atoms: C_14  and  C_16 
REMARK    7  A    between atoms: C_16  and  O_18 
REMARK    8  A    between atoms: O_18  and  C_19 
REMARK    9  A    between atoms: C_22  and  O_23 
REMARK   10  A    between atoms: O_23  and  C_24 
ROOT
ATOM      1  C   UNL d   1      26.453 -10.951   2.164  0.00  0.00     0.014 C 
ATOM      2  C   UNL d   1      26.711  -9.837   1.537  0.00  0.00    -0.098 C 
ATOM      3  C   UNL d   1      27.011  -8.539   0.806  0.00  0.00     0.216 C 
ENDROOT
BRANCH   3   4
ATOM      4  N   UNL d   1      26.989  -8.704  -0.662  0.00  0.00    -0.351 N 
ATOM      5  C   UNL d   1      26.583  -7.670  -1.499  0.00  0.00     0.219 C 
ATOM      6  O   UNL d   1      26.231  -6.585  -1.037  0.00  0.00    -0.274 OA
ATOM      7  H   UNL d   1      27.276  -9.594  -1.046  0.00  0.00     0.163 HD
BRANCH   5   8
ATOM      8  C   UNL d   1      26.594  -7.940  -3.024  0.00  0.00     0.122 C 
BRANCH   8   9
ATOM      9  C   UNL d   1      25.198  -8.379  -3.557  0.00  0.00     0.134 C 
BRANCH   9  10
ATOM     10  N   UNL d   1      25.060  -9.794  -3.985  0.00  0.00    -0.341 N 
ATOM     11  C   UNL d   1      25.831 -10.808  -3.427  0.00  0.00     0.334 C 
ATOM     12  O   UNL d   1      26.668 -10.611  -2.543  0.00  0.00    -0.246 OA
ATOM     13  N   UNL d   1      25.597 -12.082  -3.937  0.00  0.00    -0.249 N 
ATOM     14  H   UNL d   1      24.916 -12.299  -4.659  0.00  0.00     0.192 HD
ATOM     15  H   UNL d   1      24.396 -10.027  -4.708  0.00  0.00     0.164 HD
BRANCH  13  16
ATOM     16  N   UNL d   1      26.369 -13.202  -3.448  0.00  0.00    -0.264 N 
ATOM     17  C   UNL d   1      25.869 -14.509  -3.544  0.00  0.00     0.265 C 
ATOM     18  O   UNL d   1      24.788 -14.726  -4.098  0.00  0.00    -0.269 OA
ATOM     19  H   UNL d   1      27.244 -12.953  -2.988  0.00  0.00     0.190 HD
BRANCH  17  20
ATOM     20  C   UNL d   1      26.761 -15.659  -2.911  0.00  0.00     0.218 C 
ATOM     21  C   UNL d   1      28.220 -15.288  -3.183  0.00  0.00     0.050 C 
BRANCH  20  22
ATOM     22  O   UNL d   1      26.435 -15.846  -1.502  0.00  0.00    -0.337 OA
BRANCH  22  23
ATOM     23  C   UNL d   1      25.296 -16.509  -1.108  0.00  0.00     0.070 A 
ATOM     24  C   UNL d   1      24.046 -15.970  -1.437  0.00  0.00     0.039 A 
ATOM     25  C   UNL d   1      22.851 -16.535  -0.922  0.00  0.00     0.039 A 
ATOM     26  C   UNL d   1      22.886 -17.698  -0.148  0.00  0.00     0.068 A 
ATOM     27  C   UNL d   1      24.124 -18.211   0.197  0.00  0.00     0.039 A 
ATOM     28  C   UNL d   1      25.295 -17.583  -0.227  0.00  0.00     0.039 A 
BRANCH  26  29
ATOM     29  O   UNL d   1      21.693 -18.248   0.246  0.00  0.00    -0.352 OA
BRANCH  29  30
ATOM     30  C   UNL d   1      21.163 -19.259  -0.626  0.00  0.00     0.171 C 
ATOM     31  C   UNL d   1      19.804 -19.700  -0.120  0.00  0.00     0.034 C 
ENDBRANCH  29  30
ENDBRANCH  26  29
ENDBRANCH  22  23
ENDBRANCH  20  22
ENDBRANCH  17  20
ENDBRANCH  13  16
ENDBRANCH   9  10
ENDBRANCH   8   9
ENDBRANCH   5   8
ENDBRANCH   3   4
TORSDOF 10
ENDMDL
MODEL 3
REMARK VINA RESULT:    -6.336      2.623      3.133
REMARK INTER + INTRA:         -11.030
REMARK INTER:                  -9.319
REMARK INTRA:                  -1.711
REMARK CONF_INDEPENDENT:        2.983
REMARK UNBOUND:                -1.711
REMARK  10 active torsions:
REMARK  status: ('A' for Active; 'I' for Inactive)
REMARK    1  A    between atoms: C_3  and  N_4 
REMARK       I    between atoms: N_4  and  C_5 
REMARK    2  A    between atoms: C_5  and  C_7 
REMARK    3  A    between atoms: C_7  and  C_8 
REMARK    4  A    between atoms: C_8  and  N_9 
REMARK       I    between atoms: N_9  and  C_10 
REMARK       I    between atoms: C_10  and  N_12 
REMARK    5  A    between atoms: N_12  and  N_13 
REMARK       I    between atoms: N_13  and  C_14 
REMARK    6  A    between atoms: C_14  and  C_16 
REMARK    7  A    between atoms: C_16  and  O_18 
REMARK    8  A    between atoms: O_18  and  C_19 
REMARK    9  A    between atoms: C_22  and  O_23 
REMARK   10  A    between atoms: O_23  and  C_24 
ROOT
ATOM      1  C   UNL d   1      34.466 -11.646  -9.402  0.00  0.00     0.014 C 
ATOM      2  C   UNL d   1      33.613 -12.632  -9.399  0.00  0.00    -0.098 C 
ATOM      3  C   UNL d   1      32.618 -13.782  -9.395  0.00  0.00     0.216 C 
ENDROOT
BRANCH   3   4
ATOM      4  N   UNL d   1      31.244 -13.333  -9.087  0.00  0.00    -0.351 N 
ATOM      5  C   UNL d   1      30.884 -12.941  -7.802  0.00  0.00     0.219 C 
ATOM      6  O   UNL d   1      31.702 -12.954  -6.885  0.00  0.00    -0.274 OA
ATOM      7  H   UNL d   1      30.567 -13.321  -9.839  0.00  0.00     0.163 HD
BRANCH   5   8
ATOM      8  C   UNL d   1      29.419 -12.487  -7.580  0.00  0.00     0.122 C 
BRANCH   8   9
ATOM      9  C   UNL d   1      28.455 -13.691  -7.362  0.00  0.00     0.134 C 
BRANCH   9  10
ATOM     10  N   UNL d   1      27.662 -13.695  -6.106  0.00  0.00    -0.341 N 
ATOM     11  C   UNL d   1      27.806 -14.696  -5.151  0.00  0.00     0.334 C 
ATOM     12  O   UNL d   1      28.596 -15.635  -5.272  0.00  0.00    -0.246 OA
ATOM     13  N   UNL d   1      26.989 -14.571  -4.031  0.00  0.00    -0.249 N 
ATOM     14  H   UNL d   1      26.328 -13.814  -3.881  0.00  0.00     0.192 HD
ATOM     15  H   UNL d   1      26.994 -12.958  -5.943  0.00  0.00     0.164 HD
BRANCH  13  16
ATOM     16  N   UNL d   1      27.037 -15.577  -2.995  0.00  0.00    -0.264 N 
ATOM     17  C   UNL d   1      26.246 -15.452  -1.843  0.00  0.00     0.265 C 
ATOM     18  O   UNL d   1      25.457 -14.511  -1.726  0.00  0.00    -0.269 OA
ATOM     19  H   UNL d   1      27.720 -16.318  -3.146  0.00  0.00     0.190 HD
BRANCH  17  20
ATOM     20  C   UNL d   1      26.427 -16.571  -0.733  0.00  0.00     0.218 C 
ATOM     21  C   UNL d   1      27.762 -16.294  -0.040  0.00  0.00     0.050 C 
BRANCH  20  22
ATOM     22  O   UNL d   1      25.275 -16.602   0.160  0.00  0.00    -0.337 OA
BRANCH  22  23
ATOM     23  C   UNL d   1      24.117 -17.262  -0.179  0.00  0.00     0.070 A 
ATOM     24  C   UNL d   1      24.162 -18.644  -0.406  0.00  0.00     0.039 A 
ATOM     25  C   UNL d   1      23.030 -19.337  -0.905  0.00  0.00     0.039 A 
ATOM     26  C   UNL d   1      21.813 -18.676  -1.095  0.00  0.00     0.068 A 
ATOM     27  C   UNL d   1      21.780 -17.307  -0.895  0.00  0.00     0.039 A 
ATOM     28  C   UNL d   1      22.931 -16.619  -0.509  0.00  0.00     0.039 A 
BRANCH  26  29
ATOM     29  O   UNL d   1      20.730 -19.417  -1.494  0.00  0.00    -0.352 OA
BRANCH  29  30
ATOM     30  C   UNL d   1      19.541 -19.242  -0.706  0.00  0.00     0.171 C 
ATOM     31  C   UNL d   1      19.692 -19.983   0.607  0.00  0.00     0.034 C 
ENDBRANCH  29  30
ENDBRANCH  26  29
ENDBRANCH  22  23
ENDBRANCH  20  22
ENDBRANCH  17  20
ENDBRANCH  13  16
ENDBRANCH   9  10
ENDBRANCH   8   9
ENDBRANCH   5   8
ENDBRANCH   3   4
TORSDOF 10
ENDMDL
MODEL 4
REMARK VINA RESULT:    -5.971      1.700      2.073
REMARK INTER + INTRA:         -11.157
REMARK INTER:                  -8.954
REMARK INTRA:                  -2.203
REMARK CONF_INDEPENDENT:        2.983
REMARK UNBOUND:                -2.203
REMARK  10 active torsions:
REMARK  status: ('A' for Active; 'I' for Inactive)
REMARK    1  A    between atoms: C_3  and  N_4 
REMARK       I    between atoms: N_4  and  C_5 
REMARK    2  A    between atoms: C_5  and  C_7 
REMARK    3  A    between atoms: C_7  and  C_8 
REMARK    4  A    between atoms: C_8  and  N_9 
REMARK       I    between atoms: N_9  and  C_10 
REMARK       I    between atoms: C_10  and  N_12 
REMARK    5  A    between atoms: N_12  and  N_13 
REMARK       I    between atoms: N_13  and  C_14 
REMARK    6  A    between atoms: C_14  and  C_16 
REMARK    7  A    between atoms: C_16  and  O_18 
REMARK    8  A    between atoms: O_18  and  C_19 
REMARK    9  A    between atoms: C_22  and  O_23 
REMARK   10  A    between atoms: O_23  and  C_24 
ROOT
ATOM      1  C   UNL d   1      26.181 -15.252  -5.133  0.00  0.00     0.014 C 
ATOM      2  C   UNL d   1      27.133 -14.453  -5.528  0.00  0.00    -0.098 C 
ATOM      3  C   UNL d   1      28.243 -13.522  -5.988  0.00  0.00     0.216 C 
ENDROOT
BRANCH   3   4
ATOM      4  N   UNL d   1      28.113 -12.167  -5.414  0.00  0.00    -0.351 N 
ATOM      5  C   UNL d   1      27.288 -11.212  -5.998  0.00  0.00     0.219 C 
ATOM      6  O   UNL d   1      26.641 -11.471  -7.012  0.00  0.00    -0.274 OA
ATOM      7  H   UNL d   1      28.643 -11.949  -4.581  0.00  0.00     0.163 HD
BRANCH   5   8
ATOM      8  C   UNL d   1      27.218  -9.820  -5.322  0.00  0.00     0.122 C 
BRANCH   8   9
ATOM      9  C   UNL d   1      26.428  -9.854  -3.980  0.00  0.00     0.134 C 
BRANCH   9  10
ATOM     10  N   UNL d   1      25.649 -11.086  -3.693  0.00  0.00    -0.341 N 
ATOM     11  C   UNL d   1      26.233 -12.203  -3.104  0.00  0.00     0.334 C 
ATOM     12  O   UNL d   1      27.421 -12.249  -2.775  0.00  0.00    -0.246 OA
ATOM     13  N   UNL d   1      25.380 -13.285  -2.907  0.00  0.00    -0.249 N 
ATOM     14  H   UNL d   1      24.395 -13.296  -3.153  0.00  0.00     0.192 HD
ATOM     15  H   UNL d   1      24.672 -11.119  -3.939  0.00  0.00     0.164 HD
BRANCH  13  16
ATOM     16  N   UNL d   1      25.896 -14.506  -2.332  0.00  0.00    -0.264 N 
ATOM     17  C   UNL d   1      26.492 -14.500  -1.061  0.00  0.00     0.265 C 
ATOM     18  O   UNL d   1      26.535 -13.462  -0.396  0.00  0.00    -0.269 OA
ATOM     19  H   UNL d   1      25.845 -15.323  -2.939  0.00  0.00     0.190 HD
BRANCH  17  20
ATOM     20  C   UNL d   1      27.092 -15.878  -0.552  0.00  0.00     0.218 C 
ATOM     21  C   UNL d   1      27.037 -15.847   0.976  0.00  0.00     0.050 C 
BRANCH  20  22
ATOM     22  O   UNL d   1      26.392 -17.002  -1.163  0.00  0.00    -0.337 OA
BRANCH  22  23
ATOM     23  C   UNL d   1      25.071 -17.264  -0.888  0.00  0.00     0.070 A 
ATOM     24  C   UNL d   1      24.696 -18.563  -0.521  0.00  0.00     0.039 A 
ATOM     25  C   UNL d   1      23.330 -18.913  -0.377  0.00  0.00     0.039 A 
ATOM     26  C   UNL d   1      22.326 -17.949  -0.507  0.00  0.00     0.068 A 
ATOM     27  C   UNL d   1      22.699 -16.674  -0.895  0.00  0.00     0.039 A 
ATOM     28  C   UNL d   1      24.038 -16.369  -1.140  0.00  0.00     0.039 A 
BRANCH  26  29
ATOM     29  O   UNL d   1      21.030 -18.328  -0.269  0.00  0.00    -0.352 OA
BRANCH  29  30
ATOM     30  C   UNL d   1      20.850 -19.703   0.106  0.00  0.00     0.171 C 
ATOM     31  C   UNL d   1      19.409 -19.928   0.519  0.00  0.00     0.034 C 
ENDBRANCH  29  30
ENDBRANCH  26  29
ENDBRANCH  22  23
ENDBRANCH  20  22
ENDBRANCH  17  20
ENDBRANCH  13  16
ENDBRANCH   9  10
ENDBRANCH   8   9
ENDBRANCH   5   8
ENDBRANCH   3   4
TORSDOF 10
ENDMDL
MODEL 5
REMARK VINA RESULT:    -5.843      2.132      3.658
REMARK INTER + INTRA:         -11.412
REMARK INTER:                  -8.826
REMARK INTRA:                  -2.586
REMARK CONF_INDEPENDENT:        2.983
REMARK UNBOUND:                -2.586
REMARK  10 active torsions:
REMARK  status: ('A' for Active; 'I' for Inactive)
REMARK    1  A    between atoms: C_3  and  N_4 
REMARK       I    between atoms: N_4  and  C_5 
REMARK    2  A    between atoms: C_5  and  C_7 
REMARK    3  A    between atoms: C_7  and  C_8 
REMARK    4  A    between atoms: C_8  and  N_9 
REMARK       I    between atoms: N_9  and  C_10 
REMARK       I    between atoms: C_10  and  N_12 
REMARK    5  A    between atoms: N_12  and  N_13 
REMARK       I    between atoms: N_13  and  C_14 
REMARK    6  A    between atoms: C_14  and  C_16 
REMARK    7  A    between atoms: C_16  and  O_18 
REMARK    8  A    between atoms: O_18  and  C_19 
REMARK    9  A    between atoms: C_22  and  O_23 
REMARK   10  A    between atoms: O_23  and  C_24 
ROOT
ATOM      1  C   UNL d   1      27.661 -11.743  -3.472  0.00  0.00     0.014 C 
ATOM      2  C   UNL d   1      27.194 -12.749  -4.157  0.00  0.00    -0.098 C 
ATOM      3  C   UNL d   1      26.649 -13.922  -4.955  0.00  0.00     0.216 C 
ENDROOT
BRANCH   3   4
ATOM      4  N   UNL d   1      27.713 -14.857  -5.376  0.00  0.00    -0.351 N 
ATOM      5  C   UNL d   1      28.581 -14.540  -6.416  0.00  0.00     0.219 C 
ATOM      6  O   UNL d   1      28.488 -13.469  -7.014  0.00  0.00    -0.274 OA
ATOM      7  H   UNL d   1      27.794 -15.738  -4.888  0.00  0.00     0.163 HD
BRANCH   5   8
ATOM      8  C   UNL d   1      29.665 -15.585  -6.784  0.00  0.00     0.122 C 
BRANCH   8   9
ATOM      9  C   UNL d   1      30.957 -15.422  -5.930  0.00  0.00     0.134 C 
BRANCH   9  10
ATOM     10  N   UNL d   1      30.772 -15.155  -4.481  0.00  0.00    -0.341 N 
ATOM     11  C   UNL d   1      29.921 -15.925  -3.696  0.00  0.00     0.334 C 
ATOM     12  O   UNL d   1      29.272 -16.876  -4.136  0.00  0.00    -0.246 OA
ATOM     13  N   UNL d   1      29.843 -15.549  -2.357  0.00  0.00    -0.249 N 
ATOM     14  H   UNL d   1      30.361 -14.778  -1.944  0.00  0.00     0.192 HD
ATOM     15  H   UNL d   1      31.270 -14.389  -4.054  0.00  0.00     0.164 HD
BRANCH  13  16
ATOM     16  N   UNL d   1      28.962 -16.263  -1.463  0.00  0.00    -0.264 N 
ATOM     17  C   UNL d   1      27.595 -16.385  -1.756  0.00  0.00     0.265 C 
ATOM     18  O   UNL d   1      27.138 -15.929  -2.807  0.00  0.00    -0.269 OA
ATOM     19  H   UNL d   1      29.398 -16.600  -0.606  0.00  0.00     0.190 HD
BRANCH  17  20
ATOM     20  C   UNL d   1      26.700 -17.124  -0.674  0.00  0.00     0.218 C 
ATOM     21  C   UNL d   1      27.499 -17.131   0.631  0.00  0.00     0.050 C 
BRANCH  20  22
ATOM     22  O   UNL d   1      25.386 -16.500  -0.578  0.00  0.00    -0.337 OA
BRANCH  22  23
ATOM     23  C   UNL d   1      24.229 -17.228  -0.723  0.00  0.00     0.070 A 
ATOM     24  C   UNL d   1      23.015 -16.551  -0.892  0.00  0.00     0.039 A 
ATOM     25  C   UNL d   1      21.783 -17.254  -0.893  0.00  0.00     0.039 A 
ATOM     26  C   UNL d   1      21.756 -18.649  -0.816  0.00  0.00     0.068 A 
ATOM     27  C   UNL d   1      22.955 -19.312  -0.623  0.00  0.00     0.039 A 
ATOM     28  C   UNL d   1      24.150 -18.600  -0.515  0.00  0.00     0.039 A 
BRANCH  26  29
ATOM     29  O   UNL d   1      20.541 -19.279  -0.911  0.00  0.00    -0.352 OA
BRANCH  29  30
ATOM     30  C   UNL d   1      20.217 -20.159   0.178  0.00  0.00     0.171 C 
ATOM     31  C   UNL d   1      18.739 -20.490   0.136  0.00  0.00     0.034 C 
ENDBRANCH  29  30
ENDBRANCH  26  29
ENDBRANCH  22  23
ENDBRANCH  20  22
ENDBRANCH  17  20
ENDBRANCH  13  16
ENDBRANCH   9  10
ENDBRANCH   8   9
ENDBRANCH   5   8
ENDBRANCH   3   4
TORSDOF 10
ENDMDL
MODEL 6
REMARK VINA RESULT:    -5.685      5.650      7.267
REMARK INTER + INTRA:         -10.829
REMARK INTER:                  -8.668
REMARK INTRA:                  -2.160
REMARK CONF_INDEPENDENT:        2.983
REMARK UNBOUND:                -2.160
REMARK  10 active torsions:
REMARK  status: ('A' for Active; 'I' for Inactive)
REMARK    1  A    between atoms: C_3  and  N_4 
REMARK       I    between atoms: N_4  and  C_5 
REMARK    2  A    between atoms: C_5  and  C_7 
REMARK    3  A    between atoms: C_7  and  C_8 
REMARK    4  A    between atoms: C_8  and  N_9 
REMARK       I    between atoms: N_9  and  C_10 
REMARK       I    between atoms: C_10  and  N_12 
REMARK    5  A    between atoms: N_12  and  N_13 
REMARK       I    between atoms: N_13  and  C_14 
REMARK    6  A    between atoms: C_14  and  C_16 
REMARK    7  A    between atoms: C_16  and  O_18 
REMARK    8  A    between atoms: O_18  and  C_19 
REMARK    9  A    between atoms: C_22  and  O_23 
REMARK   10  A    between atoms: O_23  and  C_24 
ROOT
ATOM      1  C   UNL d   1      30.186 -13.617   4.671  0.00  0.00     0.014 C 
ATOM      2  C   UNL d   1      29.646 -12.786   5.517  0.00  0.00    -0.098 C 
ATOM      3  C   UNL d   1      29.015 -11.817   6.504  0.00  0.00     0.216 C 
ENDROOT
BRANCH   3   4
ATOM      4  N   UNL d   1      28.150 -10.821   5.838  0.00  0.00    -0.351 N 
ATOM      5  C   UNL d   1      28.592 -10.109   4.728  0.00  0.00     0.219 C 
ATOM      6  O   UNL d   1      29.718 -10.291   4.268  0.00  0.00    -0.274 OA
ATOM      7  H   UNL d   1      27.223 -10.668   6.213  0.00  0.00     0.163 HD
BRANCH   5   8
ATOM      8  C   UNL d   1      27.611  -9.087   4.099  0.00  0.00     0.122 C 
BRANCH   8   9
ATOM      9  C   UNL d   1      27.131  -9.524   2.684  0.00  0.00     0.134 C 
BRANCH   9  10
ATOM     10  N   UNL d   1      27.707 -10.779   2.139  0.00  0.00    -0.341 N 
ATOM     11  C   UNL d   1      26.903 -11.826   1.701  0.00  0.00     0.334 C 
ATOM     12  O   UNL d   1      25.671 -11.786   1.724  0.00  0.00    -0.246 OA
ATOM     13  N   UNL d   1      27.586 -12.942   1.226  0.00  0.00    -0.249 N 
ATOM     14  H   UNL d   1      28.598 -13.022   1.179  0.00  0.00     0.192 HD
ATOM     15  H   UNL d   1      28.710 -10.882   2.093  0.00  0.00     0.164 HD
BRANCH  13  16
ATOM     16  N   UNL d   1      26.844 -14.098   0.777  0.00  0.00    -0.264 N 
ATOM     17  C   UNL d   1      27.501 -15.169   0.152  0.00  0.00     0.265 C 
ATOM     18  O   UNL d   1      28.728 -15.162   0.028  0.00  0.00    -0.269 OA
ATOM     19  H   UNL d   1      25.834 -14.033   0.895  0.00  0.00     0.190 HD
BRANCH  17  20
ATOM     20  C   UNL d   1      26.586 -16.356  -0.369  0.00  0.00     0.218 C 
ATOM     21  C   UNL d   1      27.026 -17.615   0.379  0.00  0.00     0.050 C 
BRANCH  20  22
ATOM     22  O   UNL d   1      25.175 -16.022  -0.220  0.00  0.00    -0.337 OA
BRANCH  22  23
ATOM     23  C   UNL d   1      24.185 -16.944  -0.465  0.00  0.00     0.070 A 
ATOM     24  C   UNL d   1      22.899 -16.494  -0.787  0.00  0.00     0.039 A 
ATOM     25  C   UNL d   1      21.816 -17.403  -0.898  0.00  0.00     0.039 A 
ATOM     26  C   UNL d   1      22.022 -18.780  -0.778  0.00  0.00     0.068 A 
ATOM     27  C   UNL d   1      23.289 -19.218  -0.434  0.00  0.00     0.039 A 
ATOM     28  C   UNL d   1      24.322 -18.305  -0.221  0.00  0.00     0.039 A 
BRANCH  26  29
ATOM     29  O   UNL d   1      20.954 -19.615  -0.983  0.00  0.00    -0.352 OA
BRANCH  29  30
ATOM     30  C   UNL d   1      19.851 -19.437  -0.079  0.00  0.00     0.171 C 
ATOM     31  C   UNL d   1      19.254 -20.788   0.259  0.00  0.00     0.034 C 
ENDBRANCH  29  30
ENDBRANCH  26  29
ENDBRANCH  22  23
ENDBRANCH  20  22
ENDBRANCH  17  20
ENDBRANCH  13  16
ENDBRANCH   9  10
ENDBRANCH   8   9
ENDBRANCH   5   8
ENDBRANCH   3   4
TORSDOF 10
ENDMDL
MODEL 7
REMARK VINA RESULT:    -5.531      6.277      8.427
REMARK INTER + INTRA:         -11.338
REMARK INTER:                  -8.514
REMARK INTRA:                  -2.824
REMARK CONF_INDEPENDENT:        2.983
REMARK UNBOUND:                -2.824
REMARK  10 active torsions:
REMARK  status: ('A' for Active; 'I' for Inactive)
REMARK    1  A    between atoms: C_3  and  N_4 
REMARK       I    between atoms: N_4  and  C_5 
REMARK    2  A    between atoms: C_5  and  C_7 
REMARK    3  A    between atoms: C_7  and  C_8 
REMARK    4  A    between atoms: C_8  and  N_9 
REMARK       I    between atoms: N_9  and  C_10 
REMARK       I    between atoms: C_10  and  N_12 
REMARK    5  A    between atoms: N_12  and  N_13 
REMARK       I    between atoms: N_13  and  C_14 
REMARK    6  A    between atoms: C_14  and  C_16 
REMARK    7  A    between atoms: C_16  and  O_18 
REMARK    8  A    between atoms: O_18  and  C_19 
REMARK    9  A    between atoms: C_22  and  O_23 
REMARK   10  A    between atoms: O_23  and  C_24 
ROOT
ATOM      1  C   UNL d   1      30.690 -11.014   2.284  0.00  0.00     0.014 C 
ATOM      2  C   UNL d   1      29.719 -10.716   3.102  0.00  0.00    -0.098 C 
ATOM      3  C   UNL d   1      28.588 -10.368   4.057  0.00  0.00     0.216 C 
ENDROOT
BRANCH   3   4
ATOM      4  N   UNL d   1      28.241 -11.494   4.949  0.00  0.00    -0.351 N 
ATOM      5  C   UNL d   1      28.624 -11.499   6.286  0.00  0.00     0.219 C 
ATOM      6  O   UNL d   1      29.263 -10.563   6.764  0.00  0.00    -0.274 OA
ATOM      7  H   UNL d   1      27.716 -12.265   4.560  0.00  0.00     0.163 HD
BRANCH   5   8
ATOM      8  C   UNL d   1      28.212 -12.724   7.140  0.00  0.00     0.122 C 
BRANCH   8   9
ATOM      9  C   UNL d   1      29.175 -13.933   6.942  0.00  0.00     0.134 C 
BRANCH   9  10
ATOM     10  N   UNL d   1      29.798 -14.079   5.602  0.00  0.00    -0.341 N 
ATOM     11  C   UNL d   1      29.035 -14.252   4.453  0.00  0.00     0.334 C 
ATOM     12  O   UNL d   1      27.803 -14.288   4.460  0.00  0.00    -0.246 OA
ATOM     13  N   UNL d   1      29.761 -14.385   3.272  0.00  0.00    -0.249 N 
ATOM     14  H   UNL d   1      30.775 -14.356   3.211  0.00  0.00     0.192 HD
ATOM     15  H   UNL d   1      30.804 -14.062   5.523  0.00  0.00     0.164 HD
BRANCH  13  16
ATOM     16  N   UNL d   1      29.064 -14.602   2.025  0.00  0.00    -0.264 N 
ATOM     17  C   UNL d   1      28.096 -13.689   1.581  0.00  0.00     0.265 C 
ATOM     18  O   UNL d   1      27.867 -12.660   2.222  0.00  0.00    -0.269 OA
ATOM     19  H   UNL d   1      29.287 -15.477   1.554  0.00  0.00     0.190 HD
BRANCH  17  20
ATOM     20  C   UNL d   1      27.337 -14.056   0.237  0.00  0.00     0.218 C 
ATOM     21  C   UNL d   1      27.952 -13.198  -0.869  0.00  0.00     0.050 C 
BRANCH  20  22
ATOM     22  O   UNL d   1      27.390 -15.493  -0.008  0.00  0.00    -0.337 OA
BRANCH  22  23
ATOM     23  C   UNL d   1      26.255 -16.223  -0.272  0.00  0.00     0.070 A 
ATOM     24  C   UNL d   1      26.019 -17.401   0.447  0.00  0.00     0.039 A 
ATOM     25  C   UNL d   1      24.946 -18.261   0.105  0.00  0.00     0.039 A 
ATOM     26  C   UNL d   1      24.040 -17.910  -0.900  0.00  0.00     0.068 A 
ATOM     27  C   UNL d   1      24.291 -16.759  -1.626  0.00  0.00     0.039 A 
ATOM     28  C   UNL d   1      25.413 -15.977  -1.350  0.00  0.00     0.039 A 
BRANCH  26  29
ATOM     29  O   UNL d   1      22.971 -18.738  -1.126  0.00  0.00    -0.352 OA
BRANCH  29  30
ATOM     30  C   UNL d   1      21.944 -18.707  -0.122  0.00  0.00     0.171 C 
ATOM     31  C   UNL d   1      20.811 -19.627  -0.529  0.00  0.00     0.034 C 
ENDBRANCH  29  30
ENDBRANCH  26  29
ENDBRANCH  22  23
ENDBRANCH  20  22
ENDBRANCH  17  20
ENDBRANCH  13  16
ENDBRANCH   9  10
ENDBRANCH   8   9
ENDBRANCH   5   8
ENDBRANCH   3   4
TORSDOF 10
ENDMDL
MODEL 8
REMARK VINA RESULT:    -5.436      5.152      8.687
REMARK INTER + INTRA:         -11.162
REMARK INTER:                  -8.419
REMARK INTRA:                  -2.743
REMARK CONF_INDEPENDENT:        2.983
REMARK UNBOUND:                -2.743
REMARK  10 active torsions:
REMARK  status: ('A' for Active; 'I' for Inactive)
REMARK    1  A    between atoms: C_3  and  N_4 
REMARK       I    between atoms: N_4  and  C_5 
REMARK    2  A    between atoms: C_5  and  C_7 
REMARK    3  A    between atoms: C_7  and  C_8 
REMARK    4  A    between atoms: C_8  and  N_9 
REMARK       I    between atoms: N_9  and  C_10 
REMARK       I    between atoms: C_10  and  N_12 
REMARK    5  A    between atoms: N_12  and  N_13 
REMARK       I    between atoms: N_13  and  C_14 
REMARK    6  A    between atoms: C_14  and  C_16 
REMARK    7  A    between atoms: C_16  and  O_18 
REMARK    8  A    between atoms: O_18  and  C_19 
REMARK    9  A    between atoms: C_22  and  O_23 
REMARK   10  A    between atoms: O_23  and  C_24 
ROOT
ATOM      1  C   UNL d   1      27.439  -8.497   1.635  0.00  0.00     0.014 C 
ATOM      2  C   UNL d   1      27.139  -9.167   2.712  0.00  0.00    -0.098 C 
ATOM      3  C   UNL d   1      26.789  -9.949   3.968  0.00  0.00     0.216 C 
ENDROOT
BRANCH   3   4
ATOM      4  N   UNL d   1      27.419 -11.285   3.991  0.00  0.00    -0.351 N 
ATOM      5  C   UNL d   1      27.883 -11.844   5.177  0.00  0.00     0.219 C 
ATOM      6  O   UNL d   1      27.780 -11.239   6.243  0.00  0.00    -0.274 OA
ATOM      7  H   UNL d   1      27.505 -11.786   3.117  0.00  0.00     0.163 HD
BRANCH   5   8
ATOM      8  C   UNL d   1      28.528 -13.250   5.098  0.00  0.00     0.122 C 
BRANCH   8   9
ATOM      9  C   UNL d   1      29.401 -13.429   3.821  0.00  0.00     0.134 C 
BRANCH   9  10
ATOM     10  N   UNL d   1      29.076 -14.582   2.944  0.00  0.00    -0.341 N 
ATOM     11  C   UNL d   1      27.960 -14.581   2.113  0.00  0.00     0.334 C 
ATOM     12  O   UNL d   1      27.175 -13.632   2.039  0.00  0.00    -0.246 OA
ATOM     13  N   UNL d   1      27.780 -15.736   1.357  0.00  0.00    -0.249 N 
ATOM     14  H   UNL d   1      28.400 -16.541   1.377  0.00  0.00     0.192 HD
ATOM     15  H   UNL d   1      29.673 -15.394   2.956  0.00  0.00     0.164 HD
BRANCH  13  16
ATOM     16  N   UNL d   1      26.633 -15.849   0.486  0.00  0.00    -0.264 N 
ATOM     17  C   UNL d   1      26.174 -17.108   0.070  0.00  0.00     0.265 C 
ATOM     18  O   UNL d   1      26.711 -18.137   0.487  0.00  0.00    -0.269 OA
ATOM     19  H   UNL d   1      26.247 -14.962   0.165  0.00  0.00     0.190 HD
BRANCH  17  20
ATOM     20  C   UNL d   1      24.954 -17.120  -0.945  0.00  0.00     0.218 C 
ATOM     21  C   UNL d   1      23.803 -17.843  -0.245  0.00  0.00     0.050 C 
BRANCH  20  22
ATOM     22  O   UNL d   1      24.641 -15.766  -1.389  0.00  0.00    -0.337 OA
BRANCH  22  23
ATOM     23  C   UNL d   1      25.186 -15.239  -2.535  0.00  0.00     0.070 A 
ATOM     24  C   UNL d   1      26.390 -15.765  -3.022  0.00  0.00     0.039 A 
ATOM     25  C   UNL d   1      27.064 -15.154  -4.110  0.00  0.00     0.039 A 
ATOM     26  C   UNL d   1      26.499 -14.067  -4.782  0.00  0.00     0.068 A 
ATOM     27  C   UNL d   1      25.324 -13.535  -4.282  0.00  0.00     0.039 A 
ATOM     28  C   UNL d   1      24.726 -14.078  -3.144  0.00  0.00     0.039 A 
BRANCH  26  29
ATOM     29  O   UNL d   1      27.154 -13.575  -5.882  0.00  0.00    -0.352 OA
BRANCH  29  30
ATOM     30  C   UNL d   1      28.581 -13.745  -5.876  0.00  0.00     0.171 C 
ATOM     31  C   UNL d   1      28.968 -14.797  -6.895  0.00  0.00     0.034 C 
ENDBRANCH  29  30
ENDBRANCH  26  29
ENDBRANCH  22  23
ENDBRANCH  20  22
ENDBRANCH  17  20
ENDBRANCH  13  16
ENDBRANCH   9  10
ENDBRANCH   8   9
ENDBRANCH   5   8
ENDBRANCH   3   4
TORSDOF 10
ENDMDL
MODEL 9
REMARK VINA RESULT:    -4.719      6.606      8.959
REMARK INTER + INTRA:         -10.868
REMARK INTER:                  -7.702
REMARK INTRA:                  -3.165
REMARK CONF_INDEPENDENT:        2.983
REMARK UNBOUND:                -3.165
REMARK  10 active torsions:
REMARK  status: ('A' for Active; 'I' for Inactive)
REMARK    1  A    between atoms: C_3  and  N_4 
REMARK       I    between atoms: N_4  and  C_5 
REMARK    2  A    between atoms: C_5  and  C_7 
REMARK    3  A    between atoms: C_7  and  C_8 
REMARK    4  A    between atoms: C_8  and  N_9 
REMARK       I    between atoms: N_9  and  C_10 
REMARK       I    between atoms: C_10  and  N_12 
REMARK    5  A    between atoms: N_12  and  N_13 
REMARK       I    between atoms: N_13  and  C_14 
REMARK    6  A    between atoms: C_14  and  C_16 
REMARK    7  A    between atoms: C_16  and  O_18 
REMARK    8  A    between atoms: O_18  and  C_19 
REMARK    9  A    between atoms: C_22  and  O_23 
REMARK   10  A    between atoms: O_23  and  C_24 
ROOT
ATOM      1  C   UNL d   1      30.087 -11.187   2.299  0.00  0.00     0.014 C 
ATOM      2  C   UNL d   1      29.019 -11.136   3.045  0.00  0.00    -0.098 C 
ATOM      3  C   UNL d   1      27.774 -11.077   3.915  0.00  0.00     0.216 C 
ENDROOT
BRANCH   3   4
ATOM      4  N   UNL d   1      27.781 -12.106   4.976  0.00  0.00    -0.351 N 
ATOM      5  C   UNL d   1      28.185 -11.802   6.272  0.00  0.00     0.219 C 
ATOM      6  O   UNL d   1      28.546 -10.666   6.571  0.00  0.00    -0.274 OA
ATOM      7  H   UNL d   1      27.485 -13.042   4.735  0.00  0.00     0.163 HD
BRANCH   5   8
ATOM      8  C   UNL d   1      28.158 -12.949   7.314  0.00  0.00     0.122 C 
BRANCH   8   9
ATOM      9  C   UNL d   1      29.525 -13.687   7.415  0.00  0.00     0.134 C 
BRANCH   9  10
ATOM     10  N   UNL d   1      30.360 -13.722   6.187  0.00  0.00    -0.341 N 
ATOM     11  C   UNL d   1      29.895 -14.276   5.000  0.00  0.00     0.334 C 
ATOM     12  O   UNL d   1      28.769 -14.765   4.878  0.00  0.00    -0.246 OA
ATOM     13  N   UNL d   1      30.794 -14.245   3.937  0.00  0.00    -0.249 N 
ATOM     14  H   UNL d   1      31.728 -13.848   3.983  0.00  0.00     0.192 HD
ATOM     15  H   UNL d   1      31.294 -13.342   6.216  0.00  0.00     0.164 HD
BRANCH  13  16
ATOM     16  N   UNL d   1      30.421 -14.825   2.667  0.00  0.00    -0.264 N 
ATOM     17  C   UNL d   1      31.049 -14.413   1.483  0.00  0.00     0.265 C 
ATOM     18  O   UNL d   1      31.968 -13.589   1.517  0.00  0.00    -0.269 OA
ATOM     19  H   UNL d   1      29.646 -15.485   2.707  0.00  0.00     0.190 HD
BRANCH  17  20
ATOM     20  C   UNL d   1      30.516 -15.056   0.134  0.00  0.00     0.218 C 
ATOM     21  C   UNL d   1      31.739 -15.321  -0.745  0.00  0.00     0.050 C 
BRANCH  20  22
ATOM     22  O   UNL d   1      29.702 -16.234   0.413  0.00  0.00    -0.337 OA
BRANCH  22  23
ATOM     23  C   UNL d   1      28.348 -16.249   0.172  0.00  0.00     0.070 A 
ATOM     24  C   UNL d   1      27.722 -17.468  -0.117  0.00  0.00     0.039 A 
ATOM     25  C   UNL d   1      26.363 -17.510  -0.520  0.00  0.00     0.039 A 
ATOM     26  C   UNL d   1      25.589 -16.347  -0.552  0.00  0.00     0.068 A 
ATOM     27  C   UNL d   1      26.219 -15.142  -0.292  0.00  0.00     0.039 A 
ATOM     28  C   UNL d   1      27.583 -15.103  -0.002  0.00  0.00     0.039 A 
BRANCH  26  29
ATOM     29  O   UNL d   1      24.259 -16.463  -0.864  0.00  0.00    -0.352 OA
BRANCH  29  30
ATOM     30  C   UNL d   1      23.829 -17.778  -1.248  0.00  0.00     0.171 C 
ATOM     31  C   UNL d   1      23.069 -18.416  -0.103  0.00  0.00     0.034 C 
ENDBRANCH  29  30
ENDBRANCH  26  29
ENDBRANCH  22  23
ENDBRANCH  20  22
ENDBRANCH  17  20
ENDBRANCH  13  16
ENDBRANCH   9  10
ENDBRANCH   8   9
ENDBRANCH   5   8
ENDBRANCH   3   4
TORSDOF 10
ENDMDL
