MODEL 1
REMARK VINA RESULT:    -8.615      0.000      0.000
REMARK INTER + INTRA:         -13.548
REMARK INTER:                 -11.897
REMARK INTRA:                  -1.651
REMARK CONF_INDEPENDENT:        3.281
REMARK UNBOUND:                -1.651
REMARK  11 active torsions:
REMARK  status: ('A' for Active; 'I' for Inactive)
REMARK    1  A    between atoms: C_3  and  C_2 
REMARK    2  A    between atoms: C_3  and  C_5 
REMARK    3  A    between atoms: C_8  and  O_9 
REMARK    4  A    between atoms: O_9  and  C_10 
REMARK    5  A    between atoms: C_10  and  C_11 
REMARK       I    between atoms: C_11  and  N_13 
REMARK    6  A    between atoms: N_13  and  N_14 
REMARK    7  A    between atoms: N_14  and  C_15 
REMARK    8  A    between atoms: C_15  and  N_17 
REMARK       I    between atoms: N_17  and  C_18 
REMARK    9  A    between atoms: C_18  and  C_20 
REMARK   10  A    between atoms: C_24  and  C_25 
REMARK   11  A    between atoms: C_25  and  O_27 
ROOT
ATOM      1  N   UNL d   1      25.541 -12.581  -4.113  0.00  0.00    -0.273 N 
ATOM      2  H   UNL d   1      24.601 -12.239  -4.312  0.00  0.00     0.189 HD
ENDROOT
BRANCH   1   3
ATOM      3  N   UNL d   1      25.688 -13.214  -2.803  0.00  0.00    -0.266 N 
ATOM      4  C   UNL d   1      25.629 -14.598  -2.656  0.00  0.00     0.260 C 
ATOM      5  O   UNL d   1      25.440 -15.325  -3.633  0.00  0.00    -0.269 OA
ATOM      6  H   UNL d   1      25.838 -12.571  -2.025  0.00  0.00     0.190 HD
BRANCH   4   7
ATOM      7  C   UNL d   1      25.813 -15.142  -1.200  0.00  0.00     0.280 C 
BRANCH   7   8
ATOM      8  O   UNL d   1      25.785 -16.576  -1.164  0.00  0.00    -0.342 OA
BRANCH   8   9
ATOM      9  C   UNL d   1      24.595 -17.216  -0.929  0.00  0.00     0.069 A 
ATOM     10  C   UNL d   1      23.441 -16.465  -1.177  0.00  0.00     0.037 A 
ATOM     11  C   UNL d   1      22.166 -16.978  -0.892  0.00  0.00     0.010 A 
ATOM     12  C   UNL d   1      22.001 -18.297  -0.435  0.00  0.00    -0.054 A 
ATOM     13  C   UNL d   1      23.160 -19.060  -0.231  0.00  0.00     0.010 A 
ATOM     14  C   UNL d   1      24.441 -18.523  -0.469  0.00  0.00     0.037 A 
BRANCH  12  15
ATOM     15  C   UNL d   1      20.603 -18.953  -0.353  0.00  0.00     0.014 C 
ATOM     16  C   UNL d   1      20.263 -19.698  -1.638  0.00  0.00     0.015 C 
BRANCH  15  17
ATOM     17  C   UNL d   1      20.607 -19.757   0.976  0.00  0.00     0.004 C 
ATOM     18  C   UNL d   1      19.454 -20.067   1.921  0.00  0.00     0.006 C 
ENDBRANCH  15  17
ENDBRANCH  12  15
ENDBRANCH   8   9
ENDBRANCH   7   8
ENDBRANCH   4   7
ENDBRANCH   1   3
BRANCH   1  19
ATOM     19  C   UNL d   1      26.653 -12.512  -4.973  0.00  0.00     0.193 C 
ATOM     20  S   UNL d   1      26.666 -11.367  -6.215  0.00  0.00    -0.039 SA
BRANCH  19  21
ATOM     21  N   UNL d   1      27.690 -13.446  -4.714  0.00  0.00    -0.298 N 
ATOM     22  C   UNL d   1      27.835 -14.722  -5.314  0.00  0.00     0.257 C 
ATOM     23  O   UNL d   1      27.066 -15.203  -6.144  0.00  0.00    -0.267 OA
ATOM     24  H   UNL d   1      28.424 -13.163  -4.080  0.00  0.00     0.171 HD
BRANCH  22  25
ATOM     25  C   UNL d   1      28.975 -15.623  -4.952  0.00  0.00     0.033 A 
ATOM     26  C   UNL d   1      29.664 -16.267  -6.004  0.00  0.00     0.017 A 
ATOM     27  C   UNL d   1      30.561 -17.310  -5.750  0.00  0.00     0.002 A 
ATOM     28  C   UNL d   1      30.823 -17.684  -4.434  0.00  0.00     0.017 A 
ATOM     29  C   UNL d   1      30.141 -17.063  -3.373  0.00  0.00     0.040 A 
ATOM     30  C   UNL d   1      29.210 -16.033  -3.637  0.00  0.00     0.034 A 
BRANCH  29  31
ATOM     31  C   UNL d   1      30.395 -17.574  -1.995  0.00  0.00     0.292 C 
ATOM     32  O   UNL d   1      29.664 -17.324  -1.038  0.00  0.00    -0.259 OA
BRANCH  31  33
ATOM     33  O   UNL d   1      31.518 -18.329  -1.950  0.00  0.00    -0.323 OA
ATOM     34  C   UNL d   1      31.723 -19.005  -0.704  0.00  0.00     0.213 C 
ENDBRANCH  31  33
ENDBRANCH  29  31
ENDBRANCH  22  25
ENDBRANCH  19  21
ENDBRANCH   1  19
TORSDOF 11
ENDMDL
MODEL 2
REMARK VINA RESULT:    -8.393      7.086      8.634
REMARK INTER + INTRA:         -13.683
REMARK INTER:                 -11.675
REMARK INTRA:                  -2.009
REMARK CONF_INDEPENDENT:        3.281
REMARK UNBOUND:                -2.009
REMARK  11 active torsions:
REMARK  status: ('A' for Active; 'I' for Inactive)
REMARK    1  A    between atoms: C_3  and  C_2 
REMARK    2  A    between atoms: C_3  and  C_5 
REMARK    3  A    between atoms: C_8  and  O_9 
REMARK    4  A    between atoms: O_9  and  C_10 
REMARK    5  A    between atoms: C_10  and  C_11 
REMARK       I    between atoms: C_11  and  N_13 
REMARK    6  A    between atoms: N_13  and  N_14 
REMARK    7  A    between atoms: N_14  and  C_15 
REMARK    8  A    between atoms: C_15  and  N_17 
REMARK       I    between atoms: N_17  and  C_18 
REMARK    9  A    between atoms: C_18  and  C_20 
REMARK   10  A    between atoms: C_24  and  C_25 
REMARK   11  A    between atoms: C_25  and  O_27 
ROOT
ATOM      1  N   UNL d   1      28.368 -14.304   2.513  0.00  0.00    -0.273 N 
ATOM      2  H   UNL d   1      27.594 -13.646   2.595  0.00  0.00     0.189 HD
ENDROOT
BRANCH   1   3
ATOM      3  N   UNL d   1      28.102 -15.442   1.633  0.00  0.00    -0.266 N 
ATOM      4  C   UNL d   1      27.038 -15.429   0.734  0.00  0.00     0.260 C 
ATOM      5  O   UNL d   1      26.286 -14.456   0.666  0.00  0.00    -0.269 OA
ATOM      6  H   UNL d   1      28.749 -16.225   1.729  0.00  0.00     0.190 HD
BRANCH   4   7
ATOM      7  C   UNL d   1      26.876 -16.708  -0.155  0.00  0.00     0.280 C 
BRANCH   7   8
ATOM      8  O   UNL d   1      25.805 -16.563  -1.098  0.00  0.00    -0.342 OA
BRANCH   8   9
ATOM      9  C   UNL d   1      24.618 -17.209  -0.867  0.00  0.00     0.069 A 
ATOM     10  C   UNL d   1      23.470 -16.412  -0.928  0.00  0.00     0.037 A 
ATOM     11  C   UNL d   1      22.204 -16.937  -0.625  0.00  0.00     0.010 A 
ATOM     12  C   UNL d   1      22.036 -18.303  -0.339  0.00  0.00    -0.054 A 
ATOM     13  C   UNL d   1      23.185 -19.106  -0.323  0.00  0.00     0.010 A 
ATOM     14  C   UNL d   1      24.461 -18.564  -0.578  0.00  0.00     0.037 A 
BRANCH  12  15
ATOM     15  C   UNL d   1      20.630 -18.940  -0.246  0.00  0.00     0.014 C 
ATOM     16  C   UNL d   1      20.280 -19.700  -1.521  0.00  0.00     0.015 C 
BRANCH  15  17
ATOM     17  C   UNL d   1      20.625 -19.725   1.094  0.00  0.00     0.004 C 
ATOM     18  C   UNL d   1      19.445 -20.182   1.942  0.00  0.00     0.006 C 
ENDBRANCH  15  17
ENDBRANCH  12  15
ENDBRANCH   8   9
ENDBRANCH   7   8
ENDBRANCH   4   7
ENDBRANCH   1   3
BRANCH   1  19
ATOM     19  C   UNL d   1      29.626 -14.195   3.136  0.00  0.00     0.193 C 
ATOM     20  S   UNL d   1      31.020 -14.519   2.239  0.00  0.00    -0.039 SA
BRANCH  19  21
ATOM     21  N   UNL d   1      29.605 -13.819   4.504  0.00  0.00    -0.298 N 
ATOM     22  C   UNL d   1      28.464 -13.423   5.245  0.00  0.00     0.257 C 
ATOM     23  O   UNL d   1      27.324 -13.342   4.793  0.00  0.00    -0.267 OA
ATOM     24  H   UNL d   1      30.473 -13.883   5.017  0.00  0.00     0.171 HD
BRANCH  22  25
ATOM     25  C   UNL d   1      28.572 -13.043   6.689  0.00  0.00     0.033 A 
ATOM     26  C   UNL d   1      28.583 -11.666   7.008  0.00  0.00     0.017 A 
ATOM     27  C   UNL d   1      28.934 -11.223   8.287  0.00  0.00     0.002 A 
ATOM     28  C   UNL d   1      29.223 -12.156   9.281  0.00  0.00     0.017 A 
ATOM     29  C   UNL d   1      29.227 -13.529   8.983  0.00  0.00     0.040 A 
ATOM     30  C   UNL d   1      28.905 -13.970   7.680  0.00  0.00     0.034 A 
BRANCH  29  31
ATOM     31  C   UNL d   1      29.637 -14.470  10.065  0.00  0.00     0.292 C 
ATOM     32  O   UNL d   1      29.131 -14.470  11.186  0.00  0.00    -0.259 OA
BRANCH  31  33
ATOM     33  O   UNL d   1      30.621 -15.301   9.647  0.00  0.00    -0.323 OA
ATOM     34  C   UNL d   1      30.966 -16.325  10.586  0.00  0.00     0.213 C 
ENDBRANCH  31  33
ENDBRANCH  29  31
ENDBRANCH  22  25
ENDBRANCH  19  21
ENDBRANCH   1  19
TORSDOF 11
ENDMDL
MODEL 3
REMARK VINA RESULT:    -7.841      4.001      7.493
REMARK INTER + INTRA:         -13.848
REMARK INTER:                 -11.122
REMARK INTRA:                  -2.726
REMARK CONF_INDEPENDENT:        3.281
REMARK UNBOUND:                -2.726
REMARK  11 active torsions:
REMARK  status: ('A' for Active; 'I' for Inactive)
REMARK    1  A    between atoms: C_3  and  C_2 
REMARK    2  A    between atoms: C_3  and  C_5 
REMARK    3  A    between atoms: C_8  and  O_9 
REMARK    4  A    between atoms: O_9  and  C_10 
REMARK    5  A    between atoms: C_10  and  C_11 
REMARK       I    between atoms: C_11  and  N_13 
REMARK    6  A    between atoms: N_13  and  N_14 
REMARK    7  A    between atoms: N_14  and  C_15 
REMARK    8  A    between atoms: C_15  and  N_17 
REMARK       I    between atoms: N_17  and  C_18 
REMARK    9  A    between atoms: C_18  and  C_20 
REMARK   10  A    between atoms: C_24  and  C_25 
REMARK   11  A    between atoms: C_25  and  O_27 
ROOT
ATOM      1  N   UNL d   1      25.666 -12.898  -3.795  0.00  0.00    -0.273 N 
ATOM      2  H   UNL d   1      24.984 -12.328  -4.294  0.00  0.00     0.189 HD
ENDROOT
BRANCH   1   3
ATOM      3  N   UNL d   1      26.260 -12.245  -2.628  0.00  0.00    -0.266 N 
ATOM      4  C   UNL d   1      27.432 -11.500  -2.733  0.00  0.00     0.260 C 
ATOM      5  O   UNL d   1      28.004 -11.380  -3.818  0.00  0.00    -0.269 OA
ATOM      6  H   UNL d   1      25.752 -12.376  -1.753  0.00  0.00     0.190 HD
BRANCH   4   7
ATOM      7  C   UNL d   1      27.950 -10.846  -1.409  0.00  0.00     0.280 C 
BRANCH   7   8
ATOM      8  O   UNL d   1      27.030 -11.044  -0.326  0.00  0.00    -0.342 OA
BRANCH   8   9
ATOM      9  C   UNL d   1      27.439 -11.745   0.780  0.00  0.00     0.069 A 
ATOM     10  C   UNL d   1      26.755 -12.939   1.030  0.00  0.00     0.037 A 
ATOM     11  C   UNL d   1      27.021 -13.701   2.179  0.00  0.00     0.010 A 
ATOM     12  C   UNL d   1      28.047 -13.337   3.068  0.00  0.00    -0.054 A 
ATOM     13  C   UNL d   1      28.759 -12.162   2.787  0.00  0.00     0.010 A 
ATOM     14  C   UNL d   1      28.454 -11.373   1.661  0.00  0.00     0.037 A 
BRANCH  12  15
ATOM     15  C   UNL d   1      28.513 -14.289   4.194  0.00  0.00     0.014 C 
ATOM     16  C   UNL d   1      30.030 -14.438   4.203  0.00  0.00     0.015 C 
BRANCH  15  17
ATOM     17  C   UNL d   1      27.825 -13.764   5.483  0.00  0.00     0.004 C 
ATOM     18  C   UNL d   1      27.781 -12.350   6.047  0.00  0.00     0.006 C 
ENDBRANCH  15  17
ENDBRANCH  12  15
ENDBRANCH   8   9
ENDBRANCH   7   8
ENDBRANCH   4   7
ENDBRANCH   1   3
BRANCH   1  19
ATOM     19  C   UNL d   1      26.047 -14.215  -4.114  0.00  0.00     0.193 C 
ATOM     20  S   UNL d   1      27.117 -14.476  -5.395  0.00  0.00    -0.039 SA
BRANCH  19  21
ATOM     21  N   UNL d   1      25.472 -15.234  -3.311  0.00  0.00    -0.298 N 
ATOM     22  C   UNL d   1      25.471 -15.282  -1.895  0.00  0.00     0.257 C 
ATOM     23  O   UNL d   1      25.984 -14.440  -1.161  0.00  0.00    -0.267 OA
ATOM     24  H   UNL d   1      24.974 -15.974  -3.784  0.00  0.00     0.171 HD
BRANCH  22  25
ATOM     25  C   UNL d   1      24.834 -16.418  -1.158  0.00  0.00     0.033 A 
ATOM     26  C   UNL d   1      25.684 -17.360  -0.536  0.00  0.00     0.017 A 
ATOM     27  C   UNL d   1      25.188 -18.575  -0.052  0.00  0.00     0.002 A 
ATOM     28  C   UNL d   1      23.823 -18.839  -0.134  0.00  0.00     0.017 A 
ATOM     29  C   UNL d   1      22.960 -17.921  -0.757  0.00  0.00     0.040 A 
ATOM     30  C   UNL d   1      23.472 -16.710  -1.274  0.00  0.00     0.034 A 
BRANCH  29  31
ATOM     31  C   UNL d   1      21.526 -18.305  -0.896  0.00  0.00     0.292 C 
ATOM     32  O   UNL d   1      20.640 -17.505  -1.196  0.00  0.00    -0.259 OA
BRANCH  31  33
ATOM     33  O   UNL d   1      21.344 -19.624  -0.651  0.00  0.00    -0.323 OA
ATOM     34  C   UNL d   1      19.980 -19.997  -0.423  0.00  0.00     0.213 C 
ENDBRANCH  31  33
ENDBRANCH  29  31
ENDBRANCH  22  25
ENDBRANCH  19  21
ENDBRANCH   1  19
TORSDOF 11
ENDMDL
MODEL 4
REMARK VINA RESULT:    -7.463      2.138      7.119
REMARK INTER + INTRA:         -14.066
REMARK INTER:                 -10.745
REMARK INTRA:                  -3.321
REMARK CONF_INDEPENDENT:        3.281
REMARK UNBOUND:                -3.321
REMARK  11 active torsions:
REMARK  status: ('A' for Active; 'I' for Inactive)
REMARK    1  A    between atoms: C_3  and  C_2 
REMARK    2  A    between atoms: C_3  and  C_5 
REMARK    3  A    between atoms: C_8  and  O_9 
REMARK    4  A    between atoms: O_9  and  C_10 
REMARK    5  A    between atoms: C_10  and  C_11 
REMARK       I    between atoms: C_11  and  N_13 
REMARK    6  A    between atoms: N_13  and  N_14 
REMARK    7  A    between atoms: N_14  and  C_15 
REMARK    8  A    between atoms: C_15  and  N_17 
REMARK       I    between atoms: N_17  and  C_18 
REMARK    9  A    between atoms: C_18  and  C_20 
REMARK   10  A    between atoms: C_24  and  C_25 
REMARK   11  A    between atoms: C_25  and  O_27 
ROOT
ATOM      1  N   UNL d   1      25.671 -12.333  -4.657  0.00  0.00    -0.273 N 
ATOM      2  H   UNL d   1      24.940 -11.931  -5.243  0.00  0.00     0.189 HD
ENDROOT
BRANCH   1   3
ATOM      3  N   UNL d   1      26.565 -13.256  -5.356  0.00  0.00    -0.266 N 
ATOM      4  C   UNL d   1      27.574 -12.791  -6.195  0.00  0.00     0.260 C 
ATOM      5  O   UNL d   1      27.732 -11.583  -6.377  0.00  0.00    -0.269 OA
ATOM      6  H   UNL d   1      26.393 -14.246  -5.176  0.00  0.00     0.190 HD
BRANCH   4   7
ATOM      7  C   UNL d   1      28.466 -13.887  -6.870  0.00  0.00     0.280 C 
BRANCH   7   8
ATOM      8  O   UNL d   1      28.158 -15.197  -6.373  0.00  0.00    -0.342 OA
BRANCH   8   9
ATOM      9  C   UNL d   1      28.840 -15.678  -5.284  0.00  0.00     0.069 A 
ATOM     10  C   UNL d   1      28.275 -15.389  -4.038  0.00  0.00     0.037 A 
ATOM     11  C   UNL d   1      28.923 -15.750  -2.845  0.00  0.00     0.010 A 
ATOM     12  C   UNL d   1      30.115 -16.494  -2.866  0.00  0.00    -0.054 A 
ATOM     13  C   UNL d   1      30.653 -16.819  -4.119  0.00  0.00     0.010 A 
ATOM     14  C   UNL d   1      30.026 -16.410  -5.313  0.00  0.00     0.037 A 
BRANCH  12  15
ATOM     15  C   UNL d   1      30.705 -17.107  -1.574  0.00  0.00     0.014 C 
ATOM     16  C   UNL d   1      29.942 -16.640  -0.339  0.00  0.00     0.015 C 
BRANCH  15  17
ATOM     17  C   UNL d   1      30.785 -18.634  -1.847  0.00  0.00     0.004 C 
ATOM     18  C   UNL d   1      31.986 -19.483  -2.242  0.00  0.00     0.006 C 
ENDBRANCH  15  17
ENDBRANCH  12  15
ENDBRANCH   8   9
ENDBRANCH   7   8
ENDBRANCH   4   7
ENDBRANCH   1   3
BRANCH   1  19
ATOM     19  C   UNL d   1      25.890 -12.063  -3.293  0.00  0.00     0.193 C 
ATOM     20  S   UNL d   1      26.277 -10.489  -2.817  0.00  0.00    -0.039 SA
BRANCH  19  21
ATOM     21  N   UNL d   1      25.769 -13.173  -2.418  0.00  0.00    -0.298 N 
ATOM     22  C   UNL d   1      25.231 -14.442  -2.746  0.00  0.00     0.257 C 
ATOM     23  O   UNL d   1      24.781 -14.753  -3.847  0.00  0.00    -0.267 OA
ATOM     24  H   UNL d   1      26.143 -13.073  -1.485  0.00  0.00     0.171 HD
BRANCH  22  25
ATOM     25  C   UNL d   1      25.151 -15.538  -1.729  0.00  0.00     0.033 A 
ATOM     26  C   UNL d   1      26.340 -15.897  -1.055  0.00  0.00     0.017 A 
ATOM     27  C   UNL d   1      26.411 -17.064  -0.287  0.00  0.00     0.002 A 
ATOM     28  C   UNL d   1      25.276 -17.858  -0.138  0.00  0.00     0.017 A 
ATOM     29  C   UNL d   1      24.086 -17.524  -0.808  0.00  0.00     0.040 A 
ATOM     30  C   UNL d   1      24.029 -16.362  -1.609  0.00  0.00     0.034 A 
BRANCH  29  31
ATOM     31  C   UNL d   1      22.935 -18.464  -0.683  0.00  0.00     0.292 C 
ATOM     32  O   UNL d   1      23.068 -19.684  -0.593  0.00  0.00    -0.259 OA
BRANCH  31  33
ATOM     33  O   UNL d   1      21.755 -17.800  -0.687  0.00  0.00    -0.323 OA
ATOM     34  C   UNL d   1      20.611 -18.634  -0.903  0.00  0.00     0.213 C 
ENDBRANCH  31  33
ENDBRANCH  29  31
ENDBRANCH  22  25
ENDBRANCH  19  21
ENDBRANCH   1  19
TORSDOF 11
ENDMDL
MODEL 5
REMARK VINA RESULT:    -7.103      2.218      7.166
REMARK INTER + INTRA:         -13.516
REMARK INTER:                 -10.384
REMARK INTRA:                  -3.132
REMARK CONF_INDEPENDENT:        3.281
REMARK UNBOUND:                -3.132
REMARK  11 active torsions:
REMARK  status: ('A' for Active; 'I' for Inactive)
REMARK    1  A    between atoms: C_3  and  C_2 
REMARK    2  A    between atoms: C_3  and  C_5 
REMARK    3  A    between atoms: C_8  and  O_9 
REMARK    4  A    between atoms: O_9  and  C_10 
REMARK    5  A    between atoms: C_10  and  C_11 
REMARK       I    between atoms: C_11  and  N_13 
REMARK    6  A    between atoms: N_13  and  N_14 
REMARK    7  A    between atoms: N_14  and  C_15 
REMARK    8  A    between atoms: C_15  and  N_17 
REMARK       I    between atoms: N_17  and  C_18 
REMARK    9  A    between atoms: C_18  and  C_20 
REMARK   10  A    between atoms: C_24  and  C_25 
REMARK   11  A    between atoms: C_25  and  O_27 
ROOT
ATOM      1  N   UNL d   1      26.448 -13.184  -3.936  0.00  0.00    -0.273 N 
ATOM      2  H   UNL d   1      25.563 -13.148  -4.440  0.00  0.00     0.189 HD
ENDROOT
BRANCH   1   3
ATOM      3  N   UNL d   1      27.621 -13.382  -4.788  0.00  0.00    -0.266 N 
ATOM      4  C   UNL d   1      27.702 -14.458  -5.669  0.00  0.00     0.260 C 
ATOM      5  O   UNL d   1      26.785 -15.277  -5.745  0.00  0.00    -0.269 OA
ATOM      6  H   UNL d   1      28.354 -12.680  -4.686  0.00  0.00     0.190 HD
BRANCH   4   7
ATOM      7  C   UNL d   1      29.007 -14.542  -6.529  0.00  0.00     0.280 C 
BRANCH   7   8
ATOM      8  O   UNL d   1      30.081 -15.155  -5.802  0.00  0.00    -0.342 OA
BRANCH   8   9
ATOM      9  C   UNL d   1      29.916 -15.427  -4.468  0.00  0.00     0.069 A 
ATOM     10  C   UNL d   1      30.409 -14.461  -3.585  0.00  0.00     0.037 A 
ATOM     11  C   UNL d   1      30.379 -14.663  -2.196  0.00  0.00     0.010 A 
ATOM     12  C   UNL d   1      29.770 -15.802  -1.644  0.00  0.00    -0.054 A 
ATOM     13  C   UNL d   1      29.237 -16.747  -2.533  0.00  0.00     0.010 A 
ATOM     14  C   UNL d   1      29.315 -16.564  -3.928  0.00  0.00     0.037 A 
BRANCH  12  15
ATOM     15  C   UNL d   1      29.511 -15.920  -0.123  0.00  0.00     0.014 C 
ATOM     16  C   UNL d   1      30.772 -15.623   0.680  0.00  0.00     0.015 C 
BRANCH  15  17
ATOM     17  C   UNL d   1      28.254 -15.048   0.146  0.00  0.00     0.004 C 
ATOM     18  C   UNL d   1      27.840 -14.314   1.414  0.00  0.00     0.006 C 
ENDBRANCH  15  17
ENDBRANCH  12  15
ENDBRANCH   8   9
ENDBRANCH   7   8
ENDBRANCH   4   7
ENDBRANCH   1   3
BRANCH   1  19
ATOM     19  C   UNL d   1      26.624 -13.040  -2.546  0.00  0.00     0.193 C 
ATOM     20  S   UNL d   1      27.417 -11.672  -1.953  0.00  0.00    -0.039 SA
BRANCH  19  21
ATOM     21  N   UNL d   1      26.109 -14.095  -1.748  0.00  0.00    -0.298 N 
ATOM     22  C   UNL d   1      25.419 -15.239  -2.219  0.00  0.00     0.257 C 
ATOM     23  O   UNL d   1      25.161 -15.472  -3.398  0.00  0.00    -0.267 OA
ATOM     24  H   UNL d   1      26.289 -14.057  -0.755  0.00  0.00     0.171 HD
BRANCH  22  25
ATOM     25  C   UNL d   1      24.917 -16.286  -1.273  0.00  0.00     0.033 A 
ATOM     26  C   UNL d   1      25.874 -17.030  -0.547  0.00  0.00     0.017 A 
ATOM     27  C   UNL d   1      25.511 -18.183   0.156  0.00  0.00     0.002 A 
ATOM     28  C   UNL d   1      24.175 -18.576   0.187  0.00  0.00     0.017 A 
ATOM     29  C   UNL d   1      23.208 -17.856  -0.536  0.00  0.00     0.040 A 
ATOM     30  C   UNL d   1      23.585 -16.710  -1.272  0.00  0.00     0.034 A 
BRANCH  29  31
ATOM     31  C   UNL d   1      21.813 -18.382  -0.539  0.00  0.00     0.292 C 
ATOM     32  O   UNL d   1      20.842 -17.715  -0.895  0.00  0.00    -0.259 OA
BRANCH  31  33
ATOM     33  O   UNL d   1      21.769 -19.663  -0.104  0.00  0.00    -0.323 OA
ATOM     34  C   UNL d   1      20.460 -20.119   0.253  0.00  0.00     0.213 C 
ENDBRANCH  31  33
ENDBRANCH  29  31
ENDBRANCH  22  25
ENDBRANCH  19  21
ENDBRANCH   1  19
TORSDOF 11
ENDMDL
MODEL 6
REMARK VINA RESULT:    -7.082      2.821      7.178
REMARK INTER + INTRA:         -13.948
REMARK INTER:                 -10.364
REMARK INTRA:                  -3.584
REMARK CONF_INDEPENDENT:        3.281
REMARK UNBOUND:                -3.584
REMARK  11 active torsions:
REMARK  status: ('A' for Active; 'I' for Inactive)
REMARK    1  A    between atoms: C_3  and  C_2 
REMARK    2  A    between atoms: C_3  and  C_5 
REMARK    3  A    between atoms: C_8  and  O_9 
REMARK    4  A    between atoms: O_9  and  C_10 
REMARK    5  A    between atoms: C_10  and  C_11 
REMARK       I    between atoms: C_11  and  N_13 
REMARK    6  A    between atoms: N_13  and  N_14 
REMARK    7  A    between atoms: N_14  and  C_15 
REMARK    8  A    between atoms: C_15  and  N_17 
REMARK       I    between atoms: N_17  and  C_18 
REMARK    9  A    between atoms: C_18  and  C_20 
REMARK   10  A    between atoms: C_24  and  C_25 
REMARK   11  A    between atoms: C_25  and  O_27 
ROOT
ATOM      1  N   UNL d   1      25.307 -13.597  -4.687  0.00  0.00    -0.273 N 
ATOM      2  H   UNL d   1      24.518 -13.435  -5.312  0.00  0.00     0.189 HD
ENDROOT
BRANCH   1   3
ATOM      3  N   UNL d   1      25.693 -12.433  -3.889  0.00  0.00    -0.266 N 
ATOM      4  C   UNL d   1      25.905 -11.189  -4.479  0.00  0.00     0.260 C 
ATOM      5  O   UNL d   1      25.780 -11.041  -5.695  0.00  0.00    -0.269 OA
ATOM      6  H   UNL d   1      25.788 -12.606  -2.888  0.00  0.00     0.190 HD
BRANCH   4   7
ATOM      7  C   UNL d   1      26.303 -10.028  -3.506  0.00  0.00     0.280 C 
BRANCH   7   8
ATOM      8  O   UNL d   1      27.591 -10.251  -2.916  0.00  0.00    -0.342 OA
BRANCH   8   9
ATOM      9  C   UNL d   1      27.788 -11.363  -2.138  0.00  0.00     0.069 A 
ATOM     10  C   UNL d   1      28.566 -12.374  -2.709  0.00  0.00     0.037 A 
ATOM     11  C   UNL d   1      28.768 -13.597  -2.048  0.00  0.00     0.010 A 
ATOM     12  C   UNL d   1      28.270 -13.809  -0.751  0.00  0.00    -0.054 A 
ATOM     13  C   UNL d   1      27.527 -12.773  -0.165  0.00  0.00     0.010 A 
ATOM     14  C   UNL d   1      27.284 -11.567  -0.854  0.00  0.00     0.037 A 
BRANCH  12  15
ATOM     15  C   UNL d   1      28.688 -15.043   0.082  0.00  0.00     0.014 C 
ATOM     16  C   UNL d   1      27.813 -15.200   1.320  0.00  0.00     0.015 C 
BRANCH  15  17
ATOM     17  C   UNL d   1      28.737 -16.220  -0.930  0.00  0.00     0.004 C 
ATOM     18  C   UNL d   1      29.452 -17.560  -0.820  0.00  0.00     0.006 C 
ENDBRANCH  15  17
ENDBRANCH  12  15
ENDBRANCH   8   9
ENDBRANCH   7   8
ENDBRANCH   4   7
ENDBRANCH   1   3
BRANCH   1  19
ATOM     19  C   UNL d   1      26.007 -14.807  -4.522  0.00  0.00     0.193 C 
ATOM     20  S   UNL d   1      27.365 -15.110  -5.480  0.00  0.00    -0.039 SA
BRANCH  19  21
ATOM     21  N   UNL d   1      25.487 -15.691  -3.542  0.00  0.00    -0.298 N 
ATOM     22  C   UNL d   1      25.260 -15.387  -2.177  0.00  0.00     0.257 C 
ATOM     23  O   UNL d   1      25.496 -14.302  -1.648  0.00  0.00    -0.267 OA
ATOM     24  H   UNL d   1      25.204 -16.611  -3.848  0.00  0.00     0.171 HD
BRANCH  22  25
ATOM     25  C   UNL d   1      24.709 -16.411  -1.235  0.00  0.00     0.033 A 
ATOM     26  C   UNL d   1      25.627 -17.151  -0.456  0.00  0.00     0.017 A 
ATOM     27  C   UNL d   1      25.223 -18.289   0.250  0.00  0.00     0.002 A 
ATOM     28  C   UNL d   1      23.884 -18.669   0.232  0.00  0.00     0.017 A 
ATOM     29  C   UNL d   1      22.955 -17.953  -0.543  0.00  0.00     0.040 A 
ATOM     30  C   UNL d   1      23.374 -16.824  -1.282  0.00  0.00     0.034 A 
BRANCH  29  31
ATOM     31  C   UNL d   1      21.556 -18.466  -0.596  0.00  0.00     0.292 C 
ATOM     32  O   UNL d   1      20.618 -17.820  -1.059  0.00  0.00    -0.259 OA
BRANCH  31  33
ATOM     33  O   UNL d   1      21.469 -19.712  -0.072  0.00  0.00    -0.323 OA
ATOM     34  C   UNL d   1      20.284 -19.946   0.697  0.00  0.00     0.213 C 
ENDBRANCH  31  33
ENDBRANCH  29  31
ENDBRANCH  22  25
ENDBRANCH  19  21
ENDBRANCH   1  19
TORSDOF 11
ENDMDL
MODEL 7
REMARK VINA RESULT:    -7.064      2.622      7.209
REMARK INTER + INTRA:         -14.092
REMARK INTER:                 -10.346
REMARK INTRA:                  -3.746
REMARK CONF_INDEPENDENT:        3.281
REMARK UNBOUND:                -3.746
REMARK  11 active torsions:
REMARK  status: ('A' for Active; 'I' for Inactive)
REMARK    1  A    between atoms: C_3  and  C_2 
REMARK    2  A    between atoms: C_3  and  C_5 
REMARK    3  A    between atoms: C_8  and  O_9 
REMARK    4  A    between atoms: O_9  and  C_10 
REMARK    5  A    between atoms: C_10  and  C_11 
REMARK       I    between atoms: C_11  and  N_13 
REMARK    6  A    between atoms: N_13  and  N_14 
REMARK    7  A    between atoms: N_14  and  C_15 
REMARK    8  A    between atoms: C_15  and  N_17 
REMARK       I    between atoms: N_17  and  C_18 
REMARK    9  A    between atoms: C_18  and  C_20 
REMARK   10  A    between atoms: C_24  and  C_25 
REMARK   11  A    between atoms: C_25  and  O_27 
ROOT
ATOM      1  N   UNL d   1      26.345 -14.391  -4.751  0.00  0.00    -0.273 N 
ATOM      2  H   UNL d   1      26.272 -14.268  -5.760  0.00  0.00     0.189 HD
ENDROOT
BRANCH   1   3
ATOM      3  N   UNL d   1      27.524 -15.141  -4.317  0.00  0.00    -0.266 N 
ATOM      4  C   UNL d   1      28.527 -15.497  -5.216  0.00  0.00     0.260 C 
ATOM      5  O   UNL d   1      28.438 -15.195  -6.407  0.00  0.00    -0.269 OA
ATOM      6  H   UNL d   1      27.550 -15.371  -3.323  0.00  0.00     0.190 HD
BRANCH   4   7
ATOM      7  C   UNL d   1      29.737 -16.286  -4.615  0.00  0.00     0.280 C 
BRANCH   7   8
ATOM      8  O   UNL d   1      29.370 -16.987  -3.418  0.00  0.00    -0.342 OA
BRANCH   8   9
ATOM      9  C   UNL d   1      29.302 -16.298  -2.234  0.00  0.00     0.069 A 
ATOM     10  C   UNL d   1      28.968 -17.058  -1.108  0.00  0.00     0.037 A 
ATOM     11  C   UNL d   1      28.782 -16.454   0.146  0.00  0.00     0.010 A 
ATOM     12  C   UNL d   1      29.015 -15.081   0.330  0.00  0.00    -0.054 A 
ATOM     13  C   UNL d   1      29.393 -14.332  -0.794  0.00  0.00     0.010 A 
ATOM     14  C   UNL d   1      29.529 -14.933  -2.061  0.00  0.00     0.037 A 
BRANCH  12  15
ATOM     15  C   UNL d   1      29.054 -14.452   1.743  0.00  0.00     0.014 C 
ATOM     16  C   UNL d   1      30.347 -13.677   1.970  0.00  0.00     0.015 C 
BRANCH  15  17
ATOM     17  C   UNL d   1      27.711 -13.685   1.885  0.00  0.00     0.004 C 
ATOM     18  C   UNL d   1      26.654 -13.383   0.831  0.00  0.00     0.006 C 
ENDBRANCH  15  17
ENDBRANCH  12  15
ENDBRANCH   8   9
ENDBRANCH   7   8
ENDBRANCH   4   7
ENDBRANCH   1   3
BRANCH   1  19
ATOM     19  C   UNL d   1      25.449 -13.898  -3.783  0.00  0.00     0.193 C 
ATOM     20  S   UNL d   1      25.190 -12.232  -3.674  0.00  0.00    -0.039 SA
BRANCH  19  21
ATOM     21  N   UNL d   1      24.833 -14.875  -2.959  0.00  0.00    -0.298 N 
ATOM     22  C   UNL d   1      25.423 -15.520  -1.843  0.00  0.00     0.257 C 
ATOM     23  O   UNL d   1      26.568 -15.324  -1.440  0.00  0.00    -0.267 OA
ATOM     24  H   UNL d   1      23.868 -15.102  -3.149  0.00  0.00     0.171 HD
BRANCH  22  25
ATOM     25  C   UNL d   1      24.670 -16.543  -1.052  0.00  0.00     0.033 A 
ATOM     26  C   UNL d   1      25.416 -17.438  -0.253  0.00  0.00     0.017 A 
ATOM     27  C   UNL d   1      24.822 -18.572   0.310  0.00  0.00     0.002 A 
ATOM     28  C   UNL d   1      23.459 -18.795   0.128  0.00  0.00     0.017 A 
ATOM     29  C   UNL d   1      22.700 -17.923  -0.671  0.00  0.00     0.040 A 
ATOM     30  C   UNL d   1      23.312 -16.797  -1.265  0.00  0.00     0.034 A 
BRANCH  29  31
ATOM     31  C   UNL d   1      21.268 -18.269  -0.904  0.00  0.00     0.292 C 
ATOM     32  O   UNL d   1      20.428 -17.448  -1.270  0.00  0.00    -0.259 OA
BRANCH  31  33
ATOM     33  O   UNL d   1      21.033 -19.579  -0.660  0.00  0.00    -0.323 OA
ATOM     34  C   UNL d   1      20.382 -19.838   0.589  0.00  0.00     0.213 C 
ENDBRANCH  31  33
ENDBRANCH  29  31
ENDBRANCH  22  25
ENDBRANCH  19  21
ENDBRANCH   1  19
TORSDOF 11
ENDMDL
MODEL 8
REMARK VINA RESULT:    -6.234      1.868      3.314
REMARK INTER + INTRA:         -13.506
REMARK INTER:                  -9.516
REMARK INTRA:                  -3.990
REMARK CONF_INDEPENDENT:        3.281
REMARK UNBOUND:                -3.990
REMARK  11 active torsions:
REMARK  status: ('A' for Active; 'I' for Inactive)
REMARK    1  A    between atoms: C_3  and  C_2 
REMARK    2  A    between atoms: C_3  and  C_5 
REMARK    3  A    between atoms: C_8  and  O_9 
REMARK    4  A    between atoms: O_9  and  C_10 
REMARK    5  A    between atoms: C_10  and  C_11 
REMARK       I    between atoms: C_11  and  N_13 
REMARK    6  A    between atoms: N_13  and  N_14 
REMARK    7  A    between atoms: N_14  and  C_15 
REMARK    8  A    between atoms: C_15  and  N_17 
REMARK       I    between atoms: N_17  and  C_18 
REMARK    9  A    between atoms: C_18  and  C_20 
REMARK   10  A    between atoms: C_24  and  C_25 
REMARK   11  A    between atoms: C_25  and  O_27 
ROOT
ATOM      1  N   UNL d   1      27.420 -11.991  -6.953  0.00  0.00    -0.273 N 
ATOM      2  H   UNL d   1      26.931 -11.216  -7.402  0.00  0.00     0.189 HD
ENDROOT
BRANCH   1   3
ATOM      3  N   UNL d   1      26.961 -12.290  -5.597  0.00  0.00    -0.266 N 
ATOM      4  C   UNL d   1      26.006 -11.499  -4.964  0.00  0.00     0.260 C 
ATOM      5  O   UNL d   1      25.529 -10.515  -5.532  0.00  0.00    -0.269 OA
ATOM      6  H   UNL d   1      27.388 -13.112  -5.167  0.00  0.00     0.190 HD
BRANCH   4   7
ATOM      7  C   UNL d   1      25.598 -11.940  -3.518  0.00  0.00     0.280 C 
BRANCH   7   8
ATOM      8  O   UNL d   1      26.547 -12.859  -2.959  0.00  0.00    -0.342 OA
BRANCH   8   9
ATOM      9  C   UNL d   1      26.113 -14.083  -2.517  0.00  0.00     0.069 A 
ATOM     10  C   UNL d   1      26.286 -14.333  -1.152  0.00  0.00     0.037 A 
ATOM     11  C   UNL d   1      25.962 -15.580  -0.595  0.00  0.00     0.010 A 
ATOM     12  C   UNL d   1      25.369 -16.588  -1.373  0.00  0.00    -0.054 A 
ATOM     13  C   UNL d   1      25.157 -16.316  -2.732  0.00  0.00     0.010 A 
ATOM     14  C   UNL d   1      25.531 -15.081  -3.298  0.00  0.00     0.037 A 
BRANCH  12  15
ATOM     15  C   UNL d   1      24.785 -17.867  -0.727  0.00  0.00     0.014 C 
ATOM     16  C   UNL d   1      25.474 -18.186   0.594  0.00  0.00     0.015 C 
BRANCH  15  17
ATOM     17  C   UNL d   1      23.247 -17.651  -0.714  0.00  0.00     0.004 C 
ATOM     18  C   UNL d   1      22.146 -18.572  -0.203  0.00  0.00     0.006 C 
ENDBRANCH  15  17
ENDBRANCH  12  15
ENDBRANCH   8   9
ENDBRANCH   7   8
ENDBRANCH   4   7
ENDBRANCH   1   3
BRANCH   1  19
ATOM     19  C   UNL d   1      28.442 -12.773  -7.523  0.00  0.00     0.193 C 
ATOM     20  S   UNL d   1      28.817 -12.575  -9.158  0.00  0.00    -0.039 SA
BRANCH  19  21
ATOM     21  N   UNL d   1      29.077 -13.690  -6.646  0.00  0.00    -0.298 N 
ATOM     22  C   UNL d   1      28.465 -14.799  -6.009  0.00  0.00     0.257 C 
ATOM     23  O   UNL d   1      27.283 -15.115  -6.126  0.00  0.00    -0.267 OA
ATOM     24  H   UNL d   1      30.069 -13.577  -6.493  0.00  0.00     0.171 HD
BRANCH  22  25
ATOM     25  C   UNL d   1      29.243 -15.695  -5.097  0.00  0.00     0.033 A 
ATOM     26  C   UNL d   1      30.051 -16.694  -5.685  0.00  0.00     0.017 A 
ATOM     27  C   UNL d   1      30.602 -17.724  -4.916  0.00  0.00     0.002 A 
ATOM     28  C   UNL d   1      30.399 -17.736  -3.539  0.00  0.00     0.017 A 
ATOM     29  C   UNL d   1      29.591 -16.758  -2.934  0.00  0.00     0.040 A 
ATOM     30  C   UNL d   1      29.009 -15.738  -3.719  0.00  0.00     0.034 A 
BRANCH  29  31
ATOM     31  C   UNL d   1      29.335 -16.881  -1.470  0.00  0.00     0.292 C 
ATOM     32  O   UNL d   1      28.338 -17.430  -1.003  0.00  0.00    -0.259 OA
BRANCH  31  33
ATOM     33  O   UNL d   1      30.331 -16.315  -0.747  0.00  0.00    -0.323 OA
ATOM     34  C   UNL d   1      30.064 -14.971  -0.329  0.00  0.00     0.213 C 
ENDBRANCH  31  33
ENDBRANCH  29  31
ENDBRANCH  22  25
ENDBRANCH  19  21
ENDBRANCH   1  19
TORSDOF 11
ENDMDL
MODEL 9
REMARK VINA RESULT:    -5.647      3.694      6.023
REMARK INTER + INTRA:         -13.444
REMARK INTER:                  -8.928
REMARK INTRA:                  -4.515
REMARK CONF_INDEPENDENT:        3.281
REMARK UNBOUND:                -4.515
REMARK  11 active torsions:
REMARK  status: ('A' for Active; 'I' for Inactive)
REMARK    1  A    between atoms: C_3  and  C_2 
REMARK    2  A    between atoms: C_3  and  C_5 
REMARK    3  A    between atoms: C_8  and  O_9 
REMARK    4  A    between atoms: O_9  and  C_10 
REMARK    5  A    between atoms: C_10  and  C_11 
REMARK       I    between atoms: C_11  and  N_13 
REMARK    6  A    between atoms: N_13  and  N_14 
REMARK    7  A    between atoms: N_14  and  C_15 
REMARK    8  A    between atoms: C_15  and  N_17 
REMARK       I    between atoms: N_17  and  C_18 
REMARK    9  A    between atoms: C_18  and  C_20 
REMARK   10  A    between atoms: C_24  and  C_25 
REMARK   11  A    between atoms: C_25  and  O_27 
ROOT
ATOM      1  N   UNL d   1      25.423  -8.233  -2.013  0.00  0.00    -0.273 N 
ATOM      2  H   UNL d   1      24.795  -7.550  -1.591  0.00  0.00     0.189 HD
ENDROOT
BRANCH   1   3
ATOM      3  N   UNL d   1      26.278  -8.939  -1.059  0.00  0.00    -0.266 N 
ATOM      4  C   UNL d   1      26.079  -8.824   0.315  0.00  0.00     0.260 C 
ATOM      5  O   UNL d   1      25.177  -8.113   0.761  0.00  0.00    -0.269 OA
ATOM      6  H   UNL d   1      27.012  -9.512  -1.476  0.00  0.00     0.190 HD
BRANCH   4   7
ATOM      7  C   UNL d   1      27.059  -9.642   1.221  0.00  0.00     0.280 C 
BRANCH   7   8
ATOM      8  O   UNL d   1      28.058 -10.318   0.444  0.00  0.00    -0.342 OA
BRANCH   8   9
ATOM      9  C   UNL d   1      27.861 -11.629   0.094  0.00  0.00     0.069 A 
ATOM     10  C   UNL d   1      26.885 -12.314   0.826  0.00  0.00     0.037 A 
ATOM     11  C   UNL d   1      26.652 -13.683   0.623  0.00  0.00     0.010 A 
ATOM     12  C   UNL d   1      27.327 -14.390  -0.387  0.00  0.00    -0.054 A 
ATOM     13  C   UNL d   1      28.273 -13.687  -1.148  0.00  0.00     0.010 A 
ATOM     14  C   UNL d   1      28.540 -12.325  -0.905  0.00  0.00     0.037 A 
BRANCH  12  15
ATOM     15  C   UNL d   1      26.907 -15.825  -0.785  0.00  0.00     0.014 C 
ATOM     16  C   UNL d   1      27.795 -16.868  -0.117  0.00  0.00     0.015 C 
BRANCH  15  17
ATOM     17  C   UNL d   1      25.378 -15.891  -0.520  0.00  0.00     0.004 C 
ATOM     18  C   UNL d   1      24.308 -16.704  -1.236  0.00  0.00     0.006 C 
ENDBRANCH  15  17
ENDBRANCH  12  15
ENDBRANCH   8   9
ENDBRANCH   7   8
ENDBRANCH   4   7
ENDBRANCH   1   3
BRANCH   1  19
ATOM     19  C   UNL d   1      25.511  -8.551  -3.382  0.00  0.00     0.193 C 
ATOM     20  S   UNL d   1      25.668  -7.303  -4.509  0.00  0.00    -0.039 SA
BRANCH  19  21
ATOM     21  N   UNL d   1      25.450  -9.933  -3.699  0.00  0.00    -0.298 N 
ATOM     22  C   UNL d   1      26.496 -10.876  -3.534  0.00  0.00     0.257 C 
ATOM     23  O   UNL d   1      27.615 -10.617  -3.097  0.00  0.00    -0.267 OA
ATOM     24  H   UNL d   1      24.568 -10.297  -4.028  0.00  0.00     0.171 HD
BRANCH  22  25
ATOM     25  C   UNL d   1      26.311 -12.312  -3.911  0.00  0.00     0.033 A 
ATOM     26  C   UNL d   1      25.155 -12.974  -3.439  0.00  0.00     0.017 A 
ATOM     27  C   UNL d   1      25.031 -14.364  -3.527  0.00  0.00     0.002 A 
ATOM     28  C   UNL d   1      26.038 -15.106  -4.139  0.00  0.00     0.017 A 
ATOM     29  C   UNL d   1      27.201 -14.469  -4.607  0.00  0.00     0.040 A 
ATOM     30  C   UNL d   1      27.337 -13.068  -4.486  0.00  0.00     0.034 A 
BRANCH  29  31
ATOM     31  C   UNL d   1      28.283 -15.330  -5.166  0.00  0.00     0.292 C 
ATOM     32  O   UNL d   1      29.059 -15.978  -4.466  0.00  0.00    -0.259 OA
BRANCH  31  33
ATOM     33  O   UNL d   1      28.288 -15.295  -6.520  0.00  0.00    -0.323 OA
ATOM     34  C   UNL d   1      28.918 -14.135  -7.076  0.00  0.00     0.213 C 
ENDBRANCH  31  33
ENDBRANCH  29  31
ENDBRANCH  22  25
ENDBRANCH  19  21
ENDBRANCH   1  19
TORSDOF 11
ENDMDL
