MODEL 1
REMARK VINA RESULT:   -10.505      0.000      0.000
REMARK INTER + INTRA:         -15.777
REMARK INTER:                 -13.786
REMARK INTRA:                  -1.991
REMARK CONF_INDEPENDENT:        3.281
REMARK UNBOUND:                -1.991
REMARK  11 active torsions:
REMARK  status: ('A' for Active; 'I' for Inactive)
REMARK    1  A    between atoms: C_5  and  C_6 
REMARK    2  A    between atoms: C_9  and  O_10 
REMARK    3  A    between atoms: O_10  and  C_11 
REMARK    4  A    between atoms: C_11  and  C_12 
REMARK    5  A    between atoms: C_12  and  O_13 
REMARK    6  A    between atoms: O_13  and  C_14 
REMARK    7  A    between atoms: C_19  and  C_20 
REMARK    8  A    between atoms: N_21  and  N_22 
REMARK    9  A    between atoms: N_22  and  C_23 
REMARK   10  A    between atoms: C_25  and  N_26 
REMARK   11  A    between atoms: C_32  and  N_33 
ROOT
ATOM      1  C   UNL d   1      29.328 -15.761  -5.029  0.00  0.00     0.080 A 
ATOM      2  C   UNL d   1      29.656 -15.599  -6.391  0.00  0.00     0.037 A 
ATOM      3  C   UNL d   1      30.635 -16.390  -6.997  0.00  0.00     0.003 A 
ATOM      4  C   UNL d   1      31.297 -17.354  -6.247  0.00  0.00     0.001 A 
ATOM      5  C   UNL d   1      30.971 -17.534  -4.900  0.00  0.00     0.016 A 
ATOM      6  C   UNL d   1      29.977 -16.760  -4.278  0.00  0.00     0.016 A 
ENDROOT
BRANCH   6   7
ATOM      7  C   UNL d   1      29.611 -17.118  -2.878  0.00  0.00     0.153 C 
ATOM      8  N   UNL d   1      30.446 -17.706  -2.066  0.00  0.00    -0.171 NA
BRANCH   8   9
ATOM      9  N   UNL d   1      29.984 -17.953  -0.798  0.00  0.00    -0.105 N 
ATOM     10  H   UNL d   1      30.545 -18.372  -0.070  0.00  0.00     0.208 HD
BRANCH   9  11
ATOM     11  C   UNL d   1      28.867 -17.232  -0.301  0.00  0.00     0.774 A 
ATOM     12  N   UNL d   1      27.650 -17.580  -0.714  0.00  0.00     0.133 NA
ATOM     13  C   UNL d   1      26.626 -16.897  -0.211  0.00  0.00     0.756 A 
ATOM     14  N   UNL d   1      26.784 -15.906   0.674  0.00  0.00     0.131 NA
ATOM     15  C   UNL d   1      28.025 -15.614   1.056  0.00  0.00     0.756 A 
ATOM     16  N   UNL d   1      29.100 -16.268   0.603  0.00  0.00     0.133 NA
BRANCH  13  17
ATOM     17  N   UNL d   1      25.356 -17.237  -0.586  0.00  0.00    -0.213 N 
ATOM     18  C   UNL d   1      24.426 -16.328  -1.221  0.00  0.00     0.141 C 
ATOM     19  C   UNL d   1      23.090 -16.652  -0.560  0.00  0.00     0.022 C 
ATOM     20  C   UNL d   1      23.188 -18.152  -0.308  0.00  0.00     0.022 C 
ATOM     21  C   UNL d   1      24.688 -18.421  -0.075  0.00  0.00     0.141 C 
ENDBRANCH  13  17
BRANCH  15  22
ATOM     22  N   UNL d   1      28.202 -14.584   1.949  0.00  0.00    -0.213 N 
ATOM     23  C   UNL d   1      29.444 -14.298   2.630  0.00  0.00     0.141 C 
ATOM     24  C   UNL d   1      28.975 -13.819   4.000  0.00  0.00     0.022 C 
ATOM     25  C   UNL d   1      27.706 -13.036   3.671  0.00  0.00     0.022 C 
ATOM     26  C   UNL d   1      27.126 -13.728   2.418  0.00  0.00     0.141 C 
ENDBRANCH  15  22
ENDBRANCH   9  11
ENDBRANCH   8   9
ENDBRANCH   6   7
BRANCH   1  27
ATOM     27  O   UNL d   1      28.288 -14.976  -4.605  0.00  0.00    -0.348 OA
BRANCH  27  28
ATOM     28  C   UNL d   1      27.185 -14.846  -5.504  0.00  0.00     0.202 C 
BRANCH  28  29
ATOM     29  C   UNL d   1      25.955 -15.468  -4.844  0.00  0.00     0.202 C 
BRANCH  29  30
ATOM     30  O   UNL d   1      25.154 -14.403  -4.355  0.00  0.00    -0.348 OA
BRANCH  30  31
ATOM     31  C   UNL d   1      25.633 -13.131  -4.307  0.00  0.00     0.076 A 
ATOM     32  C   UNL d   1      26.258 -12.707  -3.113  0.00  0.00    -0.021 A 
ATOM     33  C   UNL d   1      26.782 -11.396  -3.072  0.00  0.00     0.011 A 
ATOM     34  C   UNL d   1      26.673 -10.535  -4.166  0.00  0.00     0.007 A 
ATOM     35  C   UNL d   1      26.047 -10.968  -5.333  0.00  0.00    -0.059 A 
ATOM     36  C   UNL d   1      25.926 -10.093  -6.541  0.00  0.00     0.048 C 
ATOM     37  C   UNL d   1      25.530 -12.263  -5.392  0.00  0.00     0.044 A 
BRANCH  32  38
ATOM     38  C   UNL d   1      26.422 -13.579  -1.861  0.00  0.00     0.013 C 
ATOM     39  C   UNL d   1      27.570 -14.585  -2.031  0.00  0.00     0.015 C 
ATOM     40  C   UNL d   1      26.655 -12.828  -0.545  0.00  0.00     0.015 C 
ENDBRANCH  32  38
ENDBRANCH  30  31
ENDBRANCH  29  30
ENDBRANCH  28  29
ENDBRANCH  27  28
ENDBRANCH   1  27
TORSDOF 11
ENDMDL
MODEL 2
REMARK VINA RESULT:   -10.391      0.314      3.516
REMARK INTER + INTRA:         -16.087
REMARK INTER:                 -13.672
REMARK INTRA:                  -2.415
REMARK CONF_INDEPENDENT:        3.281
REMARK UNBOUND:                -2.415
REMARK  11 active torsions:
REMARK  status: ('A' for Active; 'I' for Inactive)
REMARK    1  A    between atoms: C_5  and  C_6 
REMARK    2  A    between atoms: C_9  and  O_10 
REMARK    3  A    between atoms: O_10  and  C_11 
REMARK    4  A    between atoms: C_11  and  C_12 
REMARK    5  A    between atoms: C_12  and  O_13 
REMARK    6  A    between atoms: O_13  and  C_14 
REMARK    7  A    between atoms: C_19  and  C_20 
REMARK    8  A    between atoms: N_21  and  N_22 
REMARK    9  A    between atoms: N_22  and  C_23 
REMARK   10  A    between atoms: C_25  and  N_26 
REMARK   11  A    between atoms: C_32  and  N_33 
ROOT
ATOM      1  C   UNL d   1      29.274 -15.730  -4.935  0.00  0.00     0.080 A 
ATOM      2  C   UNL d   1      29.597 -15.548  -6.296  0.00  0.00     0.037 A 
ATOM      3  C   UNL d   1      30.613 -16.291  -6.902  0.00  0.00     0.003 A 
ATOM      4  C   UNL d   1      31.319 -17.224  -6.153  0.00  0.00     0.001 A 
ATOM      5  C   UNL d   1      30.999 -17.423  -4.806  0.00  0.00     0.016 A 
ATOM      6  C   UNL d   1      29.969 -16.698  -4.185  0.00  0.00     0.016 A 
ENDROOT
BRANCH   6   7
ATOM      7  C   UNL d   1      29.618 -17.077  -2.786  0.00  0.00     0.153 C 
ATOM      8  N   UNL d   1      30.387 -17.835  -2.054  0.00  0.00    -0.171 NA
BRANCH   8   9
ATOM      9  N   UNL d   1      29.952 -18.080  -0.776  0.00  0.00    -0.105 N 
ATOM     10  H   UNL d   1      30.516 -18.536  -0.071  0.00  0.00     0.208 HD
BRANCH   9  11
ATOM     11  C   UNL d   1      28.885 -17.318  -0.234  0.00  0.00     0.774 A 
ATOM     12  N   UNL d   1      29.174 -16.326   0.605  0.00  0.00     0.133 NA
ATOM     13  C   UNL d   1      28.150 -15.620   1.075  0.00  0.00     0.756 A 
ATOM     14  N   UNL d   1      26.881 -15.871   0.734  0.00  0.00     0.131 NA
ATOM     15  C   UNL d   1      26.659 -16.871  -0.116  0.00  0.00     0.756 A 
ATOM     16  N   UNL d   1      27.641 -17.613  -0.641  0.00  0.00     0.133 NA
BRANCH  13  17
ATOM     17  N   UNL d   1      28.401 -14.572   1.918  0.00  0.00    -0.213 N 
ATOM     18  C   UNL d   1      29.726 -14.083   2.234  0.00  0.00     0.141 C 
ATOM     19  C   UNL d   1      29.657 -13.779   3.726  0.00  0.00     0.022 C 
ATOM     20  C   UNL d   1      28.219 -13.307   3.914  0.00  0.00     0.022 C 
ATOM     21  C   UNL d   1      27.406 -14.074   2.851  0.00  0.00     0.141 C 
ENDBRANCH  13  17
BRANCH  15  22
ATOM     22  N   UNL d   1      25.358 -17.153  -0.458  0.00  0.00    -0.213 N 
ATOM     23  C   UNL d   1      24.530 -16.307  -1.287  0.00  0.00     0.141 C 
ATOM     24  C   UNL d   1      23.147 -16.476  -0.664  0.00  0.00     0.022 C 
ATOM     25  C   UNL d   1      23.136 -17.946  -0.253  0.00  0.00     0.022 C 
ATOM     26  C   UNL d   1      24.609 -18.278   0.075  0.00  0.00     0.141 C 
ENDBRANCH  15  22
ENDBRANCH   9  11
ENDBRANCH   8   9
ENDBRANCH   6   7
BRANCH   1  27
ATOM     27  O   UNL d   1      28.198 -14.996  -4.511  0.00  0.00    -0.348 OA
BRANCH  27  28
ATOM     28  C   UNL d   1      27.034 -15.040  -5.339  0.00  0.00     0.202 C 
BRANCH  28  29
ATOM     29  C   UNL d   1      25.872 -15.575  -4.504  0.00  0.00     0.202 C 
BRANCH  29  30
ATOM     30  O   UNL d   1      25.177 -14.453  -3.980  0.00  0.00    -0.348 OA
BRANCH  30  31
ATOM     31  C   UNL d   1      25.724 -13.208  -4.022  0.00  0.00     0.076 A 
ATOM     32  C   UNL d   1      26.516 -12.800  -2.926  0.00  0.00    -0.021 A 
ATOM     33  C   UNL d   1      27.108 -11.519  -2.982  0.00  0.00     0.011 A 
ATOM     34  C   UNL d   1      26.906 -10.670  -4.072  0.00  0.00     0.007 A 
ATOM     35  C   UNL d   1      26.116 -11.088  -5.141  0.00  0.00    -0.059 A 
ATOM     36  C   UNL d   1      25.889 -10.228  -6.344  0.00  0.00     0.048 C 
ATOM     37  C   UNL d   1      25.530 -12.353  -5.106  0.00  0.00     0.044 A 
BRANCH  32  38
ATOM     38  C   UNL d   1      26.792 -13.659  -1.685  0.00  0.00     0.013 C 
ATOM     39  C   UNL d   1      28.194 -14.283  -1.741  0.00  0.00     0.015 C 
ATOM     40  C   UNL d   1      26.655 -12.949  -0.333  0.00  0.00     0.015 C 
ENDBRANCH  32  38
ENDBRANCH  30  31
ENDBRANCH  29  30
ENDBRANCH  28  29
ENDBRANCH  27  28
ENDBRANCH   1  27
TORSDOF 11
ENDMDL
MODEL 3
REMARK VINA RESULT:    -9.988      2.296      4.514
REMARK INTER + INTRA:         -15.687
REMARK INTER:                 -13.269
REMARK INTRA:                  -2.418
REMARK CONF_INDEPENDENT:        3.281
REMARK UNBOUND:                -2.418
REMARK  11 active torsions:
REMARK  status: ('A' for Active; 'I' for Inactive)
REMARK    1  A    between atoms: C_5  and  C_6 
REMARK    2  A    between atoms: C_9  and  O_10 
REMARK    3  A    between atoms: O_10  and  C_11 
REMARK    4  A    between atoms: C_11  and  C_12 
REMARK    5  A    between atoms: C_12  and  O_13 
REMARK    6  A    between atoms: O_13  and  C_14 
REMARK    7  A    between atoms: C_19  and  C_20 
REMARK    8  A    between atoms: N_21  and  N_22 
REMARK    9  A    between atoms: N_22  and  C_23 
REMARK   10  A    between atoms: C_25  and  N_26 
REMARK   11  A    between atoms: C_32  and  N_33 
ROOT
ATOM      1  C   UNL d   1      29.117 -15.611  -4.887  0.00  0.00     0.080 A 
ATOM      2  C   UNL d   1      29.377 -15.572  -6.272  0.00  0.00     0.037 A 
ATOM      3  C   UNL d   1      30.325 -16.418  -6.852  0.00  0.00     0.003 A 
ATOM      4  C   UNL d   1      31.023 -17.315  -6.053  0.00  0.00     0.001 A 
ATOM      5  C   UNL d   1      30.763 -17.373  -4.680  0.00  0.00     0.016 A 
ATOM      6  C   UNL d   1      29.802 -16.541  -4.082  0.00  0.00     0.016 A 
ENDROOT
BRANCH   6   7
ATOM      7  C   UNL d   1      29.506 -16.772  -2.639  0.00  0.00     0.153 C 
ATOM      8  N   UNL d   1      30.220 -17.573  -1.898  0.00  0.00    -0.171 NA
BRANCH   8   9
ATOM      9  N   UNL d   1      29.849 -17.669  -0.581  0.00  0.00    -0.105 N 
ATOM     10  H   UNL d   1      29.544 -18.530  -0.147  0.00  0.00     0.208 HD
BRANCH   9  11
ATOM     11  C   UNL d   1      30.300 -16.700   0.353  0.00  0.00     0.774 A 
ATOM     12  N   UNL d   1      29.484 -15.700   0.676  0.00  0.00     0.133 NA
ATOM     13  C   UNL d   1      29.932 -14.823   1.569  0.00  0.00     0.756 A 
ATOM     14  N   UNL d   1      31.140 -14.921   2.135  0.00  0.00     0.131 NA
ATOM     15  C   UNL d   1      31.905 -15.950   1.778  0.00  0.00     0.756 A 
ATOM     16  N   UNL d   1      31.514 -16.877   0.897  0.00  0.00     0.133 NA
BRANCH  13  17
ATOM     17  N   UNL d   1      29.116 -13.794   1.952  0.00  0.00    -0.213 N 
ATOM     18  C   UNL d   1      28.171 -13.871   3.046  0.00  0.00     0.141 C 
ATOM     19  C   UNL d   1      26.945 -13.132   2.521  0.00  0.00     0.022 C 
ATOM     20  C   UNL d   1      27.551 -12.041   1.645  0.00  0.00     0.022 C 
ATOM     21  C   UNL d   1      28.857 -12.651   1.095  0.00  0.00     0.141 C 
ENDBRANCH  13  17
BRANCH  15  22
ATOM     22  N   UNL d   1      33.156 -16.051   2.336  0.00  0.00    -0.213 N 
ATOM     23  C   UNL d   1      33.941 -14.925   2.791  0.00  0.00     0.141 C 
ATOM     24  C   UNL d   1      35.366 -15.346   2.446  0.00  0.00     0.022 C 
ATOM     25  C   UNL d   1      35.354 -16.848   2.720  0.00  0.00     0.022 C 
ATOM     26  C   UNL d   1      33.904 -17.293   2.425  0.00  0.00     0.141 C 
ENDBRANCH  15  22
ENDBRANCH   9  11
ENDBRANCH   8   9
ENDBRANCH   6   7
BRANCH   1  27
ATOM     27  O   UNL d   1      28.100 -14.786  -4.484  0.00  0.00    -0.348 OA
BRANCH  27  28
ATOM     28  C   UNL d   1      27.044 -14.576  -5.423  0.00  0.00     0.202 C 
BRANCH  28  29
ATOM     29  C   UNL d   1      25.928 -15.575  -5.121  0.00  0.00     0.202 C 
BRANCH  29  30
ATOM     30  O   UNL d   1      25.183 -15.059  -4.029  0.00  0.00    -0.348 OA
BRANCH  30  31
ATOM     31  C   UNL d   1      25.553 -15.317  -2.745  0.00  0.00     0.076 A 
ATOM     32  C   UNL d   1      26.288 -14.323  -2.060  0.00  0.00    -0.021 A 
ATOM     33  C   UNL d   1      26.647 -14.577  -0.717  0.00  0.00     0.011 A 
ATOM     34  C   UNL d   1      26.307 -15.776  -0.088  0.00  0.00     0.007 A 
ATOM     35  C   UNL d   1      25.588 -16.747  -0.782  0.00  0.00    -0.059 A 
ATOM     36  C   UNL d   1      25.177 -18.038  -0.145  0.00  0.00     0.048 C 
ATOM     37  C   UNL d   1      25.219 -16.509  -2.106  0.00  0.00     0.044 A 
BRANCH  32  38
ATOM     38  C   UNL d   1      26.709 -12.979  -2.668  0.00  0.00     0.013 C 
ATOM     39  C   UNL d   1      25.530 -12.295  -3.374  0.00  0.00     0.015 C 
ATOM     40  C   UNL d   1      27.319 -11.964  -1.696  0.00  0.00     0.015 C 
ENDBRANCH  32  38
ENDBRANCH  30  31
ENDBRANCH  29  30
ENDBRANCH  28  29
ENDBRANCH  27  28
ENDBRANCH   1  27
TORSDOF 11
ENDMDL
MODEL 4
REMARK VINA RESULT:    -9.769      1.611      2.765
REMARK INTER + INTRA:         -15.983
REMARK INTER:                 -13.050
REMARK INTRA:                  -2.932
REMARK CONF_INDEPENDENT:        3.281
REMARK UNBOUND:                -2.932
REMARK  11 active torsions:
REMARK  status: ('A' for Active; 'I' for Inactive)
REMARK    1  A    between atoms: C_5  and  C_6 
REMARK    2  A    between atoms: C_9  and  O_10 
REMARK    3  A    between atoms: O_10  and  C_11 
REMARK    4  A    between atoms: C_11  and  C_12 
REMARK    5  A    between atoms: C_12  and  O_13 
REMARK    6  A    between atoms: O_13  and  C_14 
REMARK    7  A    between atoms: C_19  and  C_20 
REMARK    8  A    between atoms: N_21  and  N_22 
REMARK    9  A    between atoms: N_22  and  C_23 
REMARK   10  A    between atoms: C_25  and  N_26 
REMARK   11  A    between atoms: C_32  and  N_33 
ROOT
ATOM      1  C   UNL d   1      30.815 -17.589  -5.507  0.00  0.00     0.080 A 
ATOM      2  C   UNL d   1      30.753 -18.276  -6.738  0.00  0.00     0.037 A 
ATOM      3  C   UNL d   1      30.753 -19.672  -6.786  0.00  0.00     0.003 A 
ATOM      4  C   UNL d   1      30.814 -20.397  -5.602  0.00  0.00     0.001 A 
ATOM      5  C   UNL d   1      30.862 -19.728  -4.376  0.00  0.00     0.016 A 
ATOM      6  C   UNL d   1      30.846 -18.325  -4.308  0.00  0.00     0.016 A 
ENDROOT
BRANCH   6   7
ATOM      7  C   UNL d   1      30.766 -17.710  -2.951  0.00  0.00     0.153 C 
ATOM      8  N   UNL d   1      30.523 -18.412  -1.879  0.00  0.00    -0.171 NA
BRANCH   8   9
ATOM      9  N   UNL d   1      30.504 -17.720  -0.695  0.00  0.00    -0.105 N 
ATOM     10  H   UNL d   1      31.334 -17.360  -0.244  0.00  0.00     0.208 HD
BRANCH   9  11
ATOM     11  C   UNL d   1      29.313 -17.075  -0.272  0.00  0.00     0.774 A 
ATOM     12  N   UNL d   1      28.147 -17.533  -0.724  0.00  0.00     0.133 NA
ATOM     13  C   UNL d   1      27.051 -16.918  -0.290  0.00  0.00     0.756 A 
ATOM     14  N   UNL d   1      27.090 -15.889   0.565  0.00  0.00     0.131 NA
ATOM     15  C   UNL d   1      28.286 -15.486   0.988  0.00  0.00     0.756 A 
ATOM     16  N   UNL d   1      29.428 -16.066   0.605  0.00  0.00     0.133 NA
BRANCH  13  17
ATOM     17  N   UNL d   1      25.830 -17.372  -0.705  0.00  0.00    -0.213 N 
ATOM     18  C   UNL d   1      25.065 -16.776  -1.781  0.00  0.00     0.141 C 
ATOM     19  C   UNL d   1      23.629 -16.812  -1.270  0.00  0.00     0.022 C 
ATOM     20  C   UNL d   1      23.588 -18.097  -0.452  0.00  0.00     0.022 C 
ATOM     21  C   UNL d   1      25.017 -18.261   0.105  0.00  0.00     0.141 C 
ENDBRANCH  13  17
BRANCH  15  22
ATOM     22  N   UNL d   1      28.340 -14.417   1.850  0.00  0.00    -0.213 N 
ATOM     23  C   UNL d   1      29.042 -14.421   3.113  0.00  0.00     0.141 C 
ATOM     24  C   UNL d   1      28.145 -13.561   3.999  0.00  0.00     0.022 C 
ATOM     25  C   UNL d   1      27.641 -12.490   3.036  0.00  0.00     0.022 C 
ATOM     26  C   UNL d   1      27.593 -13.186   1.658  0.00  0.00     0.141 C 
ENDBRANCH  15  22
ENDBRANCH   9  11
ENDBRANCH   8   9
ENDBRANCH   6   7
BRANCH   1  27
ATOM     27  O   UNL d   1      30.715 -16.227  -5.620  0.00  0.00    -0.348 OA
BRANCH  27  28
ATOM     28  C   UNL d   1      30.224 -15.728  -6.865  0.00  0.00     0.202 C 
BRANCH  28  29
ATOM     29  C   UNL d   1      28.989 -14.874  -6.586  0.00  0.00     0.202 C 
BRANCH  29  30
ATOM     30  O   UNL d   1      28.332 -15.437  -5.460  0.00  0.00    -0.348 OA
BRANCH  30  31
ATOM     31  C   UNL d   1      28.391 -14.835  -4.241  0.00  0.00     0.076 A 
ATOM     32  C   UNL d   1      27.201 -14.271  -3.728  0.00  0.00    -0.021 A 
ATOM     33  C   UNL d   1      27.254 -13.672  -2.450  0.00  0.00     0.011 A 
ATOM     34  C   UNL d   1      28.443 -13.618  -1.720  0.00  0.00     0.007 A 
ATOM     35  C   UNL d   1      29.608 -14.174  -2.246  0.00  0.00    -0.059 A 
ATOM     36  C   UNL d   1      30.902 -14.165  -1.494  0.00  0.00     0.048 C 
ATOM     37  C   UNL d   1      29.572 -14.776  -3.504  0.00  0.00     0.044 A 
BRANCH  32  38
ATOM     38  C   UNL d   1      25.851 -14.279  -4.456  0.00  0.00     0.013 C 
ATOM     39  C   UNL d   1      25.530 -15.672  -5.017  0.00  0.00     0.015 C 
ATOM     40  C   UNL d   1      24.641 -13.822  -3.633  0.00  0.00     0.015 C 
ENDBRANCH  32  38
ENDBRANCH  30  31
ENDBRANCH  29  30
ENDBRANCH  28  29
ENDBRANCH  27  28
ENDBRANCH   1  27
TORSDOF 11
ENDMDL
MODEL 5
REMARK VINA RESULT:    -9.607      1.435      4.374
REMARK INTER + INTRA:         -15.742
REMARK INTER:                 -12.889
REMARK INTRA:                  -2.854
REMARK CONF_INDEPENDENT:        3.281
REMARK UNBOUND:                -2.854
REMARK  11 active torsions:
REMARK  status: ('A' for Active; 'I' for Inactive)
REMARK    1  A    between atoms: C_5  and  C_6 
REMARK    2  A    between atoms: C_9  and  O_10 
REMARK    3  A    between atoms: O_10  and  C_11 
REMARK    4  A    between atoms: C_11  and  C_12 
REMARK    5  A    between atoms: C_12  and  O_13 
REMARK    6  A    between atoms: O_13  and  C_14 
REMARK    7  A    between atoms: C_19  and  C_20 
REMARK    8  A    between atoms: N_21  and  N_22 
REMARK    9  A    between atoms: N_22  and  C_23 
REMARK   10  A    between atoms: C_25  and  N_26 
REMARK   11  A    between atoms: C_32  and  N_33 
ROOT
ATOM      1  C   UNL d   1      30.766 -17.168  -5.570  0.00  0.00     0.080 A 
ATOM      2  C   UNL d   1      30.687 -17.833  -6.811  0.00  0.00     0.037 A 
ATOM      3  C   UNL d   1      30.710 -19.228  -6.885  0.00  0.00     0.003 A 
ATOM      4  C   UNL d   1      30.813 -19.974  -5.717  0.00  0.00     0.001 A 
ATOM      5  C   UNL d   1      30.879 -19.327  -4.480  0.00  0.00     0.016 A 
ATOM      6  C   UNL d   1      30.839 -17.926  -4.385  0.00  0.00     0.016 A 
ENDROOT
BRANCH   6   7
ATOM      7  C   UNL d   1      30.781 -17.338  -3.016  0.00  0.00     0.153 C 
ATOM      8  N   UNL d   1      30.533 -18.057  -1.956  0.00  0.00    -0.171 NA
BRANCH   8   9
ATOM      9  N   UNL d   1      30.537 -17.388  -0.758  0.00  0.00    -0.105 N 
ATOM     10  H   UNL d   1      31.361 -16.962  -0.358  0.00  0.00     0.208 HD
BRANCH   9  11
ATOM     11  C   UNL d   1      29.325 -16.863  -0.239  0.00  0.00     0.774 A 
ATOM     12  N   UNL d   1      29.388 -15.860   0.633  0.00  0.00     0.133 NA
ATOM     13  C   UNL d   1      28.233 -15.379   1.081  0.00  0.00     0.756 A 
ATOM     14  N   UNL d   1      27.048 -15.860   0.686  0.00  0.00     0.131 NA
ATOM     15  C   UNL d   1      27.052 -16.856  -0.196  0.00  0.00     0.756 A 
ATOM     16  N   UNL d   1      28.175 -17.379  -0.700  0.00  0.00     0.133 NA
BRANCH  13  17
ATOM     17  N   UNL d   1      28.248 -14.330   1.958  0.00  0.00    -0.213 N 
ATOM     18  C   UNL d   1      28.559 -14.453   3.367  0.00  0.00     0.141 C 
ATOM     19  C   UNL d   1      27.563 -13.518   4.043  0.00  0.00     0.022 C 
ATOM     20  C   UNL d   1      27.407 -12.390   3.029  0.00  0.00     0.022 C 
ATOM     21  C   UNL d   1      27.616 -13.058   1.655  0.00  0.00     0.141 C 
ENDBRANCH  13  17
BRANCH  15  22
ATOM     22  N   UNL d   1      25.842 -17.373  -0.594  0.00  0.00    -0.213 N 
ATOM     23  C   UNL d   1      24.943 -16.725  -1.521  0.00  0.00     0.141 C 
ATOM     24  C   UNL d   1      23.568 -17.094  -0.970  0.00  0.00     0.022 C 
ATOM     25  C   UNL d   1      23.774 -18.520  -0.468  0.00  0.00     0.022 C 
ATOM     26  C   UNL d   1      25.256 -18.579  -0.035  0.00  0.00     0.141 C 
ENDBRANCH  15  22
ENDBRANCH   9  11
ENDBRANCH   8   9
ENDBRANCH   6   7
BRANCH   1  27
ATOM     27  O   UNL d   1      30.640 -15.806  -5.654  0.00  0.00    -0.348 OA
BRANCH  27  28
ATOM     28  C   UNL d   1      30.018 -15.300  -6.837  0.00  0.00     0.202 C 
BRANCH  28  29
ATOM     29  C   UNL d   1      28.825 -14.440  -6.420  0.00  0.00     0.202 C 
BRANCH  29  30
ATOM     30  O   UNL d   1      28.191 -15.097  -5.333  0.00  0.00    -0.348 OA
BRANCH  30  31
ATOM     31  C   UNL d   1      28.280 -14.604  -4.068  0.00  0.00     0.076 A 
ATOM     32  C   UNL d   1      27.075 -14.315  -3.388  0.00  0.00    -0.021 A 
ATOM     33  C   UNL d   1      27.165 -13.831  -2.065  0.00  0.00     0.011 A 
ATOM     34  C   UNL d   1      28.401 -13.624  -1.448  0.00  0.00     0.007 A 
ATOM     35  C   UNL d   1      29.579 -13.908  -2.137  0.00  0.00    -0.059 A 
ATOM     36  C   UNL d   1      30.926 -13.728  -1.513  0.00  0.00     0.048 C 
ATOM     37  C   UNL d   1      29.507 -14.394  -3.443  0.00  0.00     0.044 A 
BRANCH  32  38
ATOM     38  C   UNL d   1      25.674 -14.507  -3.984  0.00  0.00     0.013 C 
ATOM     39  C   UNL d   1      25.166 -13.213  -4.635  0.00  0.00     0.015 C 
ATOM     40  C   UNL d   1      25.531 -15.632  -5.015  0.00  0.00     0.015 C 
ENDBRANCH  32  38
ENDBRANCH  30  31
ENDBRANCH  29  30
ENDBRANCH  28  29
ENDBRANCH  27  28
ENDBRANCH   1  27
TORSDOF 11
ENDMDL
MODEL 6
REMARK VINA RESULT:    -9.513      1.063      4.162
REMARK INTER + INTRA:         -15.755
REMARK INTER:                 -12.795
REMARK INTRA:                  -2.960
REMARK CONF_INDEPENDENT:        3.281
REMARK UNBOUND:                -2.960
REMARK  11 active torsions:
REMARK  status: ('A' for Active; 'I' for Inactive)
REMARK    1  A    between atoms: C_5  and  C_6 
REMARK    2  A    between atoms: C_9  and  O_10 
REMARK    3  A    between atoms: O_10  and  C_11 
REMARK    4  A    between atoms: C_11  and  C_12 
REMARK    5  A    between atoms: C_12  and  O_13 
REMARK    6  A    between atoms: O_13  and  C_14 
REMARK    7  A    between atoms: C_19  and  C_20 
REMARK    8  A    between atoms: N_21  and  N_22 
REMARK    9  A    between atoms: N_22  and  C_23 
REMARK   10  A    between atoms: C_25  and  N_26 
REMARK   11  A    between atoms: C_32  and  N_33 
ROOT
ATOM      1  C   UNL d   1      28.975 -15.850  -5.131  0.00  0.00     0.080 A 
ATOM      2  C   UNL d   1      29.470 -15.573  -6.422  0.00  0.00     0.037 A 
ATOM      3  C   UNL d   1      30.842 -15.593  -6.688  0.00  0.00     0.003 A 
ATOM      4  C   UNL d   1      31.733 -15.890  -5.665  0.00  0.00     0.001 A 
ATOM      5  C   UNL d   1      31.254 -16.180  -4.385  0.00  0.00     0.016 A 
ATOM      6  C   UNL d   1      29.877 -16.182  -4.103  0.00  0.00     0.016 A 
ENDROOT
BRANCH   6   7
ATOM      7  C   UNL d   1      29.462 -16.633  -2.744  0.00  0.00     0.153 C 
ATOM      8  N   UNL d   1      30.146 -17.505  -2.056  0.00  0.00    -0.171 NA
BRANCH   8   9
ATOM      9  N   UNL d   1      29.661 -17.808  -0.809  0.00  0.00    -0.105 N 
ATOM     10  H   UNL d   1      30.209 -18.260  -0.091  0.00  0.00     0.208 HD
BRANCH   9  11
ATOM     11  C   UNL d   1      28.536 -17.109  -0.301  0.00  0.00     0.774 A 
ATOM     12  N   UNL d   1      28.743 -16.085   0.525  0.00  0.00     0.133 NA
ATOM     13  C   UNL d   1      27.666 -15.440   0.964  0.00  0.00     0.756 A 
ATOM     14  N   UNL d   1      26.423 -15.781   0.605  0.00  0.00     0.131 NA
ATOM     15  C   UNL d   1      26.283 -16.806  -0.232  0.00  0.00     0.756 A 
ATOM     16  N   UNL d   1      27.322 -17.491  -0.725  0.00  0.00     0.133 NA
BRANCH  13  17
ATOM     17  N   UNL d   1      27.832 -14.365   1.792  0.00  0.00    -0.213 N 
ATOM     18  C   UNL d   1      28.268 -14.460   3.170  0.00  0.00     0.141 C 
ATOM     19  C   UNL d   1      27.402 -13.438   3.898  0.00  0.00     0.022 C 
ATOM     20  C   UNL d   1      27.221 -12.338   2.858  0.00  0.00     0.022 C 
ATOM     21  C   UNL d   1      27.255 -13.065   1.498  0.00  0.00     0.141 C 
ENDBRANCH  13  17
BRANCH  15  22
ATOM     22  N   UNL d   1      25.011 -17.179  -0.592  0.00  0.00    -0.213 N 
ATOM     23  C   UNL d   1      24.097 -16.346  -1.340  0.00  0.00     0.141 C 
ATOM     24  C   UNL d   1      22.744 -16.698  -0.730  0.00  0.00     0.022 C 
ATOM     25  C   UNL d   1      22.875 -18.193  -0.448  0.00  0.00     0.022 C 
ATOM     26  C   UNL d   1      24.376 -18.411  -0.156  0.00  0.00     0.141 C 
ENDBRANCH  15  22
ENDBRANCH   9  11
ENDBRANCH   8   9
ENDBRANCH   6   7
BRANCH   1  27
ATOM     27  O   UNL d   1      27.607 -15.881  -5.050  0.00  0.00    -0.348 OA
BRANCH  27  28
ATOM     28  C   UNL d   1      26.947 -14.615  -4.992  0.00  0.00     0.202 C 
BRANCH  28  29
ATOM     29  C   UNL d   1      25.614 -14.803  -4.269  0.00  0.00     0.202 C 
BRANCH  29  30
ATOM     30  O   UNL d   1      25.724 -14.162  -3.007  0.00  0.00    -0.348 OA
BRANCH  30  31
ATOM     31  C   UNL d   1      26.818 -13.417  -2.693  0.00  0.00     0.076 A 
ATOM     32  C   UNL d   1      26.843 -12.071  -3.121  0.00  0.00    -0.021 A 
ATOM     33  C   UNL d   1      27.965 -11.288  -2.770  0.00  0.00     0.011 A 
ATOM     34  C   UNL d   1      29.028 -11.825  -2.041  0.00  0.00     0.007 A 
ATOM     35  C   UNL d   1      28.989 -13.157  -1.633  0.00  0.00    -0.059 A 
ATOM     36  C   UNL d   1      30.089 -13.774  -0.828  0.00  0.00     0.048 C 
ATOM     37  C   UNL d   1      27.884 -13.943  -1.965  0.00  0.00     0.044 A 
BRANCH  32  38
ATOM     38  C   UNL d   1      25.726 -11.395  -3.927  0.00  0.00     0.013 C 
ATOM     39  C   UNL d   1      25.530  -9.936  -3.489  0.00  0.00     0.015 C 
ATOM     40  C   UNL d   1      25.900 -11.401  -5.450  0.00  0.00     0.015 C 
ENDBRANCH  32  38
ENDBRANCH  30  31
ENDBRANCH  29  30
ENDBRANCH  28  29
ENDBRANCH  27  28
ENDBRANCH   1  27
TORSDOF 11
ENDMDL
MODEL 7
REMARK VINA RESULT:    -8.918      1.371      4.024
REMARK INTER + INTRA:         -15.811
REMARK INTER:                 -12.199
REMARK INTRA:                  -3.611
REMARK CONF_INDEPENDENT:        3.281
REMARK UNBOUND:                -3.611
REMARK  11 active torsions:
REMARK  status: ('A' for Active; 'I' for Inactive)
REMARK    1  A    between atoms: C_5  and  C_6 
REMARK    2  A    between atoms: C_9  and  O_10 
REMARK    3  A    between atoms: O_10  and  C_11 
REMARK    4  A    between atoms: C_11  and  C_12 
REMARK    5  A    between atoms: C_12  and  O_13 
REMARK    6  A    between atoms: O_13  and  C_14 
REMARK    7  A    between atoms: C_19  and  C_20 
REMARK    8  A    between atoms: N_21  and  N_22 
REMARK    9  A    between atoms: N_22  and  C_23 
REMARK   10  A    between atoms: C_25  and  N_26 
REMARK   11  A    between atoms: C_32  and  N_33 
ROOT
ATOM      1  C   UNL d   1      29.724 -15.715  -4.818  0.00  0.00     0.080 A 
ATOM      2  C   UNL d   1      29.959 -15.738  -6.208  0.00  0.00     0.037 A 
ATOM      3  C   UNL d   1      30.453 -16.883  -6.838  0.00  0.00     0.003 A 
ATOM      4  C   UNL d   1      30.717 -18.020  -6.083  0.00  0.00     0.001 A 
ATOM      5  C   UNL d   1      30.475 -18.014  -4.706  0.00  0.00     0.016 A 
ATOM      6  C   UNL d   1      29.962 -16.877  -4.059  0.00  0.00     0.016 A 
ENDROOT
BRANCH   6   7
ATOM      7  C   UNL d   1      29.614 -17.015  -2.616  0.00  0.00     0.153 C 
ATOM      8  N   UNL d   1      30.198 -17.883  -1.836  0.00  0.00    -0.171 NA
BRANCH   8   9
ATOM      9  N   UNL d   1      29.797 -17.882  -0.523  0.00  0.00    -0.105 N 
ATOM     10  H   UNL d   1      30.393 -18.162   0.243  0.00  0.00     0.208 HD
BRANCH   9  11
ATOM     11  C   UNL d   1      28.707 -17.069  -0.119  0.00  0.00     0.774 A 
ATOM     12  N   UNL d   1      28.964 -15.865   0.388  0.00  0.00     0.133 NA
ATOM     13  C   UNL d   1      27.917 -15.123   0.736  0.00  0.00     0.756 A 
ATOM     14  N   UNL d   1      26.654 -15.541   0.589  0.00  0.00     0.131 NA
ATOM     15  C   UNL d   1      26.463 -16.750   0.066  0.00  0.00     0.756 A 
ATOM     16  N   UNL d   1      27.468 -17.544  -0.319  0.00  0.00     0.133 NA
BRANCH  13  17
ATOM     17  N   UNL d   1      28.132 -13.868   1.235  0.00  0.00    -0.213 N 
ATOM     18  C   UNL d   1      27.084 -13.000   1.728  0.00  0.00     0.141 C 
ATOM     19  C   UNL d   1      27.481 -11.621   1.213  0.00  0.00     0.022 C 
ATOM     20  C   UNL d   1      29.004 -11.665   1.254  0.00  0.00     0.022 C 
ATOM     21  C   UNL d   1      29.367 -13.142   1.000  0.00  0.00     0.141 C 
ENDBRANCH  13  17
BRANCH  15  22
ATOM     22  N   UNL d   1      25.172 -17.200  -0.070  0.00  0.00    -0.213 N 
ATOM     23  C   UNL d   1      24.796 -18.593  -0.145  0.00  0.00     0.141 C 
ATOM     24  C   UNL d   1      23.628 -18.575  -1.127  0.00  0.00     0.022 C 
ATOM     25  C   UNL d   1      22.914 -17.270  -0.783  0.00  0.00     0.022 C 
ATOM     26  C   UNL d   1      24.031 -16.326  -0.283  0.00  0.00     0.141 C 
ENDBRANCH  15  22
ENDBRANCH   9  11
ENDBRANCH   8   9
ENDBRANCH   6   7
BRANCH   1  27
ATOM     27  O   UNL d   1      29.156 -14.554  -4.364  0.00  0.00    -0.348 OA
BRANCH  27  28
ATOM     28  C   UNL d   1      30.016 -13.665  -3.649  0.00  0.00     0.202 C 
BRANCH  28  29
ATOM     29  C   UNL d   1      29.756 -13.846  -2.154  0.00  0.00     0.202 C 
BRANCH  29  30
ATOM     30  O   UNL d   1      28.363 -14.062  -1.990  0.00  0.00    -0.348 OA
BRANCH  30  31
ATOM     31  C   UNL d   1      27.453 -13.211  -2.536  0.00  0.00     0.076 A 
ATOM     32  C   UNL d   1      26.506 -13.748  -3.436  0.00  0.00    -0.021 A 
ATOM     33  C   UNL d   1      25.542 -12.870  -3.980  0.00  0.00     0.011 A 
ATOM     34  C   UNL d   1      25.531 -11.512  -3.659  0.00  0.00     0.007 A 
ATOM     35  C   UNL d   1      26.477 -10.998  -2.774  0.00  0.00    -0.059 A 
ATOM     36  C   UNL d   1      26.493  -9.556  -2.377  0.00  0.00     0.048 C 
ATOM     37  C   UNL d   1      27.432 -11.853  -2.221  0.00  0.00     0.044 A 
BRANCH  32  38
ATOM     38  C   UNL d   1      26.441 -15.223  -3.852  0.00  0.00     0.013 C 
ATOM     39  C   UNL d   1      25.487 -16.015  -2.945  0.00  0.00     0.015 C 
ATOM     40  C   UNL d   1      26.032 -15.495  -5.304  0.00  0.00     0.015 C 
ENDBRANCH  32  38
ENDBRANCH  30  31
ENDBRANCH  29  30
ENDBRANCH  28  29
ENDBRANCH  27  28
ENDBRANCH   1  27
TORSDOF 11
ENDMDL
MODEL 8
REMARK VINA RESULT:    -8.830      1.416      2.351
REMARK INTER + INTRA:         -15.815
REMARK INTER:                 -12.112
REMARK INTRA:                  -3.703
REMARK CONF_INDEPENDENT:        3.281
REMARK UNBOUND:                -3.703
REMARK  11 active torsions:
REMARK  status: ('A' for Active; 'I' for Inactive)
REMARK    1  A    between atoms: C_5  and  C_6 
REMARK    2  A    between atoms: C_9  and  O_10 
REMARK    3  A    between atoms: O_10  and  C_11 
REMARK    4  A    between atoms: C_11  and  C_12 
REMARK    5  A    between atoms: C_12  and  O_13 
REMARK    6  A    between atoms: O_13  and  C_14 
REMARK    7  A    between atoms: C_19  and  C_20 
REMARK    8  A    between atoms: N_21  and  N_22 
REMARK    9  A    between atoms: N_22  and  C_23 
REMARK   10  A    between atoms: C_25  and  N_26 
REMARK   11  A    between atoms: C_32  and  N_33 
ROOT
ATOM      1  C   UNL d   1      30.223 -15.738  -4.724  0.00  0.00     0.080 A 
ATOM      2  C   UNL d   1      30.576 -15.719  -6.090  0.00  0.00     0.037 A 
ATOM      3  C   UNL d   1      30.851 -16.901  -6.781  0.00  0.00     0.003 A 
ATOM      4  C   UNL d   1      30.775 -18.117  -6.114  0.00  0.00     0.001 A 
ATOM      5  C   UNL d   1      30.413 -18.151  -4.764  0.00  0.00     0.016 A 
ATOM      6  C   UNL d   1      30.116 -16.973  -4.058  0.00  0.00     0.016 A 
ENDROOT
BRANCH   6   7
ATOM      7  C   UNL d   1      29.613 -17.125  -2.662  0.00  0.00     0.153 C 
ATOM      8  N   UNL d   1      30.233 -17.848  -1.771  0.00  0.00    -0.171 NA
BRANCH   8   9
ATOM      9  N   UNL d   1      29.670 -17.878  -0.519  0.00  0.00    -0.105 N 
ATOM     10  H   UNL d   1      30.174 -18.147   0.314  0.00  0.00     0.208 HD
BRANCH   9  11
ATOM     11  C   UNL d   1      28.509 -17.108  -0.249  0.00  0.00     0.774 A 
ATOM     12  N   UNL d   1      27.323 -17.604  -0.595  0.00  0.00     0.133 NA
ATOM     13  C   UNL d   1      26.256 -16.865  -0.306  0.00  0.00     0.756 A 
ATOM     14  N   UNL d   1      26.342 -15.678   0.306  0.00  0.00     0.131 NA
ATOM     15  C   UNL d   1      27.556 -15.243   0.635  0.00  0.00     0.756 A 
ATOM     16  N   UNL d   1      28.671 -15.940   0.390  0.00  0.00     0.133 NA
BRANCH  13  17
ATOM     17  N   UNL d   1      25.014 -17.346  -0.618  0.00  0.00    -0.213 N 
ATOM     18  C   UNL d   1      23.971 -16.559  -1.241  0.00  0.00     0.141 C 
ATOM     19  C   UNL d   1      22.703 -16.995  -0.516  0.00  0.00     0.022 C 
ATOM     20  C   UNL d   1      22.965 -18.468  -0.223  0.00  0.00     0.022 C 
ATOM     21  C   UNL d   1      24.493 -18.574  -0.044  0.00  0.00     0.141 C 
ENDBRANCH  13  17
BRANCH  15  22
ATOM     22  N   UNL d   1      27.660 -14.017   1.246  0.00  0.00    -0.213 N 
ATOM     23  C   UNL d   1      28.850 -13.533   1.909  0.00  0.00     0.141 C 
ATOM     24  C   UNL d   1      28.282 -12.736   3.080  0.00  0.00     0.022 C 
ATOM     25  C   UNL d   1      27.031 -12.097   2.483  0.00  0.00     0.022 C 
ATOM     26  C   UNL d   1      26.545 -13.100   1.412  0.00  0.00     0.141 C 
ENDBRANCH  15  22
ENDBRANCH   9  11
ENDBRANCH   8   9
ENDBRANCH   6   7
BRANCH   1  27
ATOM     27  O   UNL d   1      29.897 -14.510  -4.212  0.00  0.00    -0.348 OA
BRANCH  27  28
ATOM     28  C   UNL d   1      30.851 -13.918  -3.327  0.00  0.00     0.202 C 
BRANCH  28  29
ATOM     29  C   UNL d   1      30.384 -14.156  -1.892  0.00  0.00     0.202 C 
BRANCH  29  30
ATOM     30  O   UNL d   1      28.984 -14.384  -1.935  0.00  0.00    -0.348 OA
BRANCH  30  31
ATOM     31  C   UNL d   1      28.117 -13.371  -2.206  0.00  0.00     0.076 A 
ATOM     32  C   UNL d   1      27.111 -13.606  -3.170  0.00  0.00    -0.021 A 
ATOM     33  C   UNL d   1      26.192 -12.565  -3.431  0.00  0.00     0.011 A 
ATOM     34  C   UNL d   1      26.282 -11.335  -2.776  0.00  0.00     0.007 A 
ATOM     35  C   UNL d   1      27.285 -11.119  -1.834  0.00  0.00    -0.059 A 
ATOM     36  C   UNL d   1      27.408  -9.828  -1.087  0.00  0.00     0.048 C 
ATOM     37  C   UNL d   1      28.196 -12.139  -1.559  0.00  0.00     0.044 A 
BRANCH  32  38
ATOM     38  C   UNL d   1      26.936 -14.921  -3.941  0.00  0.00     0.013 C 
ATOM     39  C   UNL d   1      25.584 -15.576  -3.623  0.00  0.00     0.015 C 
ATOM     40  C   UNL d   1      27.058 -14.826  -5.466  0.00  0.00     0.015 C 
ENDBRANCH  32  38
ENDBRANCH  30  31
ENDBRANCH  29  30
ENDBRANCH  28  29
ENDBRANCH  27  28
ENDBRANCH   1  27
TORSDOF 11
ENDMDL
MODEL 9
REMARK VINA RESULT:    -8.768      1.626      2.290
REMARK INTER + INTRA:         -15.783
REMARK INTER:                 -12.050
REMARK INTRA:                  -3.734
REMARK CONF_INDEPENDENT:        3.281
REMARK UNBOUND:                -3.734
REMARK  11 active torsions:
REMARK  status: ('A' for Active; 'I' for Inactive)
REMARK    1  A    between atoms: C_5  and  C_6 
REMARK    2  A    between atoms: C_9  and  O_10 
REMARK    3  A    between atoms: O_10  and  C_11 
REMARK    4  A    between atoms: C_11  and  C_12 
REMARK    5  A    between atoms: C_12  and  O_13 
REMARK    6  A    between atoms: O_13  and  C_14 
REMARK    7  A    between atoms: C_19  and  C_20 
REMARK    8  A    between atoms: N_21  and  N_22 
REMARK    9  A    between atoms: N_22  and  C_23 
REMARK   10  A    between atoms: C_25  and  N_26 
REMARK   11  A    between atoms: C_32  and  N_33 
ROOT
ATOM      1  C   UNL d   1      30.502 -16.063  -4.827  0.00  0.00     0.080 A 
ATOM      2  C   UNL d   1      30.737 -16.070  -6.218  0.00  0.00     0.037 A 
ATOM      3  C   UNL d   1      30.960 -17.265  -6.906  0.00  0.00     0.003 A 
ATOM      4  C   UNL d   1      30.949 -18.468  -6.211  0.00  0.00     0.001 A 
ATOM      5  C   UNL d   1      30.703 -18.475  -4.834  0.00  0.00     0.016 A 
ATOM      6  C   UNL d   1      30.460 -17.285  -4.129  0.00  0.00     0.016 A 
ENDROOT
BRANCH   6   7
ATOM      7  C   UNL d   1      30.078 -17.411  -2.693  0.00  0.00     0.153 C 
ATOM      8  N   UNL d   1      30.663 -18.252  -1.885  0.00  0.00    -0.171 NA
BRANCH   8   9
ATOM      9  N   UNL d   1      30.228 -18.242  -0.584  0.00  0.00    -0.105 N 
ATOM     10  H   UNL d   1      30.791 -18.551   0.196  0.00  0.00     0.208 HD
BRANCH   9  11
ATOM     11  C   UNL d   1      29.162 -17.387  -0.203  0.00  0.00     0.774 A 
ATOM     12  N   UNL d   1      27.933 -17.677  -0.623  0.00  0.00     0.133 NA
ATOM     13  C   UNL d   1      26.956 -16.866  -0.228  0.00  0.00     0.756 A 
ATOM     14  N   UNL d   1      27.170 -15.805   0.559  0.00  0.00     0.131 NA
ATOM     15  C   UNL d   1      28.420 -15.576   0.955  0.00  0.00     0.756 A 
ATOM     16  N   UNL d   1      29.449 -16.358   0.608  0.00  0.00     0.133 NA
BRANCH  13  17
ATOM     17  N   UNL d   1      25.672 -17.140  -0.613  0.00  0.00    -0.213 N 
ATOM     18  C   UNL d   1      24.759 -16.155  -1.154  0.00  0.00     0.141 C 
ATOM     19  C   UNL d   1      23.424 -16.501  -0.505  0.00  0.00     0.022 C 
ATOM     20  C   UNL d   1      23.484 -18.020  -0.385  0.00  0.00     0.022 C 
ATOM     21  C   UNL d   1      24.979 -18.346  -0.197  0.00  0.00     0.141 C 
ENDBRANCH  13  17
BRANCH  15  22
ATOM     22  N   UNL d   1      28.657 -14.478   1.746  0.00  0.00    -0.213 N 
ATOM     23  C   UNL d   1      29.696 -13.504   1.501  0.00  0.00     0.141 C 
ATOM     24  C   UNL d   1      30.146 -13.128   2.910  0.00  0.00     0.022 C 
ATOM     25  C   UNL d   1      28.841 -13.156   3.703  0.00  0.00     0.022 C 
ATOM     26  C   UNL d   1      27.974 -14.226   3.003  0.00  0.00     0.141 C 
ENDBRANCH  15  22
ENDBRANCH   9  11
ENDBRANCH   8   9
ENDBRANCH   6   7
BRANCH   1  27
ATOM     27  O   UNL d   1      30.212 -14.826  -4.313  0.00  0.00    -0.348 OA
BRANCH  27  28
ATOM     28  C   UNL d   1      31.115 -14.322  -3.327  0.00  0.00     0.202 C 
BRANCH  28  29
ATOM     29  C   UNL d   1      30.293 -13.693  -2.203  0.00  0.00     0.202 C 
BRANCH  29  30
ATOM     30  O   UNL d   1      29.219 -14.577  -1.919  0.00  0.00    -0.348 OA
BRANCH  30  31
ATOM     31  C   UNL d   1      27.985 -14.375  -2.457  0.00  0.00     0.076 A 
ATOM     32  C   UNL d   1      27.139 -13.434  -1.829  0.00  0.00    -0.021 A 
ATOM     33  C   UNL d   1      25.870 -13.202  -2.404  0.00  0.00     0.011 A 
ATOM     34  C   UNL d   1      25.450 -13.891  -3.543  0.00  0.00     0.007 A 
ATOM     35  C   UNL d   1      26.295 -14.821  -4.145  0.00  0.00    -0.059 A 
ATOM     36  C   UNL d   1      25.904 -15.567  -5.381  0.00  0.00     0.048 C 
ATOM     37  C   UNL d   1      27.556 -15.057  -3.595  0.00  0.00     0.044 A 
BRANCH  32  38
ATOM     38  C   UNL d   1      27.511 -12.633  -0.575  0.00  0.00     0.013 C 
ATOM     39  C   UNL d   1      27.745 -11.152  -0.910  0.00  0.00     0.015 C 
ATOM     40  C   UNL d   1      26.507 -12.692   0.582  0.00  0.00     0.015 C 
ENDBRANCH  32  38
ENDBRANCH  30  31
ENDBRANCH  29  30
ENDBRANCH  28  29
ENDBRANCH  27  28
ENDBRANCH   1  27
TORSDOF 11
ENDMDL
