MODEL 1
REMARK VINA RESULT:   -27.910      0.000      0.000
REMARK INTER + INTRA:         -30.144
REMARK INTER:                 -29.401
REMARK INTRA:                  -0.742
REMARK CONF_INDEPENDENT:        1.492
REMARK UNBOUND:                -0.742
REMARK  5 active torsions:
REMARK  status: ('A' for Active; 'I' for Inactive)
REMARK    1  A    between atoms: C_2  and  C_3 
REMARK    2  A    between atoms: C_3  and  C_4 
REMARK    3  A    between atoms: C_4  and  N_5 
REMARK       I    between atoms: N_5  and  C_6 
REMARK       I    between atoms: C_6  and  N_8 
REMARK    4  A    between atoms: N_8  and  N_9 
REMARK       I    between atoms: N_9  and  C_10 
REMARK    5  A    between atoms: C_10  and  C_12 
ROOT
ATOM      1  N   UNL d   1      22.973 -18.596   0.247  0.00  0.00    -0.261 N 
ATOM      2  C   UNL d   1      21.768 -18.053  -0.184  0.00  0.00     0.291 C 
ATOM      3  O   UNL d   1      21.660 -16.901  -0.597  0.00  0.00    -0.264 OA
ATOM      4  H   UNL d   1      23.047 -19.517   0.676  0.00  0.00     0.190 HD
ENDROOT
BRANCH   2   5
ATOM      5  C   UNL d   1      20.524 -18.977  -0.145  0.00  0.00     0.157 A 
ATOM      6  N   UNL d   1      19.903 -19.208  -1.269  0.00  0.00    -0.166 NA
ATOM      7  N   UNL d   1      18.804 -20.035  -1.244  0.00  0.00    -0.242 N 
ATOM      8  C   UNL d   1      18.211 -20.571  -0.125  0.00  0.00     0.272 A 
ATOM      9  H   UNL d   1      18.360 -20.244  -2.136  0.00  0.00     0.192 HD
ATOM     10  O   UNL d   1      17.171 -21.225  -0.173  0.00  0.00    -0.266 OA
ATOM     11  C   UNL d   1      18.913 -20.345   1.145  0.00  0.00     0.046 A 
ATOM     12  C   UNL d   1      18.427 -20.927   2.328  0.00  0.00     0.018 A 
ATOM     13  C   UNL d   1      20.090 -19.591   1.143  0.00  0.00     0.016 A 
ATOM     14  C   UNL d   1      19.148 -20.790   3.512  0.00  0.00     0.001 A 
ATOM     15  C   UNL d   1      20.343 -20.075   3.510  0.00  0.00     0.001 A 
ATOM     16  C   UNL d   1      20.805 -19.466   2.338  0.00  0.00     0.015 A 
ENDBRANCH   2   5
BRANCH   1  17
ATOM     17  N   UNL d   1      24.169 -17.795   0.214  0.00  0.00    -0.249 N 
ATOM     18  C   UNL d   1      24.663 -17.350  -1.004  0.00  0.00     0.334 C 
ATOM     19  N   UNL d   1      25.810 -16.581  -0.923  0.00  0.00    -0.342 N 
ATOM     20  O   UNL d   1      24.110 -17.616  -2.069  0.00  0.00    -0.246 OA
ATOM     21  H   UNL d   1      26.231 -16.391  -0.026  0.00  0.00     0.164 HD
ATOM     22  H   UNL d   1      24.616 -17.609   1.106  0.00  0.00     0.192 HD
BRANCH  19  23
ATOM     23  C   UNL d   1      26.444 -16.038  -2.129  0.00  0.00     0.124 C 
BRANCH  23  24
ATOM     24  C   UNL d   1      26.159 -14.548  -2.376  0.00  0.00     0.019 C 
BRANCH  24  25
ATOM     25  C   UNL d   1      25.487 -14.303  -3.737  0.00  0.00    -0.003 C 
ATOM     26  C   UNL d   1      25.906 -15.346  -4.767  0.00  0.00     0.005 C 
ENDBRANCH  24  25
ENDBRANCH  23  24
ENDBRANCH  19  23
ENDBRANCH   1  17
TORSDOF 5
ENDMDL
MODEL 2
REMARK VINA RESULT:   -27.267      0.977      1.629
REMARK INTER + INTRA:         -29.392
REMARK INTER:                 -28.758
REMARK INTRA:                  -0.633
REMARK CONF_INDEPENDENT:        1.492
REMARK UNBOUND:                -0.633
REMARK  5 active torsions:
REMARK  status: ('A' for Active; 'I' for Inactive)
REMARK    1  A    between atoms: C_2  and  C_3 
REMARK    2  A    between atoms: C_3  and  C_4 
REMARK    3  A    between atoms: C_4  and  N_5 
REMARK       I    between atoms: N_5  and  C_6 
REMARK       I    between atoms: C_6  and  N_8 
REMARK    4  A    between atoms: N_8  and  N_9 
REMARK       I    between atoms: N_9  and  C_10 
REMARK    5  A    between atoms: C_10  and  C_12 
ROOT
ATOM      1  N   UNL d   1      22.979 -18.630   0.233  0.00  0.00    -0.261 N 
ATOM      2  C   UNL d   1      21.774 -18.087  -0.197  0.00  0.00     0.291 C 
ATOM      3  O   UNL d   1      21.667 -16.937  -0.616  0.00  0.00    -0.264 OA
ATOM      4  H   UNL d   1      23.053 -19.549   0.667  0.00  0.00     0.190 HD
ENDROOT
BRANCH   2   5
ATOM      5  C   UNL d   1      20.528 -19.007  -0.149  0.00  0.00     0.157 A 
ATOM      6  N   UNL d   1      19.905 -19.246  -1.270  0.00  0.00    -0.166 NA
ATOM      7  N   UNL d   1      18.803 -20.070  -1.236  0.00  0.00    -0.242 N 
ATOM      8  C   UNL d   1      18.211 -20.595  -0.112  0.00  0.00     0.272 A 
ATOM      9  H   UNL d   1      18.358 -20.284  -2.125  0.00  0.00     0.192 HD
ATOM     10  O   UNL d   1      17.169 -21.246  -0.153  0.00  0.00    -0.266 OA
ATOM     11  C   UNL d   1      18.915 -20.361   1.156  0.00  0.00     0.046 A 
ATOM     12  C   UNL d   1      18.430 -20.932   2.344  0.00  0.00     0.018 A 
ATOM     13  C   UNL d   1      20.095 -19.609   1.145  0.00  0.00     0.016 A 
ATOM     14  C   UNL d   1      19.153 -20.788   3.525  0.00  0.00     0.001 A 
ATOM     15  C   UNL d   1      20.350 -20.075   3.516  0.00  0.00     0.001 A 
ATOM     16  C   UNL d   1      20.812 -19.477   2.338  0.00  0.00     0.015 A 
ENDBRANCH   2   5
BRANCH   1  17
ATOM     17  N   UNL d   1      24.177 -17.832   0.192  0.00  0.00    -0.249 N 
ATOM     18  C   UNL d   1      24.628 -17.336  -1.022  0.00  0.00     0.334 C 
ATOM     19  N   UNL d   1      25.782 -16.575  -0.950  0.00  0.00    -0.342 N 
ATOM     20  O   UNL d   1      24.036 -17.553  -2.077  0.00  0.00    -0.246 OA
ATOM     21  H   UNL d   1      26.236 -16.426  -0.061  0.00  0.00     0.164 HD
ATOM     22  H   UNL d   1      24.657 -17.688   1.074  0.00  0.00     0.192 HD
BRANCH  19  23
ATOM     23  C   UNL d   1      26.374 -15.981  -2.153  0.00  0.00     0.124 C 
BRANCH  23  24
ATOM     24  C   UNL d   1      27.873 -15.668  -2.032  0.00  0.00     0.019 C 
BRANCH  24  25
ATOM     25  C   UNL d   1      28.379 -15.801  -0.586  0.00  0.00    -0.003 C 
ATOM     26  C   UNL d   1      29.466 -16.863  -0.466  0.00  0.00     0.005 C 
ENDBRANCH  24  25
ENDBRANCH  23  24
ENDBRANCH  19  23
ENDBRANCH   1  17
TORSDOF 5
ENDMDL
