MODEL 1
REMARK VINA RESULT:    -8.844      0.000      0.000
REMARK INTER + INTRA:         -11.402
REMARK INTER:                 -10.335
REMARK INTRA:                  -1.066
REMARK CONF_INDEPENDENT:        1.492
REMARK UNBOUND:                -1.066
REMARK  5 active torsions:
REMARK  status: ('A' for Active; 'I' for Inactive)
REMARK       I    between atoms: N_1  and  C_2 
REMARK    1  A    between atoms: C_2  and  C_4 
REMARK    2  A    between atoms: C_4  and  C_5 
REMARK    3  A    between atoms: C_6  and  C_5 
REMARK    4  A    between atoms: N_22  and  C_23 
REMARK    5  A    between atoms: C_23  and  C_24 
ROOT
ATOM      1  C   UNL d   1      26.942 -17.825  -0.423  0.00  0.00     0.237 A 
ATOM      2  N   UNL d   1      28.062 -17.415   0.461  0.00  0.00     0.113 N 
ATOM      3  C   UNL d   1      28.740 -16.258  -0.136  0.00  0.00     0.279 A 
ATOM      4  C   UNL d   1      30.255 -16.514  -0.376  0.00  0.00     0.267 C 
ATOM      5  O   UNL d   1      30.746 -17.432  -1.017  0.00  0.00    -0.270 OA
ATOM      6  N   UNL d   1      30.941 -15.447   0.188  0.00  0.00    -0.324 N 
ATOM      7  C   UNL d   1      30.075 -14.596   0.865  0.00  0.00     0.044 A 
ATOM      8  C   UNL d   1      30.372 -13.400   1.481  0.00  0.00     0.032 A 
ATOM      9  C   UNL d   1      29.305 -12.661   2.012  0.00  0.00     0.026 A 
ATOM     10  C   UNL d   1      27.984 -13.137   1.932  0.00  0.00     0.034 A 
ATOM     11 CL   UNL d   1      26.685 -12.148   2.480  0.00  0.00    -0.084 Cl
ATOM     12  C   UNL d   1      27.706 -14.369   1.346  0.00  0.00     0.036 A 
ATOM     13  C   UNL d   1      28.769 -15.079   0.795  0.00  0.00     0.019 A 
ATOM     14  C   UNL d   1      28.175 -15.993  -1.513  0.00  0.00     0.147 A 
ATOM     15  C   UNL d   1      27.543 -14.646  -1.728  0.00  0.00     0.235 C 
ATOM     16  O   UNL d   1      27.933 -13.577  -1.288  0.00  0.00    -0.272 OA
ATOM     17  N   UNL d   1      26.437 -14.782  -2.499  0.00  0.00    -0.283 N 
ATOM     18  C   UNL d   1      25.992 -16.032  -2.201  0.00  0.00     0.234 C 
ATOM     19  O   UNL d   1      24.853 -16.476  -2.279  0.00  0.00    -0.272 OA
ATOM     20  C   UNL d   1      27.059 -16.973  -1.705  0.00  0.00     0.128 A 
ATOM     21  H   UNL d   1      28.730 -18.177   0.606  0.00  0.00     0.318 HD
ATOM     22  H   UNL d   1      31.939 -15.332   0.096  0.00  0.00     0.169 HD
ENDROOT
BRANCH   1  23
ATOM     23  C   UNL d   1      25.640 -17.798   0.402  0.00  0.00     0.045 C 
BRANCH  23  24
ATOM     24  C   UNL d   1      24.426 -18.577  -0.131  0.00  0.00     0.105 C 
BRANCH  24  25
ATOM     25  C   UNL d   1      23.136 -17.817   0.086  0.00  0.00     0.215 C 
ATOM     26  N   UNL d   1      22.122 -18.574   0.605  0.00  0.00    -0.370 N 
ATOM     27  H   UNL d   1      21.206 -18.147   0.637  0.00  0.00     0.159 HD
ATOM     28  H   UNL d   1      22.172 -19.586   0.637  0.00  0.00     0.159 HD
ATOM     29  O   UNL d   1      22.962 -16.640  -0.204  0.00  0.00    -0.274 OA
ENDBRANCH  24  25
ENDBRANCH  23  24
ENDBRANCH   1  23
BRANCH  17  30
ATOM     30  C   UNL d   1      25.767 -13.475  -2.850  0.00  0.00     0.175 C 
BRANCH  30  31
ATOM     31  C   UNL d   1      26.240 -12.582  -3.992  0.00  0.00    -0.018 C 
ATOM     32  C   UNL d   1      25.727 -11.259  -4.175  0.00  0.00     0.010 C 
ATOM     33  C   UNL d   1      25.907 -10.570  -5.397  0.00  0.00     0.001 C 
ATOM     34  C   UNL d   1      26.724 -11.102  -6.383  0.00  0.00     0.002 C 
ATOM     35  C   UNL d   1      27.351 -12.304  -6.150  0.00  0.00     0.024 C 
ATOM     36  C   UNL d   1      26.999 -13.077  -5.053  0.00  0.00     0.042 C 
ATOM     37 CL   UNL d   1      27.300 -14.719  -5.397  0.00  0.00    -0.084 Cl
ENDBRANCH  30  31
ENDBRANCH  17  30
TORSDOF 5
ENDMDL
MODEL 2
REMARK VINA RESULT:    -8.574      2.681      5.922
REMARK INTER + INTRA:         -11.854
REMARK INTER:                 -10.066
REMARK INTRA:                  -1.788
REMARK CONF_INDEPENDENT:        1.492
REMARK UNBOUND:                -1.788
REMARK  5 active torsions:
REMARK  status: ('A' for Active; 'I' for Inactive)
REMARK       I    between atoms: N_1  and  C_2 
REMARK    1  A    between atoms: C_2  and  C_4 
REMARK    2  A    between atoms: C_4  and  C_5 
REMARK    3  A    between atoms: C_6  and  C_5 
REMARK    4  A    between atoms: N_22  and  C_23 
REMARK    5  A    between atoms: C_23  and  C_24 
ROOT
ATOM      1  C   UNL d   1      28.764 -14.460  -3.524  0.00  0.00     0.237 A 
ATOM      2  N   UNL d   1      28.574 -15.904  -3.235  0.00  0.00     0.113 N 
ATOM      3  C   UNL d   1      28.600 -16.106  -1.781  0.00  0.00     0.279 A 
ATOM      4  C   UNL d   1      29.696 -17.118  -1.339  0.00  0.00     0.267 C 
ATOM      5  O   UNL d   1      30.890 -17.053  -1.591  0.00  0.00    -0.270 OA
ATOM      6  N   UNL d   1      29.078 -18.053  -0.520  0.00  0.00    -0.324 N 
ATOM      7  C   UNL d   1      27.704 -17.846  -0.471  0.00  0.00     0.044 A 
ATOM      8  C   UNL d   1      26.773 -18.518   0.289  0.00  0.00     0.032 A 
ATOM      9  C   UNL d   1      25.449 -18.059   0.250  0.00  0.00     0.026 A 
ATOM     10  C   UNL d   1      25.087 -16.963  -0.553  0.00  0.00     0.034 A 
ATOM     11 CL   UNL d   1      23.480 -16.346  -0.482  0.00  0.00    -0.084 Cl
ATOM     12  C   UNL d   1      26.031 -16.323  -1.351  0.00  0.00     0.036 A 
ATOM     13  C   UNL d   1      27.349 -16.768  -1.280  0.00  0.00     0.019 A 
ATOM     14  C   UNL d   1      28.978 -14.812  -1.095  0.00  0.00     0.147 A 
ATOM     15  C   UNL d   1      27.970 -14.247  -0.133  0.00  0.00     0.235 C 
ATOM     16  O   UNL d   1      27.270 -14.875   0.645  0.00  0.00    -0.272 OA
ATOM     17  N   UNL d   1      27.935 -12.898  -0.253  0.00  0.00    -0.283 N 
ATOM     18  C   UNL d   1      28.268 -12.684  -1.554  0.00  0.00     0.234 C 
ATOM     19  O   UNL d   1      27.981 -11.732  -2.269  0.00  0.00    -0.272 OA
ATOM     20  C   UNL d   1      29.092 -13.782  -2.176  0.00  0.00     0.128 A 
ATOM     21  H   UNL d   1      29.293 -16.479  -3.682  0.00  0.00     0.318 HD
ATOM     22  H   UNL d   1      29.590 -18.774  -0.035  0.00  0.00     0.169 HD
ENDROOT
BRANCH   1  23
ATOM     23  C   UNL d   1      27.564 -13.972  -4.359  0.00  0.00     0.045 C 
BRANCH  23  24
ATOM     24  C   UNL d   1      26.191 -14.615  -4.103  0.00  0.00     0.105 C 
BRANCH  24  25
ATOM     25  C   UNL d   1      25.078 -13.593  -4.154  0.00  0.00     0.215 C 
ATOM     26  N   UNL d   1      25.499 -12.299  -4.008  0.00  0.00    -0.370 N 
ATOM     27  H   UNL d   1      24.780 -11.597  -3.897  0.00  0.00     0.159 HD
ATOM     28  H   UNL d   1      26.433 -12.074  -3.686  0.00  0.00     0.159 HD
ATOM     29  O   UNL d   1      23.888 -13.861  -4.271  0.00  0.00    -0.274 OA
ENDBRANCH  24  25
ENDBRANCH  23  24
ENDBRANCH   1  23
BRANCH  17  30
ATOM     30  C   UNL d   1      27.014 -12.217   0.730  0.00  0.00     0.175 C 
BRANCH  30  31
ATOM     31  C   UNL d   1      27.445 -11.834   2.142  0.00  0.00    -0.018 C 
ATOM     32  C   UNL d   1      28.023 -12.789   3.038  0.00  0.00     0.010 C 
ATOM     33  C   UNL d   1      28.109 -12.527   4.425  0.00  0.00     0.001 C 
ATOM     34  C   UNL d   1      27.783 -11.273   4.919  0.00  0.00     0.002 C 
ATOM     35  C   UNL d   1      27.377 -10.297   4.040  0.00  0.00     0.024 C 
ATOM     36  C   UNL d   1      27.081 -10.619   2.723  0.00  0.00     0.042 C 
ATOM     37 CL   UNL d   1      25.937  -9.512   2.113  0.00  0.00    -0.084 Cl
ENDBRANCH  30  31
ENDBRANCH  17  30
TORSDOF 5
ENDMDL
MODEL 3
REMARK VINA RESULT:    -8.564      2.806      6.519
REMARK INTER + INTRA:         -11.601
REMARK INTER:                 -10.056
REMARK INTRA:                  -1.545
REMARK CONF_INDEPENDENT:        1.492
REMARK UNBOUND:                -1.545
REMARK  5 active torsions:
REMARK  status: ('A' for Active; 'I' for Inactive)
REMARK       I    between atoms: N_1  and  C_2 
REMARK    1  A    between atoms: C_2  and  C_4 
REMARK    2  A    between atoms: C_4  and  C_5 
REMARK    3  A    between atoms: C_6  and  C_5 
REMARK    4  A    between atoms: N_22  and  C_23 
REMARK    5  A    between atoms: C_23  and  C_24 
ROOT
ATOM      1  C   UNL d   1      30.534 -15.395  -2.704  0.00  0.00     0.237 A 
ATOM      2  N   UNL d   1      30.561 -14.643  -3.984  0.00  0.00     0.113 N 
ATOM      3  C   UNL d   1      29.277 -14.825  -4.671  0.00  0.00     0.279 A 
ATOM      4  C   UNL d   1      29.443 -15.423  -6.097  0.00  0.00     0.267 C 
ATOM      5  O   UNL d   1      30.017 -16.462  -6.388  0.00  0.00    -0.270 OA
ATOM      6  N   UNL d   1      28.730 -14.606  -6.964  0.00  0.00    -0.324 N 
ATOM      7  C   UNL d   1      28.223 -13.494  -6.303  0.00  0.00     0.044 A 
ATOM      8  C   UNL d   1      27.406 -12.507  -6.808  0.00  0.00     0.032 A 
ATOM      9  C   UNL d   1      26.935 -11.534  -5.916  0.00  0.00     0.026 A 
ATOM     10  C   UNL d   1      27.301 -11.558  -4.559  0.00  0.00     0.034 A 
ATOM     11 CL   UNL d   1      26.605 -10.424  -3.466  0.00  0.00    -0.084 Cl
ATOM     12  C   UNL d   1      28.164 -12.537  -4.073  0.00  0.00     0.036 A 
ATOM     13  C   UNL d   1      28.601 -13.516  -4.961  0.00  0.00     0.019 A 
ATOM     14  C   UNL d   1      28.443 -15.843  -3.926  0.00  0.00     0.147 A 
ATOM     15  C   UNL d   1      27.116 -15.366  -3.403  0.00  0.00     0.235 C 
ATOM     16  O   UNL d   1      26.342 -14.605  -3.961  0.00  0.00    -0.272 OA
ATOM     17  N   UNL d   1      26.889 -15.907  -2.183  0.00  0.00    -0.283 N 
ATOM     18  C   UNL d   1      28.136 -16.073  -1.669  0.00  0.00     0.234 C 
ATOM     19  O   UNL d   1      28.479 -16.116  -0.494  0.00  0.00    -0.272 OA
ATOM     20  C   UNL d   1      29.224 -16.212  -2.703  0.00  0.00     0.128 A 
ATOM     21  H   UNL d   1      31.329 -14.948  -4.588  0.00  0.00     0.318 HD
ATOM     22  H   UNL d   1      28.610 -14.824  -7.942  0.00  0.00     0.169 HD
ENDROOT
BRANCH   1  23
ATOM     23  C   UNL d   1      30.827 -14.408  -1.557  0.00  0.00     0.045 C 
BRANCH  23  24
ATOM     24  C   UNL d   1      31.576 -14.933  -0.321  0.00  0.00     0.105 C 
BRANCH  24  25
ATOM     25  C   UNL d   1      31.678 -16.442  -0.328  0.00  0.00     0.215 C 
ATOM     26  N   UNL d   1      30.675 -17.072   0.357  0.00  0.00    -0.370 N 
ATOM     27  H   UNL d   1      30.776 -18.068   0.496  0.00  0.00     0.159 HD
ATOM     28  H   UNL d   1      30.055 -16.569   0.980  0.00  0.00     0.159 HD
ATOM     29  O   UNL d   1      32.583 -17.078  -0.852  0.00  0.00    -0.274 OA
ENDBRANCH  24  25
ENDBRANCH  23  24
ENDBRANCH   1  23
BRANCH  17  30
ATOM     30  C   UNL d   1      25.540 -15.561  -1.598  0.00  0.00     0.175 C 
BRANCH  30  31
ATOM     31  C   UNL d   1      24.510 -16.616  -1.210  0.00  0.00    -0.018 C 
ATOM     32  C   UNL d   1      23.107 -16.336  -1.214  0.00  0.00     0.010 C 
ATOM     33  C   UNL d   1      22.192 -17.184  -0.547  0.00  0.00     0.001 C 
ATOM     34  C   UNL d   1      22.622 -18.390  -0.014  0.00  0.00     0.002 C 
ATOM     35  C   UNL d   1      23.944 -18.742  -0.145  0.00  0.00     0.024 C 
ATOM     36  C   UNL d   1      24.874 -17.816  -0.597  0.00  0.00     0.042 C 
ATOM     37 CL   UNL d   1      26.409 -18.199   0.037  0.00  0.00    -0.084 Cl
ENDBRANCH  30  31
ENDBRANCH  17  30
TORSDOF 5
ENDMDL
MODEL 4
REMARK VINA RESULT:    -8.563      1.690      2.119
REMARK INTER + INTRA:         -11.575
REMARK INTER:                 -10.055
REMARK INTRA:                  -1.520
REMARK CONF_INDEPENDENT:        1.492
REMARK UNBOUND:                -1.520
REMARK  5 active torsions:
REMARK  status: ('A' for Active; 'I' for Inactive)
REMARK       I    between atoms: N_1  and  C_2 
REMARK    1  A    between atoms: C_2  and  C_4 
REMARK    2  A    between atoms: C_4  and  C_5 
REMARK    3  A    between atoms: C_6  and  C_5 
REMARK    4  A    between atoms: N_22  and  C_23 
REMARK    5  A    between atoms: C_23  and  C_24 
ROOT
ATOM      1  C   UNL d   1      25.254 -16.582  -1.733  0.00  0.00     0.237 A 
ATOM      2  N   UNL d   1      26.010 -16.695  -0.460  0.00  0.00     0.113 N 
ATOM      3  C   UNL d   1      27.278 -15.968  -0.593  0.00  0.00     0.279 A 
ATOM      4  C   UNL d   1      28.514 -16.872  -0.322  0.00  0.00     0.267 C 
ATOM      5  O   UNL d   1      28.784 -17.923  -0.884  0.00  0.00    -0.270 OA
ATOM      6  N   UNL d   1      29.306 -16.208   0.605  0.00  0.00    -0.324 N 
ATOM      7  C   UNL d   1      28.685 -15.050   1.058  0.00  0.00     0.044 A 
ATOM      8  C   UNL d   1      29.189 -14.099   1.916  0.00  0.00     0.032 A 
ATOM      9  C   UNL d   1      28.411 -12.955   2.147  0.00  0.00     0.026 A 
ATOM     10  C   UNL d   1      27.155 -12.798   1.535  0.00  0.00     0.034 A 
ATOM     11 CL   UNL d   1      26.283 -11.327   1.738  0.00  0.00    -0.084 Cl
ATOM     12  C   UNL d   1      26.640 -13.791   0.705  0.00  0.00     0.036 A 
ATOM     13  C   UNL d   1      27.434 -14.907   0.459  0.00  0.00     0.019 A 
ATOM     14  C   UNL d   1      27.450 -15.505  -2.022  0.00  0.00     0.147 A 
ATOM     15  C   UNL d   1      27.569 -14.021  -2.234  0.00  0.00     0.235 C 
ATOM     16  O   UNL d   1      28.166 -13.227  -1.524  0.00  0.00    -0.272 OA
ATOM     17  N   UNL d   1      26.896 -13.667  -3.355  0.00  0.00    -0.283 N 
ATOM     18  C   UNL d   1      25.897 -14.586  -3.430  0.00  0.00     0.234 C 
ATOM     19  O   UNL d   1      24.802 -14.481  -3.971  0.00  0.00    -0.272 OA
ATOM     20  C   UNL d   1      26.197 -15.893  -2.743  0.00  0.00     0.128 A 
ATOM     21  H   UNL d   1      26.189 -17.671  -0.209  0.00  0.00     0.318 HD
ATOM     22  H   UNL d   1      30.212 -16.548   0.889  0.00  0.00     0.169 HD
ENDROOT
BRANCH   1  23
ATOM     23  C   UNL d   1      23.874 -15.968  -1.425  0.00  0.00     0.045 C 
BRANCH  23  24
ATOM     24  C   UNL d   1      23.073 -16.538  -0.243  0.00  0.00     0.105 C 
BRANCH  24  25
ATOM     25  C   UNL d   1      23.228 -18.038  -0.135  0.00  0.00     0.215 C 
ATOM     26  N   UNL d   1      22.124 -18.679   0.357  0.00  0.00    -0.370 N 
ATOM     27  H   UNL d   1      22.229 -19.661   0.576  0.00  0.00     0.159 HD
ATOM     28  H   UNL d   1      21.366 -18.175   0.802  0.00  0.00     0.159 HD
ATOM     29  O   UNL d   1      24.247 -18.657  -0.413  0.00  0.00    -0.274 OA
ENDBRANCH  24  25
ENDBRANCH  23  24
ENDBRANCH   1  23
BRANCH  17  30
ATOM     30  C   UNL d   1      27.020 -12.205  -3.711  0.00  0.00     0.175 C 
BRANCH  30  31
ATOM     31  C   UNL d   1      26.735 -11.666  -5.109  0.00  0.00    -0.018 C 
ATOM     32  C   UNL d   1      27.432 -12.151  -6.260  0.00  0.00     0.010 C 
ATOM     33  C   UNL d   1      27.412 -11.434  -7.479  0.00  0.00     0.001 C 
ATOM     34  C   UNL d   1      26.584 -10.331  -7.626  0.00  0.00     0.002 C 
ATOM     35  C   UNL d   1      25.789  -9.952  -6.571  0.00  0.00     0.024 C 
ATOM     36  C   UNL d   1      25.974 -10.515  -5.316  0.00  0.00     0.042 C 
ATOM     37 CL   UNL d   1      25.471  -9.409  -4.120  0.00  0.00    -0.084 Cl
ENDBRANCH  30  31
ENDBRANCH  17  30
TORSDOF 5
ENDMDL
MODEL 5
REMARK VINA RESULT:    -8.544      2.649      5.841
REMARK INTER + INTRA:         -11.955
REMARK INTER:                 -10.036
REMARK INTRA:                  -1.920
REMARK CONF_INDEPENDENT:        1.492
REMARK UNBOUND:                -1.920
REMARK  5 active torsions:
REMARK  status: ('A' for Active; 'I' for Inactive)
REMARK       I    between atoms: N_1  and  C_2 
REMARK    1  A    between atoms: C_2  and  C_4 
REMARK    2  A    between atoms: C_4  and  C_5 
REMARK    3  A    between atoms: C_6  and  C_5 
REMARK    4  A    between atoms: N_22  and  C_23 
REMARK    5  A    between atoms: C_23  and  C_24 
ROOT
ATOM      1  C   UNL d   1      28.667 -14.155  -3.074  0.00  0.00     0.237 A 
ATOM      2  N   UNL d   1      28.562 -15.624  -2.886  0.00  0.00     0.113 N 
ATOM      3  C   UNL d   1      28.470 -15.915  -1.450  0.00  0.00     0.279 A 
ATOM      4  C   UNL d   1      29.595 -16.872  -0.963  0.00  0.00     0.267 C 
ATOM      5  O   UNL d   1      30.799 -16.708  -1.095  0.00  0.00    -0.270 OA
ATOM      6  N   UNL d   1      28.977 -17.899  -0.261  0.00  0.00    -0.324 N 
ATOM      7  C   UNL d   1      27.593 -17.793  -0.332  0.00  0.00     0.044 A 
ATOM      8  C   UNL d   1      26.651 -18.575   0.297  0.00  0.00     0.032 A 
ATOM      9  C   UNL d   1      25.304 -18.209   0.157  0.00  0.00     0.026 A 
ATOM     10  C   UNL d   1      24.935 -17.094  -0.614  0.00  0.00     0.034 A 
ATOM     11 CL   UNL d   1      23.286 -16.597  -0.663  0.00  0.00    -0.084 Cl
ATOM     12  C   UNL d   1      25.897 -16.339  -1.281  0.00  0.00     0.036 A 
ATOM     13  C   UNL d   1      27.232 -16.693  -1.109  0.00  0.00     0.019 A 
ATOM     14  C   UNL d   1      28.684 -14.643  -0.660  0.00  0.00     0.147 A 
ATOM     15  C   UNL d   1      27.552 -14.212   0.232  0.00  0.00     0.235 C 
ATOM     16  O   UNL d   1      26.834 -14.936   0.902  0.00  0.00    -0.272 OA
ATOM     17  N   UNL d   1      27.426 -12.865   0.185  0.00  0.00    -0.283 N 
ATOM     18  C   UNL d   1      27.859 -12.546  -1.064  0.00  0.00     0.234 C 
ATOM     19  O   UNL d   1      27.566 -11.574  -1.749  0.00  0.00    -0.272 OA
ATOM     20  C   UNL d   1      28.817 -13.542  -1.665  0.00  0.00     0.128 A 
ATOM     21  H   UNL d   1      29.360 -16.117  -3.294  0.00  0.00     0.318 HD
ATOM     22  H   UNL d   1      29.496 -18.611   0.230  0.00  0.00     0.169 HD
ENDROOT
BRANCH   1  23
ATOM     23  C   UNL d   1      27.514 -13.701  -3.991  0.00  0.00     0.045 C 
BRANCH  23  24
ATOM     24  C   UNL d   1      26.229 -14.544  -4.016  0.00  0.00     0.105 C 
BRANCH  24  25
ATOM     25  C   UNL d   1      24.991 -13.677  -4.019  0.00  0.00     0.215 C 
ATOM     26  N   UNL d   1      25.220 -12.375  -3.668  0.00  0.00    -0.370 N 
ATOM     27  H   UNL d   1      24.405 -11.793  -3.522  0.00  0.00     0.159 HD
ATOM     28  H   UNL d   1      26.092 -12.081  -3.243  0.00  0.00     0.159 HD
ATOM     29  O   UNL d   1      23.860 -14.075  -4.268  0.00  0.00    -0.274 OA
ENDBRANCH  24  25
ENDBRANCH  23  24
ENDBRANCH   1  23
BRANCH  17  30
ATOM     30  C   UNL d   1      26.370 -12.313   1.112  0.00  0.00     0.175 C 
BRANCH  30  31
ATOM     31  C   UNL d   1      26.704 -11.529   2.377  0.00  0.00    -0.018 C 
ATOM     32  C   UNL d   1      26.548 -10.109   2.446  0.00  0.00     0.010 C 
ATOM     33  C   UNL d   1      27.161  -9.358   3.476  0.00  0.00     0.001 C 
ATOM     34  C   UNL d   1      27.790 -10.003   4.529  0.00  0.00     0.002 C 
ATOM     35  C   UNL d   1      27.807 -11.378   4.552  0.00  0.00     0.024 C 
ATOM     36  C   UNL d   1      27.405 -12.102   3.438  0.00  0.00     0.042 C 
ATOM     37 CL   UNL d   1      28.206 -13.607   3.423  0.00  0.00    -0.084 Cl
ENDBRANCH  30  31
ENDBRANCH  17  30
TORSDOF 5
ENDMDL
MODEL 6
REMARK VINA RESULT:    -8.528      1.368      1.672
REMARK INTER + INTRA:         -11.696
REMARK INTER:                 -10.020
REMARK INTRA:                  -1.676
REMARK CONF_INDEPENDENT:        1.492
REMARK UNBOUND:                -1.676
REMARK  5 active torsions:
REMARK  status: ('A' for Active; 'I' for Inactive)
REMARK       I    between atoms: N_1  and  C_2 
REMARK    1  A    between atoms: C_2  and  C_4 
REMARK    2  A    between atoms: C_4  and  C_5 
REMARK    3  A    between atoms: C_6  and  C_5 
REMARK    4  A    between atoms: N_22  and  C_23 
REMARK    5  A    between atoms: C_23  and  C_24 
ROOT
ATOM      1  C   UNL d   1      25.266 -16.649  -1.704  0.00  0.00     0.237 A 
ATOM      2  N   UNL d   1      26.032 -16.759  -0.437  0.00  0.00     0.113 N 
ATOM      3  C   UNL d   1      27.294 -16.021  -0.578  0.00  0.00     0.279 A 
ATOM      4  C   UNL d   1      28.539 -16.916  -0.319  0.00  0.00     0.267 C 
ATOM      5  O   UNL d   1      28.813 -17.964  -0.885  0.00  0.00    -0.270 OA
ATOM      6  N   UNL d   1      29.333 -16.248   0.604  0.00  0.00    -0.324 N 
ATOM      7  C   UNL d   1      28.706 -15.096   1.064  0.00  0.00     0.044 A 
ATOM      8  C   UNL d   1      29.209 -14.142   1.920  0.00  0.00     0.032 A 
ATOM      9  C   UNL d   1      28.424 -13.005   2.159  0.00  0.00     0.026 A 
ATOM     10  C   UNL d   1      27.162 -12.857   1.558  0.00  0.00     0.034 A 
ATOM     11 CL   UNL d   1      26.280 -11.394   1.771  0.00  0.00    -0.084 Cl
ATOM     12  C   UNL d   1      26.648 -13.852   0.729  0.00  0.00     0.036 A 
ATOM     13  C   UNL d   1      27.449 -14.962   0.475  0.00  0.00     0.019 A 
ATOM     14  C   UNL d   1      27.451 -15.554  -2.008  0.00  0.00     0.147 A 
ATOM     15  C   UNL d   1      27.557 -14.068  -2.217  0.00  0.00     0.235 C 
ATOM     16  O   UNL d   1      28.152 -13.271  -1.510  0.00  0.00    -0.272 OA
ATOM     17  N   UNL d   1      26.872 -13.717  -3.332  0.00  0.00    -0.283 N 
ATOM     18  C   UNL d   1      25.879 -14.644  -3.402  0.00  0.00     0.234 C 
ATOM     19  O   UNL d   1      24.780 -14.547  -3.934  0.00  0.00    -0.272 OA
ATOM     20  C   UNL d   1      26.195 -15.950  -2.720  0.00  0.00     0.128 A 
ATOM     21  H   UNL d   1      26.221 -17.734  -0.190  0.00  0.00     0.318 HD
ATOM     22  H   UNL d   1      30.244 -16.581   0.880  0.00  0.00     0.169 HD
ENDROOT
BRANCH   1  23
ATOM     23  C   UNL d   1      23.884 -16.047  -1.383  0.00  0.00     0.045 C 
BRANCH  23  24
ATOM     24  C   UNL d   1      23.124 -16.582  -0.160  0.00  0.00     0.105 C 
BRANCH  24  25
ATOM     25  C   UNL d   1      23.251 -18.084  -0.036  0.00  0.00     0.215 C 
ATOM     26  N   UNL d   1      22.109 -18.709   0.386  0.00  0.00    -0.370 N 
ATOM     27  H   UNL d   1      22.186 -19.691   0.614  0.00  0.00     0.159 HD
ATOM     28  H   UNL d   1      21.331 -18.192   0.779  0.00  0.00     0.159 HD
ATOM     29  O   UNL d   1      24.277 -18.718  -0.247  0.00  0.00    -0.274 OA
ENDBRANCH  24  25
ENDBRANCH  23  24
ENDBRANCH   1  23
BRANCH  17  30
ATOM     30  C   UNL d   1      26.982 -12.254  -3.686  0.00  0.00     0.175 C 
BRANCH  30  31
ATOM     31  C   UNL d   1      27.114 -11.756  -5.122  0.00  0.00    -0.018 C 
ATOM     32  C   UNL d   1      26.390 -10.616  -5.593  0.00  0.00     0.010 C 
ATOM     33  C   UNL d   1      26.254 -10.361  -6.978  0.00  0.00     0.001 C 
ATOM     34  C   UNL d   1      26.956 -11.123  -7.899  0.00  0.00     0.002 C 
ATOM     35  C   UNL d   1      27.781 -12.123  -7.443  0.00  0.00     0.024 C 
ATOM     36  C   UNL d   1      27.741 -12.513  -6.112  0.00  0.00     0.042 C 
ATOM     37 CL   UNL d   1      28.214 -14.146  -5.986  0.00  0.00    -0.084 Cl
ENDBRANCH  30  31
ENDBRANCH  17  30
TORSDOF 5
ENDMDL
MODEL 7
REMARK VINA RESULT:    -7.954      3.045      6.581
REMARK INTER + INTRA:         -11.669
REMARK INTER:                  -9.445
REMARK INTRA:                  -2.224
REMARK CONF_INDEPENDENT:        1.492
REMARK UNBOUND:                -2.224
REMARK  5 active torsions:
REMARK  status: ('A' for Active; 'I' for Inactive)
REMARK       I    between atoms: N_1  and  C_2 
REMARK    1  A    between atoms: C_2  and  C_4 
REMARK    2  A    between atoms: C_4  and  C_5 
REMARK    3  A    between atoms: C_6  and  C_5 
REMARK    4  A    between atoms: N_22  and  C_23 
REMARK    5  A    between atoms: C_23  and  C_24 
ROOT
ATOM      1  C   UNL d   1      27.462 -13.265  -5.428  0.00  0.00     0.237 A 
ATOM      2  N   UNL d   1      28.214 -12.298  -4.589  0.00  0.00     0.113 N 
ATOM      3  C   UNL d   1      27.413 -11.973  -3.402  0.00  0.00     0.279 A 
ATOM      4  C   UNL d   1      27.138 -10.448  -3.268  0.00  0.00     0.267 C 
ATOM      5  O   UNL d   1      26.622  -9.725  -4.108  0.00  0.00    -0.270 OA
ATOM      6  N   UNL d   1      27.496 -10.084  -1.977  0.00  0.00    -0.324 N 
ATOM      7  C   UNL d   1      28.077 -11.149  -1.298  0.00  0.00     0.044 A 
ATOM      8  C   UNL d   1      28.485 -11.194   0.016  0.00  0.00     0.032 A 
ATOM      9  C   UNL d   1      28.950 -12.421   0.510  0.00  0.00     0.026 A 
ATOM     10  C   UNL d   1      29.011 -13.557  -0.316  0.00  0.00     0.034 A 
ATOM     11 CL   UNL d   1      29.466 -15.077   0.353  0.00  0.00    -0.084 Cl
ATOM     12  C   UNL d   1      28.637 -13.484  -1.655  0.00  0.00     0.036 A 
ATOM     13  C   UNL d   1      28.148 -12.268  -2.126  0.00  0.00     0.019 A 
ATOM     14  C   UNL d   1      26.042 -12.597  -3.529  0.00  0.00     0.147 A 
ATOM     15  C   UNL d   1      25.654 -13.582  -2.461  0.00  0.00     0.235 C 
ATOM     16  O   UNL d   1      25.905 -13.503  -1.269  0.00  0.00    -0.272 OA
ATOM     17  N   UNL d   1      24.972 -14.611  -3.018  0.00  0.00    -0.283 N 
ATOM     18  C   UNL d   1      25.480 -14.687  -4.277  0.00  0.00     0.234 C 
ATOM     19  O   UNL d   1      25.530 -15.658  -5.023  0.00  0.00    -0.272 OA
ATOM     20  C   UNL d   1      26.060 -13.397  -4.795  0.00  0.00     0.128 A 
ATOM     21  H   UNL d   1      28.441 -11.443  -5.104  0.00  0.00     0.318 HD
ATOM     22  H   UNL d   1      27.337  -9.159  -1.609  0.00  0.00     0.169 HD
ENDROOT
BRANCH   1  23
ATOM     23  C   UNL d   1      28.339 -14.517  -5.626  0.00  0.00     0.045 C 
BRANCH  23  24
ATOM     24  C   UNL d   1      29.484 -14.448  -6.649  0.00  0.00     0.105 C 
BRANCH  24  25
ATOM     25  C   UNL d   1      29.700 -13.038  -7.152  0.00  0.00     0.215 C 
ATOM     26  N   UNL d   1      29.548 -12.898  -8.504  0.00  0.00    -0.370 N 
ATOM     27  H   UNL d   1      29.816 -12.007  -8.901  0.00  0.00     0.159 HD
ATOM     28  H   UNL d   1      29.507 -13.698  -9.123  0.00  0.00     0.159 HD
ATOM     29  O   UNL d   1      30.024 -12.088  -6.449  0.00  0.00    -0.274 OA
ENDBRANCH  24  25
ENDBRANCH  23  24
ENDBRANCH   1  23
BRANCH  17  30
ATOM     30  C   UNL d   1      24.458 -15.620  -2.020  0.00  0.00     0.175 C 
BRANCH  30  31
ATOM     31  C   UNL d   1      25.378 -16.433  -1.114  0.00  0.00    -0.018 C 
ATOM     32  C   UNL d   1      26.795 -16.458  -1.308  0.00  0.00     0.010 C 
ATOM     33  C   UNL d   1      27.596 -17.451  -0.697  0.00  0.00     0.001 C 
ATOM     34  C   UNL d   1      27.042 -18.321   0.229  0.00  0.00     0.002 C 
ATOM     35  C   UNL d   1      25.708 -18.200   0.540  0.00  0.00     0.024 C 
ATOM     36  C   UNL d   1      24.883 -17.380  -0.217  0.00  0.00     0.042 C 
ATOM     37 CL   UNL d   1      23.285 -17.968  -0.150  0.00  0.00    -0.084 Cl
ENDBRANCH  30  31
ENDBRANCH  17  30
TORSDOF 5
ENDMDL
MODEL 8
REMARK VINA RESULT:    -7.899      3.551      7.346
REMARK INTER + INTRA:         -11.058
REMARK INTER:                  -9.390
REMARK INTRA:                  -1.668
REMARK CONF_INDEPENDENT:        1.492
REMARK UNBOUND:                -1.668
REMARK  5 active torsions:
REMARK  status: ('A' for Active; 'I' for Inactive)
REMARK       I    between atoms: N_1  and  C_2 
REMARK    1  A    between atoms: C_2  and  C_4 
REMARK    2  A    between atoms: C_4  and  C_5 
REMARK    3  A    between atoms: C_6  and  C_5 
REMARK    4  A    between atoms: N_22  and  C_23 
REMARK    5  A    between atoms: C_23  and  C_24 
ROOT
ATOM      1  C   UNL d   1      28.083 -13.543  -5.820  0.00  0.00     0.237 A 
ATOM      2  N   UNL d   1      27.962 -12.063  -5.785  0.00  0.00     0.113 N 
ATOM      3  C   UNL d   1      26.756 -11.702  -5.031  0.00  0.00     0.279 A 
ATOM      4  C   UNL d   1      25.773 -10.829  -5.862  0.00  0.00     0.267 C 
ATOM      5  O   UNL d   1      25.296 -11.108  -6.953  0.00  0.00    -0.270 OA
ATOM      6  N   UNL d   1      25.459  -9.721  -5.087  0.00  0.00    -0.324 N 
ATOM      7  C   UNL d   1      26.203  -9.704  -3.913  0.00  0.00     0.044 A 
ATOM      8  C   UNL d   1      26.115  -8.813  -2.867  0.00  0.00     0.032 A 
ATOM      9  C   UNL d   1      26.902  -9.061  -1.733  0.00  0.00     0.026 A 
ATOM     10  C   UNL d   1      27.762 -10.172  -1.679  0.00  0.00     0.034 A 
ATOM     11 CL   UNL d   1      28.618 -10.520  -0.226  0.00  0.00    -0.084 Cl
ATOM     12  C   UNL d   1      27.873 -11.039  -2.763  0.00  0.00     0.036 A 
ATOM     13  C   UNL d   1      27.064 -10.800  -3.870  0.00  0.00     0.019 A 
ATOM     14  C   UNL d   1      25.970 -12.951  -4.701  0.00  0.00     0.147 A 
ATOM     15  C   UNL d   1      25.754 -13.238  -3.241  0.00  0.00     0.235 C 
ATOM     16  O   UNL d   1      25.519 -12.423  -2.363  0.00  0.00    -0.272 OA
ATOM     17  N   UNL d   1      25.865 -14.569  -3.019  0.00  0.00    -0.283 N 
ATOM     18  C   UNL d   1      26.740 -14.981  -3.974  0.00  0.00     0.234 C 
ATOM     19  O   UNL d   1      27.487 -15.953  -3.959  0.00  0.00    -0.272 OA
ATOM     20  C   UNL d   1      26.786 -14.104  -5.199  0.00  0.00     0.128 A 
ATOM     21  H   UNL d   1      27.922 -11.663  -6.726  0.00  0.00     0.318 HD
ATOM     22  H   UNL d   1      24.773  -9.038  -5.367  0.00  0.00     0.169 HD
ENDROOT
BRANCH   1  23
ATOM     23  C   UNL d   1      29.452 -13.931  -5.227  0.00  0.00     0.045 C 
BRANCH  23  24
ATOM     24  C   UNL d   1      30.719 -13.514  -5.990  0.00  0.00     0.105 C 
BRANCH  24  25
ATOM     25  C   UNL d   1      30.428 -13.232  -7.447  0.00  0.00     0.215 C 
ATOM     26  N   UNL d   1      31.151 -13.998  -8.319  0.00  0.00    -0.370 N 
ATOM     27  H   UNL d   1      31.092 -13.750  -9.298  0.00  0.00     0.159 HD
ATOM     28  H   UNL d   1      31.952 -14.541  -8.017  0.00  0.00     0.159 HD
ATOM     29  O   UNL d   1      29.651 -12.375  -7.850  0.00  0.00    -0.274 OA
ENDBRANCH  24  25
ENDBRANCH  23  24
ENDBRANCH   1  23
BRANCH  17  30
ATOM     30  C   UNL d   1      25.581 -14.982  -1.595  0.00  0.00     0.175 C 
BRANCH  30  31
ATOM     31  C   UNL d   1      24.837 -16.264  -1.235  0.00  0.00    -0.018 C 
ATOM     32  C   UNL d   1      23.408 -16.337  -1.256  0.00  0.00     0.010 C 
ATOM     33  C   UNL d   1      22.724 -17.394  -0.614  0.00  0.00     0.001 C 
ATOM     34  C   UNL d   1      23.431 -18.466  -0.089  0.00  0.00     0.002 C 
ATOM     35  C   UNL d   1      24.800 -18.479  -0.206  0.00  0.00     0.024 C 
ATOM     36  C   UNL d   1      25.479 -17.346  -0.632  0.00  0.00     0.042 C 
ATOM     37 CL   UNL d   1      27.054 -17.350   0.020  0.00  0.00    -0.084 Cl
ENDBRANCH  30  31
ENDBRANCH  17  30
TORSDOF 5
ENDMDL
MODEL 9
REMARK VINA RESULT:    -7.466      2.830      6.065
REMARK INTER + INTRA:         -11.016
REMARK INTER:                  -8.957
REMARK INTRA:                  -2.059
REMARK CONF_INDEPENDENT:        1.492
REMARK UNBOUND:                -2.059
REMARK  5 active torsions:
REMARK  status: ('A' for Active; 'I' for Inactive)
REMARK       I    between atoms: N_1  and  C_2 
REMARK    1  A    between atoms: C_2  and  C_4 
REMARK    2  A    between atoms: C_4  and  C_5 
REMARK    3  A    between atoms: C_6  and  C_5 
REMARK    4  A    between atoms: N_22  and  C_23 
REMARK    5  A    between atoms: C_23  and  C_24 
ROOT
ATOM      1  C   UNL d   1      30.350 -14.435   0.428  0.00  0.00     0.237 A 
ATOM      2  N   UNL d   1      31.164 -15.078  -0.634  0.00  0.00     0.113 N 
ATOM      3  C   UNL d   1      30.412 -16.208  -1.192  0.00  0.00     0.279 A 
ATOM      4  C   UNL d   1      31.187 -17.552  -1.084  0.00  0.00     0.267 C 
ATOM      5  O   UNL d   1      31.642 -18.050  -0.064  0.00  0.00    -0.270 OA
ATOM      6  N   UNL d   1      31.178 -18.128  -2.347  0.00  0.00    -0.324 N 
ATOM      7  C   UNL d   1      30.601 -17.277  -3.282  0.00  0.00     0.044 A 
ATOM      8  C   UNL d   1      30.346 -17.528  -4.612  0.00  0.00     0.032 A 
ATOM      9  C   UNL d   1      29.656 -16.546  -5.337  0.00  0.00     0.026 A 
ATOM     10  C   UNL d   1      29.256 -15.344  -4.728  0.00  0.00     0.034 A 
ATOM     11 CL   UNL d   1      28.300 -14.216  -5.611  0.00  0.00    -0.084 Cl
ATOM     12  C   UNL d   1      29.560 -15.087  -3.394  0.00  0.00     0.036 A 
ATOM     13  C   UNL d   1      30.219 -16.081  -2.676  0.00  0.00     0.019 A 
ATOM     14  C   UNL d   1      29.153 -16.429  -0.384  0.00  0.00     0.147 A 
ATOM     15  C   UNL d   1      27.851 -16.309  -1.127  0.00  0.00     0.235 C 
ATOM     16  O   UNL d   1      27.621 -16.691  -2.264  0.00  0.00    -0.272 OA
ATOM     17  N   UNL d   1      26.936 -15.691  -0.343  0.00  0.00    -0.283 N 
ATOM     18  C   UNL d   1      27.688 -14.877   0.444  0.00  0.00     0.234 C 
ATOM     19  O   UNL d   1      27.359 -13.835   1.000  0.00  0.00    -0.272 OA
ATOM     20  C   UNL d   1      29.111 -15.333   0.636  0.00  0.00     0.128 A 
ATOM     21  H   UNL d   1      32.068 -15.399  -0.278  0.00  0.00     0.318 HD
ATOM     22  H   UNL d   1      31.547 -19.049  -2.527  0.00  0.00     0.169 HD
ENDROOT
BRANCH   1  23
ATOM     23  C   UNL d   1      30.169 -12.947   0.066  0.00  0.00     0.045 C 
BRANCH  23  24
ATOM     24  C   UNL d   1      29.928 -12.582  -1.407  0.00  0.00     0.105 C 
BRANCH  24  25
ATOM     25  C   UNL d   1      28.462 -12.342  -1.690  0.00  0.00     0.215 C 
ATOM     26  N   UNL d   1      27.752 -11.889  -0.612  0.00  0.00    -0.370 N 
ATOM     27  H   UNL d   1      26.746 -11.847  -0.715  0.00  0.00     0.159 HD
ATOM     28  H   UNL d   1      28.129 -11.920   0.328  0.00  0.00     0.159 HD
ATOM     29  O   UNL d   1      27.913 -12.560  -2.763  0.00  0.00    -0.274 OA
ENDBRANCH  24  25
ENDBRANCH  23  24
ENDBRANCH   1  23
BRANCH  17  30
ATOM     30  C   UNL d   1      25.562 -15.593  -0.961  0.00  0.00     0.175 C 
BRANCH  30  31
ATOM     31  C   UNL d   1      24.518 -16.698  -0.842  0.00  0.00    -0.018 C 
ATOM     32  C   UNL d   1      23.119 -16.430  -0.976  0.00  0.00     0.010 C 
ATOM     33  C   UNL d   1      22.153 -17.367  -0.541  0.00  0.00     0.001 C 
ATOM     34  C   UNL d   1      22.545 -18.630  -0.125  0.00  0.00     0.002 C 
ATOM     35  C   UNL d   1      23.882 -18.951  -0.144  0.00  0.00     0.024 C 
ATOM     36  C   UNL d   1      24.837 -17.966  -0.355  0.00  0.00     0.042 C 
ATOM     37 CL   UNL d   1      26.295 -18.420   0.401  0.00  0.00    -0.084 Cl
ENDBRANCH  30  31
ENDBRANCH  17  30
TORSDOF 5
ENDMDL
