MODEL 1
REMARK VINA RESULT:   -10.809      0.000      0.000
REMARK INTER + INTRA:         -12.930
REMARK INTER:                 -12.300
REMARK INTRA:                  -0.629
REMARK CONF_INDEPENDENT:        1.492
REMARK UNBOUND:                -0.629
REMARK  5 active torsions:
REMARK  status: ('A' for Active; 'I' for Inactive)
REMARK       I    between atoms: N_13  and  C_14 
REMARK    1  A    between atoms: C_14  and  C_16 
REMARK    2  A    between atoms: C_16  and  S_17 
REMARK    3  A    between atoms: S_17  and  C_18 
REMARK    4  A    between atoms: C_21  and  N_22 
REMARK    5  A    between atoms: N_22  and  C_23 
ROOT
ATOM      1  C   UNL d   1      28.390 -12.227  -2.698  0.00  0.00     0.033 C 
ATOM      2  C   UNL d   1      26.898 -12.653  -2.637  0.00  0.00     0.097 C 
ATOM      3  C   UNL d   1      25.984 -11.433  -2.825  0.00  0.00     0.122 C 
ATOM      4  C   UNL d   1      26.237 -10.722  -4.129  0.00  0.00     0.203 C 
ATOM      5  O   UNL d   1      26.761  -9.594  -4.160  0.00  0.00    -0.279 OA
ATOM      6  N   UNL d   1      25.903 -11.376  -5.285  0.00  0.00    -0.227 NA
ATOM      7  C   UNL d   1      26.787 -12.396  -5.704  0.00  0.00     0.042 A 
ATOM      8  C   UNL d   1      27.419 -12.110  -6.922  0.00  0.00     0.026 A 
ATOM      9  C   UNL d   1      28.452 -12.908  -7.387  0.00  0.00     0.002 A 
ATOM     10  C   UNL d   1      28.829 -14.022  -6.642  0.00  0.00     0.002 A 
ATOM     11  C   UNL d   1      28.158 -14.356  -5.442  0.00  0.00     0.031 A 
ATOM     12  C   UNL d   1      27.116 -13.547  -4.942  0.00  0.00     0.059 A 
ATOM     13  N   UNL d   1      26.588 -13.763  -3.590  0.00  0.00    -0.311 N 
ATOM     14  C   UNL d   1      25.791 -14.918  -3.320  0.00  0.00     0.234 C 
ATOM     15  O   UNL d   1      25.598 -15.750  -4.214  0.00  0.00    -0.272 OA
ATOM     16  H   UNL d   1      24.933 -11.664  -5.354  0.00  0.00     0.136 HD
ENDROOT
BRANCH  14  17
ATOM     17  C   UNL d   1      25.115 -15.121  -1.893  0.00  0.00     0.184 C 
BRANCH  17  18
ATOM     18  S   UNL d   1      25.361 -16.850  -1.254  0.00  0.00    -0.092 SA
BRANCH  18  19
ATOM     19  C   UNL d   1      23.781 -17.655  -1.242  0.00  0.00     0.160 A 
ATOM     20  N   UNL d   1      23.601 -18.954  -1.345  0.00  0.00    -0.133 NA
ATOM     21  N   UNL d   1      22.255 -19.321  -1.201  0.00  0.00    -0.122 NA
ATOM     22  C   UNL d   1      21.437 -18.298  -1.011  0.00  0.00     0.195 A 
ATOM     23  S   UNL d   1      22.328 -16.803  -0.889  0.00  0.00    -0.022 SA
BRANCH  22  24
ATOM     24  N   UNL d   1      20.074 -18.409  -0.879  0.00  0.00    -0.334 N 
ATOM     25  H   UNL d   1      19.482 -17.863  -1.498  0.00  0.00     0.168 HD
BRANCH  24  26
ATOM     26  C   UNL d   1      19.387 -19.294  -0.021  0.00  0.00     0.034 C 
ATOM     27  C   UNL d   1      19.682 -19.325   1.348  0.00  0.00     0.029 C 
ATOM     28  C   UNL d   1      19.245 -20.374   2.155  0.00  0.00     0.002 C 
ATOM     29  C   UNL d   1      18.395 -21.342   1.632  0.00  0.00     0.000 C 
ATOM     30  C   UNL d   1      17.958 -21.237   0.313  0.00  0.00     0.002 C 
ATOM     31  C   UNL d   1      18.479 -20.237  -0.522  0.00  0.00     0.029 C 
ENDBRANCH  24  26
ENDBRANCH  22  24
ENDBRANCH  18  19
ENDBRANCH  17  18
ENDBRANCH  14  17
TORSDOF 5
ENDMDL
MODEL 2
REMARK VINA RESULT:   -10.003      1.726      2.990
REMARK INTER + INTRA:         -12.424
REMARK INTER:                 -11.495
REMARK INTRA:                  -0.929
REMARK CONF_INDEPENDENT:        1.492
REMARK UNBOUND:                -0.929
REMARK  5 active torsions:
REMARK  status: ('A' for Active; 'I' for Inactive)
REMARK       I    between atoms: N_13  and  C_14 
REMARK    1  A    between atoms: C_14  and  C_16 
REMARK    2  A    between atoms: C_16  and  S_17 
REMARK    3  A    between atoms: S_17  and  C_18 
REMARK    4  A    between atoms: C_21  and  N_22 
REMARK    5  A    between atoms: N_22  and  C_23 
ROOT
ATOM      1  C   UNL d   1      24.410 -13.960  -3.809  0.00  0.00     0.033 C 
ATOM      2  C   UNL d   1      25.452 -14.567  -2.832  0.00  0.00     0.097 C 
ATOM      3  C   UNL d   1      26.263 -15.669  -3.530  0.00  0.00     0.122 C 
ATOM      4  C   UNL d   1      26.980 -15.164  -4.757  0.00  0.00     0.203 C 
ATOM      5  O   UNL d   1      26.633 -15.515  -5.899  0.00  0.00    -0.279 OA
ATOM      6  N   UNL d   1      28.004 -14.275  -4.573  0.00  0.00    -0.227 NA
ATOM      7  C   UNL d   1      27.632 -12.943  -4.278  0.00  0.00     0.042 A 
ATOM      8  C   UNL d   1      28.007 -12.034  -5.278  0.00  0.00     0.026 A 
ATOM      9  C   UNL d   1      27.560 -10.723  -5.243  0.00  0.00     0.002 A 
ATOM     10  C   UNL d   1      26.761 -10.312  -4.179  0.00  0.00     0.002 A 
ATOM     11  C   UNL d   1      26.427 -11.204  -3.133  0.00  0.00     0.031 A 
ATOM     12  C   UNL d   1      26.856 -12.548  -3.158  0.00  0.00     0.059 A 
ATOM     13  N   UNL d   1      26.315 -13.521  -2.203  0.00  0.00    -0.311 N 
ATOM     14  C   UNL d   1      26.697 -13.447  -0.828  0.00  0.00     0.234 C 
ATOM     15  O   UNL d   1      27.439 -12.533  -0.447  0.00  0.00    -0.272 OA
ATOM     16  H   UNL d   1      28.756 -14.599  -3.974  0.00  0.00     0.136 HD
ENDROOT
BRANCH  14  17
ATOM     17  C   UNL d   1      26.213 -14.554   0.208  0.00  0.00     0.184 C 
BRANCH  17  18
ATOM     18  S   UNL d   1      26.789 -16.254  -0.281  0.00  0.00    -0.092 SA
BRANCH  18  19
ATOM     19  C   UNL d   1      25.357 -17.286  -0.451  0.00  0.00     0.160 A 
ATOM     20  N   UNL d   1      25.241 -18.494   0.054  0.00  0.00    -0.133 NA
ATOM     21  N   UNL d   1      23.963 -19.037  -0.147  0.00  0.00    -0.122 NA
ATOM     22  C   UNL d   1      23.141 -18.243  -0.814  0.00  0.00     0.195 A 
ATOM     23  S   UNL d   1      23.892 -16.702  -1.140  0.00  0.00    -0.022 SA
BRANCH  22  24
ATOM     24  N   UNL d   1      21.853 -18.574  -1.159  0.00  0.00    -0.334 N 
ATOM     25  H   UNL d   1      21.593 -18.548  -2.140  0.00  0.00     0.168 HD
BRANCH  24  26
ATOM     26  C   UNL d   1      20.850 -19.050  -0.287  0.00  0.00     0.034 C 
ATOM     27  C   UNL d   1      21.023 -18.975   1.100  0.00  0.00     0.029 C 
ATOM     28  C   UNL d   1      20.204 -19.694   1.969  0.00  0.00     0.002 C 
ATOM     29  C   UNL d   1      19.115 -20.398   1.469  0.00  0.00     0.000 C 
ATOM     30  C   UNL d   1      18.831 -20.352   0.105  0.00  0.00     0.002 C 
ATOM     31  C   UNL d   1      19.714 -19.710  -0.775  0.00  0.00     0.029 C 
ENDBRANCH  24  26
ENDBRANCH  22  24
ENDBRANCH  18  19
ENDBRANCH  17  18
ENDBRANCH  14  17
TORSDOF 5
ENDMDL
MODEL 3
REMARK VINA RESULT:    -9.379      4.763      7.635
REMARK INTER + INTRA:         -11.698
REMARK INTER:                 -10.870
REMARK INTRA:                  -0.828
REMARK CONF_INDEPENDENT:        1.492
REMARK UNBOUND:                -0.828
REMARK  5 active torsions:
REMARK  status: ('A' for Active; 'I' for Inactive)
REMARK       I    between atoms: N_13  and  C_14 
REMARK    1  A    between atoms: C_14  and  C_16 
REMARK    2  A    between atoms: C_16  and  S_17 
REMARK    3  A    between atoms: S_17  and  C_18 
REMARK    4  A    between atoms: C_21  and  N_22 
REMARK    5  A    between atoms: N_22  and  C_23 
ROOT
ATOM      1  C   UNL d   1      33.073 -17.880  -6.774  0.00  0.00     0.033 C 
ATOM      2  C   UNL d   1      31.658 -17.440  -7.238  0.00  0.00     0.097 C 
ATOM      3  C   UNL d   1      31.155 -18.355  -8.365  0.00  0.00     0.122 C 
ATOM      4  C   UNL d   1      31.106 -19.803  -7.950  0.00  0.00     0.203 C 
ATOM      5  O   UNL d   1      31.895 -20.639  -8.424  0.00  0.00    -0.279 OA
ATOM      6  N   UNL d   1      30.184 -20.161  -7.002  0.00  0.00    -0.227 NA
ATOM      7  C   UNL d   1      30.495 -19.819  -5.666  0.00  0.00     0.042 A 
ATOM      8  C   UNL d   1      30.682 -20.938  -4.842  0.00  0.00     0.026 A 
ATOM      9  C   UNL d   1      31.173 -20.792  -3.555  0.00  0.00     0.002 A 
ATOM     10  C   UNL d   1      31.445 -19.513  -3.078  0.00  0.00     0.002 A 
ATOM     11  C   UNL d   1      31.203 -18.372  -3.880  0.00  0.00     0.031 A 
ATOM     12  C   UNL d   1      30.720 -18.499  -5.199  0.00  0.00     0.059 A 
ATOM     13  N   UNL d   1      30.695 -17.340  -6.099  0.00  0.00    -0.311 N 
ATOM     14  C   UNL d   1      29.747 -16.293  -5.876  0.00  0.00     0.234 C 
ATOM     15  O   UNL d   1      28.993 -16.350  -4.897  0.00  0.00    -0.272 OA
ATOM     16  H   UNL d   1      29.220 -19.946  -7.234  0.00  0.00     0.136 HD
ENDROOT
BRANCH  14  17
ATOM     17  C   UNL d   1      29.625 -15.080  -6.898  0.00  0.00     0.184 C 
BRANCH  17  18
ATOM     18  S   UNL d   1      28.725 -13.636  -6.147  0.00  0.00    -0.092 SA
BRANCH  18  19
ATOM     19  C   UNL d   1      27.308 -14.265  -5.287  0.00  0.00     0.160 A 
ATOM     20  N   UNL d   1      26.507 -15.201  -5.746  0.00  0.00    -0.133 NA
ATOM     21  N   UNL d   1      25.530 -15.575  -4.811  0.00  0.00    -0.122 NA
ATOM     22  C   UNL d   1      25.594 -14.907  -3.671  0.00  0.00     0.195 A 
ATOM     23  S   UNL d   1      26.967 -13.832  -3.656  0.00  0.00    -0.022 SA
BRANCH  22  24
ATOM     24  N   UNL d   1      24.722 -15.077  -2.623  0.00  0.00    -0.334 N 
ATOM     25  H   UNL d   1      23.870 -14.525  -2.609  0.00  0.00     0.168 HD
BRANCH  24  26
ATOM     26  C   UNL d   1      24.835 -16.028  -1.587  0.00  0.00     0.034 C 
ATOM     27  C   UNL d   1      26.054 -16.208  -0.921  0.00  0.00     0.029 C 
ATOM     28  C   UNL d   1      26.277 -17.323  -0.116  0.00  0.00     0.002 C 
ATOM     29  C   UNL d   1      25.238 -18.211   0.141  0.00  0.00     0.000 C 
ATOM     30  C   UNL d   1      23.971 -17.958  -0.381  0.00  0.00     0.002 C 
ATOM     31  C   UNL d   1      23.777 -16.891  -1.271  0.00  0.00     0.029 C 
ENDBRANCH  24  26
ENDBRANCH  22  24
ENDBRANCH  18  19
ENDBRANCH  17  18
ENDBRANCH  14  17
TORSDOF 5
ENDMDL
