MODEL 1
REMARK VINA RESULT:    -9.446      0.000      0.000
REMARK INTER + INTRA:         -13.714
REMARK INTER:                 -11.534
REMARK INTRA:                  -2.180
REMARK CONF_INDEPENDENT:        2.088
REMARK UNBOUND:                -2.180
REMARK  7 active torsions:
REMARK  status: ('A' for Active; 'I' for Inactive)
REMARK    1  A    between atoms: C_2  and  C_3 
REMARK       I    between atoms: C_2  and  N_11 
REMARK    2  A    between atoms: C_3  and  C_4 
REMARK    3  A    between atoms: C_9  and  O_10 
REMARK    4  A    between atoms: N_11  and  N_12 
REMARK       I    between atoms: N_12  and  C_13 
REMARK    5  A    between atoms: C_13  and  C_15 
REMARK    6  A    between atoms: N_17  and  C_18 
REMARK    7  A    between atoms: C_25  and  C_26 
ROOT
ATOM      1  C   UNL d   1      25.032 -17.418  -0.200  0.00  0.00     0.082 A 
ATOM      2  C   UNL d   1      24.068 -18.233   0.366  0.00  0.00     0.138 A 
ATOM      3  N   UNL d   1      22.920 -18.077  -0.381  0.00  0.00    -0.244 N 
ATOM      4  N   UNL d   1      23.102 -17.225  -1.417  0.00  0.00    -0.166 NA
ATOM      5  C   UNL d   1      24.354 -16.760  -1.267  0.00  0.00     0.105 A 
ENDROOT
BRANCH   1   6
ATOM      6  C   UNL d   1      26.414 -17.236   0.199  0.00  0.00     0.274 C 
ATOM      7  N   UNL d   1      26.840 -15.920   0.286  0.00  0.00    -0.263 N 
ATOM      8  H   UNL d   1      26.189 -15.148   0.200  0.00  0.00     0.190 HD
ATOM      9  O   UNL d   1      27.152 -18.183   0.486  0.00  0.00    -0.266 OA
BRANCH   7  10
ATOM     10  N   UNL d   1      28.144 -15.693   0.745  0.00  0.00    -0.267 N 
ATOM     11  C   UNL d   1      28.545 -14.732   1.641  0.00  0.00     0.240 C 
ATOM     12  O   UNL d   1      29.685 -14.825   2.098  0.00  0.00    -0.272 OA
ATOM     13  H   UNL d   1      28.842 -16.401   0.506  0.00  0.00     0.190 HD
BRANCH  11  14
ATOM     14  C   UNL d   1      27.530 -13.654   2.035  0.00  0.00     0.146 C 
BRANCH  14  15
ATOM     15  C   UNL d   1      27.647 -13.111   3.446  0.00  0.00    -0.016 A 
ATOM     16  C   UNL d   1      27.687 -11.721   3.657  0.00  0.00     0.010 A 
ATOM     17  C   UNL d   1      27.787 -11.198   4.950  0.00  0.00     0.001 A 
ATOM     18  C   UNL d   1      27.825 -12.053   6.049  0.00  0.00     0.003 A 
ATOM     19  C   UNL d   1      27.811 -13.433   5.857  0.00  0.00     0.037 A 
ATOM     20  C   UNL d   1      27.782 -13.944   4.563  0.00  0.00     0.072 A 
BRANCH  20  21
ATOM     21  O   UNL d   1      27.960 -15.286   4.381  0.00  0.00    -0.360 OA
ATOM     22  H   UNL d   1      28.862 -15.427   4.045  0.00  0.00     0.217 HD
ENDBRANCH  20  21
ENDBRANCH  14  15
ENDBRANCH  11  14
ENDBRANCH   7  10
ENDBRANCH   1   6
BRANCH   5  23
ATOM     23  C   UNL d   1      24.957 -15.818  -2.208  0.00  0.00    -0.005 A 
ATOM     24  C   UNL d   1      26.241 -16.004  -2.731  0.00  0.00     0.014 A 
ATOM     25  C   UNL d   1      26.769 -15.068  -3.629  0.00  0.00     0.001 A 
ATOM     26  C   UNL d   1      25.989 -13.996  -4.068  0.00  0.00     0.000 A 
ATOM     27  C   UNL d   1      24.701 -13.823  -3.569  0.00  0.00     0.001 A 
ATOM     28  C   UNL d   1      24.193 -14.722  -2.634  0.00  0.00     0.014 A 
ENDBRANCH   5  23
BRANCH   3  29
ATOM     29  C   UNL d   1      21.657 -18.664  -0.123  0.00  0.00     0.058 A 
ATOM     30  C   UNL d   1      21.266 -18.950   1.192  0.00  0.00     0.031 A 
ATOM     31  C   UNL d   1      20.062 -19.626   1.428  0.00  0.00     0.002 A 
ATOM     32  C   UNL d   1      19.239 -19.987   0.361  0.00  0.00     0.000 A 
ATOM     33  C   UNL d   1      19.627 -19.695  -0.947  0.00  0.00     0.002 A 
ATOM     34  C   UNL d   1      20.828 -19.022  -1.194  0.00  0.00     0.031 A 
ENDBRANCH   3  29
TORSDOF 7
ENDMDL
MODEL 2
REMARK VINA RESULT:    -8.806      1.368      2.083
REMARK INTER + INTRA:         -13.551
REMARK INTER:                 -10.894
REMARK INTRA:                  -2.657
REMARK CONF_INDEPENDENT:        2.088
REMARK UNBOUND:                -2.657
REMARK  7 active torsions:
REMARK  status: ('A' for Active; 'I' for Inactive)
REMARK    1  A    between atoms: C_2  and  C_3 
REMARK       I    between atoms: C_2  and  N_11 
REMARK    2  A    between atoms: C_3  and  C_4 
REMARK    3  A    between atoms: C_9  and  O_10 
REMARK    4  A    between atoms: N_11  and  N_12 
REMARK       I    between atoms: N_12  and  C_13 
REMARK    5  A    between atoms: C_13  and  C_15 
REMARK    6  A    between atoms: N_17  and  C_18 
REMARK    7  A    between atoms: C_25  and  C_26 
ROOT
ATOM      1  C   UNL d   1      25.334 -17.640  -0.191  0.00  0.00     0.082 A 
ATOM      2  C   UNL d   1      24.323 -18.478   0.240  0.00  0.00     0.138 A 
ATOM      3  N   UNL d   1      23.196 -18.155  -0.484  0.00  0.00    -0.244 N 
ATOM      4  N   UNL d   1      23.436 -17.169  -1.380  0.00  0.00    -0.166 NA
ATOM      5  C   UNL d   1      24.707 -16.796  -1.153  0.00  0.00     0.105 A 
ENDROOT
BRANCH   1   6
ATOM      6  C   UNL d   1      26.717 -17.590   0.242  0.00  0.00     0.274 C 
ATOM      7  N   UNL d   1      27.661 -17.611  -0.774  0.00  0.00    -0.263 N 
ATOM      8  H   UNL d   1      27.389 -17.536  -1.747  0.00  0.00     0.190 HD
ATOM      9  O   UNL d   1      27.038 -17.491   1.430  0.00  0.00    -0.266 OA
BRANCH   7  10
ATOM     10  N   UNL d   1      29.007 -17.485  -0.407  0.00  0.00    -0.267 N 
ATOM     11  C   UNL d   1      29.634 -16.346   0.038  0.00  0.00     0.240 C 
ATOM     12  O   UNL d   1      30.757 -16.475   0.528  0.00  0.00    -0.272 OA
ATOM     13  H   UNL d   1      29.540 -18.353  -0.319  0.00  0.00     0.190 HD
BRANCH  11  14
ATOM     14  C   UNL d   1      28.871 -15.023  -0.067  0.00  0.00     0.146 C 
BRANCH  14  15
ATOM     15  C   UNL d   1      28.385 -14.427   1.241  0.00  0.00    -0.016 A 
ATOM     16  C   UNL d   1      27.127 -13.801   1.297  0.00  0.00     0.010 A 
ATOM     17  C   UNL d   1      26.655 -13.253   2.493  0.00  0.00     0.001 A 
ATOM     18  C   UNL d   1      27.422 -13.342   3.653  0.00  0.00     0.003 A 
ATOM     19  C   UNL d   1      28.680 -13.937   3.611  0.00  0.00     0.037 A 
ATOM     20  C   UNL d   1      29.170 -14.417   2.399  0.00  0.00     0.072 A 
BRANCH  20  21
ATOM     21  O   UNL d   1      30.473 -14.823   2.330  0.00  0.00    -0.360 OA
ATOM     22  H   UNL d   1      30.482 -15.792   2.238  0.00  0.00     0.217 HD
ENDBRANCH  20  21
ENDBRANCH  14  15
ENDBRANCH  11  14
ENDBRANCH   7  10
ENDBRANCH   1   6
BRANCH   5  23
ATOM     23  C   UNL d   1      25.369 -15.757  -1.938  0.00  0.00    -0.005 A 
ATOM     24  C   UNL d   1      25.888 -14.596  -1.353  0.00  0.00     0.014 A 
ATOM     25  C   UNL d   1      26.513 -13.633  -2.156  0.00  0.00     0.001 A 
ATOM     26  C   UNL d   1      26.692 -13.864  -3.521  0.00  0.00     0.000 A 
ATOM     27  C   UNL d   1      26.200 -15.029  -4.101  0.00  0.00     0.001 A 
ATOM     28  C   UNL d   1      25.530 -15.965  -3.315  0.00  0.00     0.014 A 
ENDBRANCH   5  23
BRANCH   3  29
ATOM     29  C   UNL d   1      21.901 -18.709  -0.326  0.00  0.00     0.058 A 
ATOM     30  C   UNL d   1      21.093 -18.950  -1.444  0.00  0.00     0.031 A 
ATOM     31  C   UNL d   1      19.778 -19.397  -1.269  0.00  0.00     0.002 A 
ATOM     32  C   UNL d   1      19.282 -19.632   0.013  0.00  0.00     0.000 A 
ATOM     33  C   UNL d   1      20.090 -19.399   1.126  0.00  0.00     0.002 A 
ATOM     34  C   UNL d   1      21.405 -18.950   0.962  0.00  0.00     0.031 A 
ENDBRANCH   3  29
TORSDOF 7
ENDMDL
MODEL 3
REMARK VINA RESULT:    -8.776      3.154      5.312
REMARK INTER + INTRA:         -13.306
REMARK INTER:                 -10.864
REMARK INTRA:                  -2.442
REMARK CONF_INDEPENDENT:        2.088
REMARK UNBOUND:                -2.442
REMARK  7 active torsions:
REMARK  status: ('A' for Active; 'I' for Inactive)
REMARK    1  A    between atoms: C_2  and  C_3 
REMARK       I    between atoms: C_2  and  N_11 
REMARK    2  A    between atoms: C_3  and  C_4 
REMARK    3  A    between atoms: C_9  and  O_10 
REMARK    4  A    between atoms: N_11  and  N_12 
REMARK       I    between atoms: N_12  and  C_13 
REMARK    5  A    between atoms: C_13  and  C_15 
REMARK    6  A    between atoms: N_17  and  C_18 
REMARK    7  A    between atoms: C_25  and  C_26 
ROOT
ATOM      1  C   UNL d   1      25.012 -17.985  -0.099  0.00  0.00     0.082 A 
ATOM      2  C   UNL d   1      23.983 -18.856   0.206  0.00  0.00     0.138 A 
ATOM      3  N   UNL d   1      22.823 -18.295  -0.282  0.00  0.00    -0.244 N 
ATOM      4  N   UNL d   1      23.055 -17.119  -0.911  0.00  0.00    -0.166 NA
ATOM      5  C   UNL d   1      24.366 -16.885  -0.734  0.00  0.00     0.105 A 
ENDROOT
BRANCH   1   6
ATOM      6  C   UNL d   1      26.429 -18.122   0.179  0.00  0.00     0.274 C 
ATOM      7  N   UNL d   1      27.279 -17.663  -0.816  0.00  0.00    -0.263 N 
ATOM      8  H   UNL d   1      26.925 -17.154  -1.617  0.00  0.00     0.190 HD
ATOM      9  O   UNL d   1      26.856 -18.576   1.245  0.00  0.00    -0.266 OA
BRANCH   7  10
ATOM     10  N   UNL d   1      28.655 -17.703  -0.558  0.00  0.00    -0.267 N 
ATOM     11  C   UNL d   1      29.614 -16.874  -1.086  0.00  0.00     0.240 C 
ATOM     12  O   UNL d   1      30.735 -16.909  -0.576  0.00  0.00    -0.272 OA
ATOM     13  H   UNL d   1      28.959 -18.310   0.207  0.00  0.00     0.190 HD
BRANCH  11  14
ATOM     14  C   UNL d   1      29.203 -15.943  -2.230  0.00  0.00     0.146 C 
BRANCH  14  15
ATOM     15  C   UNL d   1      29.653 -16.353  -3.620  0.00  0.00    -0.016 A 
ATOM     16  C   UNL d   1      29.291 -15.570  -4.730  0.00  0.00     0.010 A 
ATOM     17  C   UNL d   1      29.701 -15.924  -6.018  0.00  0.00     0.001 A 
ATOM     18  C   UNL d   1      30.497 -17.052  -6.213  0.00  0.00     0.003 A 
ATOM     19  C   UNL d   1      30.845 -17.852  -5.128  0.00  0.00     0.037 A 
ATOM     20  C   UNL d   1      30.373 -17.529  -3.859  0.00  0.00     0.072 A 
BRANCH  20  21
ATOM     21  O   UNL d   1      30.560 -18.420  -2.840  0.00  0.00    -0.360 OA
ATOM     22  H   UNL d   1      31.245 -18.062  -2.249  0.00  0.00     0.217 HD
ENDBRANCH  20  21
ENDBRANCH  14  15
ENDBRANCH  11  14
ENDBRANCH   7  10
ENDBRANCH   1   6
BRANCH   5  23
ATOM     23  C   UNL d   1      25.033 -15.709  -1.290  0.00  0.00    -0.005 A 
ATOM     24  C   UNL d   1      25.946 -14.950  -0.550  0.00  0.00     0.014 A 
ATOM     25  C   UNL d   1      26.555 -13.832  -1.134  0.00  0.00     0.001 A 
ATOM     26  C   UNL d   1      26.317 -13.520  -2.474  0.00  0.00     0.000 A 
ATOM     27  C   UNL d   1      25.428 -14.289  -3.220  0.00  0.00     0.001 A 
ATOM     28  C   UNL d   1      24.780 -15.370  -2.626  0.00  0.00     0.014 A 
ENDBRANCH   5  23
BRANCH   3  29
ATOM     29  C   UNL d   1      21.509 -18.804  -0.133  0.00  0.00     0.058 A 
ATOM     30  C   UNL d   1      21.028 -19.161   1.134  0.00  0.00     0.031 A 
ATOM     31  C   UNL d   1      19.769 -19.761   1.256  0.00  0.00     0.002 A 
ATOM     32  C   UNL d   1      18.981 -19.977   0.125  0.00  0.00     0.000 A 
ATOM     33  C   UNL d   1      19.459 -19.615  -1.135  0.00  0.00     0.002 A 
ATOM     34  C   UNL d   1      20.716 -19.016  -1.269  0.00  0.00     0.031 A 
ENDBRANCH   3  29
TORSDOF 7
ENDMDL
MODEL 4
REMARK VINA RESULT:    -8.498      2.833      4.626
REMARK INTER + INTRA:         -12.890
REMARK INTER:                 -10.586
REMARK INTRA:                  -2.303
REMARK CONF_INDEPENDENT:        2.088
REMARK UNBOUND:                -2.303
REMARK  7 active torsions:
REMARK  status: ('A' for Active; 'I' for Inactive)
REMARK    1  A    between atoms: C_2  and  C_3 
REMARK       I    between atoms: C_2  and  N_11 
REMARK    2  A    between atoms: C_3  and  C_4 
REMARK    3  A    between atoms: C_9  and  O_10 
REMARK    4  A    between atoms: N_11  and  N_12 
REMARK       I    between atoms: N_12  and  C_13 
REMARK    5  A    between atoms: C_13  and  C_15 
REMARK    6  A    between atoms: N_17  and  C_18 
REMARK    7  A    between atoms: C_25  and  C_26 
ROOT
ATOM      1  C   UNL d   1      25.178 -17.591  -0.263  0.00  0.00     0.082 A 
ATOM      2  C   UNL d   1      24.216 -18.408   0.302  0.00  0.00     0.138 A 
ATOM      3  N   UNL d   1      23.054 -18.215  -0.412  0.00  0.00    -0.244 N 
ATOM      4  N   UNL d   1      23.223 -17.335  -1.427  0.00  0.00    -0.166 NA
ATOM      5  C   UNL d   1      24.485 -16.892  -1.293  0.00  0.00     0.105 A 
ENDROOT
BRANCH   1   6
ATOM      6  C   UNL d   1      26.571 -17.440   0.109  0.00  0.00     0.274 C 
ATOM      7  N   UNL d   1      26.970 -16.147   0.414  0.00  0.00    -0.263 N 
ATOM      8  H   UNL d   1      26.297 -15.393   0.493  0.00  0.00     0.190 HD
ATOM      9  O   UNL d   1      27.344 -18.398   0.192  0.00  0.00    -0.266 OA
BRANCH   7  10
ATOM     10  N   UNL d   1      28.287 -15.965   0.854  0.00  0.00    -0.267 N 
ATOM     11  C   UNL d   1      29.360 -15.568   0.093  0.00  0.00     0.240 C 
ATOM     12  O   UNL d   1      30.388 -15.244   0.691  0.00  0.00    -0.272 OA
ATOM     13  H   UNL d   1      28.438 -15.986   1.865  0.00  0.00     0.190 HD
BRANCH  11  14
ATOM     14  C   UNL d   1      29.178 -15.515  -1.427  0.00  0.00     0.146 C 
BRANCH  14  15
ATOM     15  C   UNL d   1      29.846 -16.623  -2.219  0.00  0.00    -0.016 A 
ATOM     16  C   UNL d   1      29.817 -16.591  -3.624  0.00  0.00     0.010 A 
ATOM     17  C   UNL d   1      30.433 -17.597  -4.374  0.00  0.00     0.001 A 
ATOM     18  C   UNL d   1      31.105 -18.635  -3.732  0.00  0.00     0.003 A 
ATOM     19  C   UNL d   1      31.123 -18.696  -2.341  0.00  0.00     0.037 A 
ATOM     20  C   UNL d   1      30.447 -17.727  -1.604  0.00  0.00     0.072 A 
BRANCH  20  21
ATOM     21  O   UNL d   1      30.311 -17.901  -0.256  0.00  0.00    -0.360 OA
ATOM     22  H   UNL d   1      29.516 -18.440  -0.101  0.00  0.00     0.217 HD
ENDBRANCH  20  21
ENDBRANCH  14  15
ENDBRANCH  11  14
ENDBRANCH   7  10
ENDBRANCH   1   6
BRANCH   5  23
ATOM     23  C   UNL d   1      25.078 -15.931  -2.221  0.00  0.00    -0.005 A 
ATOM     24  C   UNL d   1      26.352 -16.114  -2.770  0.00  0.00     0.014 A 
ATOM     25  C   UNL d   1      26.871 -15.159  -3.654  0.00  0.00     0.001 A 
ATOM     26  C   UNL d   1      26.092 -14.070  -4.051  0.00  0.00     0.000 A 
ATOM     27  C   UNL d   1      24.815 -13.900  -3.526  0.00  0.00     0.001 A 
ATOM     28  C   UNL d   1      24.316 -14.819  -2.605  0.00  0.00     0.014 A 
ENDBRANCH   5  23
BRANCH   3  29
ATOM     29  C   UNL d   1      21.788 -18.792  -0.140  0.00  0.00     0.058 A 
ATOM     30  C   UNL d   1      20.928 -19.137  -1.191  0.00  0.00     0.031 A 
ATOM     31  C   UNL d   1      19.640 -19.607  -0.909  0.00  0.00     0.002 A 
ATOM     32  C   UNL d   1      19.222 -19.762   0.413  0.00  0.00     0.000 A 
ATOM     33  C   UNL d   1      20.084 -19.425   1.459  0.00  0.00     0.002 A 
ATOM     34  C   UNL d   1      21.372 -18.953   1.188  0.00  0.00     0.031 A 
ENDBRANCH   3  29
TORSDOF 7
ENDMDL
MODEL 5
REMARK VINA RESULT:    -8.397      3.189      4.664
REMARK INTER + INTRA:         -13.124
REMARK INTER:                 -10.485
REMARK INTRA:                  -2.639
REMARK CONF_INDEPENDENT:        2.088
REMARK UNBOUND:                -2.639
REMARK  7 active torsions:
REMARK  status: ('A' for Active; 'I' for Inactive)
REMARK    1  A    between atoms: C_2  and  C_3 
REMARK       I    between atoms: C_2  and  N_11 
REMARK    2  A    between atoms: C_3  and  C_4 
REMARK    3  A    between atoms: C_9  and  O_10 
REMARK    4  A    between atoms: N_11  and  N_12 
REMARK       I    between atoms: N_12  and  C_13 
REMARK    5  A    between atoms: C_13  and  C_15 
REMARK    6  A    between atoms: N_17  and  C_18 
REMARK    7  A    between atoms: C_25  and  C_26 
ROOT
ATOM      1  C   UNL d   1      25.127 -17.828  -0.219  0.00  0.00     0.082 A 
ATOM      2  C   UNL d   1      24.113 -18.707   0.112  0.00  0.00     0.138 A 
ATOM      3  N   UNL d   1      22.935 -18.151  -0.338  0.00  0.00    -0.244 N 
ATOM      4  N   UNL d   1      23.141 -16.970  -0.968  0.00  0.00    -0.166 NA
ATOM      5  C   UNL d   1      24.456 -16.729  -0.829  0.00  0.00     0.105 A 
ENDROOT
BRANCH   1   6
ATOM      6  C   UNL d   1      26.552 -17.958   0.016  0.00  0.00     0.274 C 
ATOM      7  N   UNL d   1      27.369 -17.448  -0.981  0.00  0.00    -0.263 N 
ATOM      8  H   UNL d   1      26.989 -16.911  -1.751  0.00  0.00     0.190 HD
ATOM      9  O   UNL d   1      27.013 -18.449   1.050  0.00  0.00    -0.266 OA
BRANCH   7  10
ATOM     10  N   UNL d   1      28.753 -17.481  -0.761  0.00  0.00    -0.267 N 
ATOM     11  C   UNL d   1      29.732 -17.054  -1.625  0.00  0.00     0.240 C 
ATOM     12  O   UNL d   1      30.875 -16.949  -1.177  0.00  0.00    -0.272 OA
ATOM     13  H   UNL d   1      29.059 -17.705   0.188  0.00  0.00     0.190 HD
BRANCH  11  14
ATOM     14  C   UNL d   1      29.318 -16.700  -3.057  0.00  0.00     0.146 C 
BRANCH  14  15
ATOM     15  C   UNL d   1      29.307 -15.223  -3.402  0.00  0.00    -0.016 A 
ATOM     16  C   UNL d   1      29.834 -14.289  -2.492  0.00  0.00     0.010 A 
ATOM     17  C   UNL d   1      29.842 -12.925  -2.794  0.00  0.00     0.001 A 
ATOM     18  C   UNL d   1      29.345 -12.476  -4.016  0.00  0.00     0.003 A 
ATOM     19  C   UNL d   1      28.797 -13.383  -4.919  0.00  0.00     0.037 A 
ATOM     20  C   UNL d   1      28.730 -14.732  -4.579  0.00  0.00     0.072 A 
BRANCH  20  21
ATOM     21  O   UNL d   1      28.024 -15.580  -5.384  0.00  0.00    -0.360 OA
ATOM     22  H   UNL d   1      28.562 -15.763  -6.174  0.00  0.00     0.217 HD
ENDBRANCH  20  21
ENDBRANCH  14  15
ENDBRANCH  11  14
ENDBRANCH   7  10
ENDBRANCH   1   6
BRANCH   5  23
ATOM     23  C   UNL d   1      25.098 -15.546  -1.397  0.00  0.00    -0.005 A 
ATOM     24  C   UNL d   1      26.043 -14.796  -0.688  0.00  0.00     0.014 A 
ATOM     25  C   UNL d   1      26.627 -13.671  -1.283  0.00  0.00     0.001 A 
ATOM     26  C   UNL d   1      26.331 -13.342  -2.608  0.00  0.00     0.000 A 
ATOM     27  C   UNL d   1      25.410 -14.101  -3.325  0.00  0.00     0.001 A 
ATOM     28  C   UNL d   1      24.788 -15.190  -2.717  0.00  0.00     0.014 A 
ENDBRANCH   5  23
BRANCH   3  29
ATOM     29  C   UNL d   1      21.630 -18.669  -0.153  0.00  0.00     0.058 A 
ATOM     30  C   UNL d   1      21.156 -18.950   1.136  0.00  0.00     0.031 A 
ATOM     31  C   UNL d   1      19.907 -19.560   1.300  0.00  0.00     0.002 A 
ATOM     32  C   UNL d   1      19.120 -19.861   0.187  0.00  0.00     0.000 A 
ATOM     33  C   UNL d   1      19.590 -19.574  -1.095  0.00  0.00     0.002 A 
ATOM     34  C   UNL d   1      20.838 -18.966  -1.270  0.00  0.00     0.031 A 
ENDBRANCH   3  29
TORSDOF 7
ENDMDL
MODEL 6
REMARK VINA RESULT:    -7.887      1.658      2.522
REMARK INTER + INTRA:         -12.888
REMARK INTER:                  -9.975
REMARK INTRA:                  -2.912
REMARK CONF_INDEPENDENT:        2.088
REMARK UNBOUND:                -2.912
REMARK  7 active torsions:
REMARK  status: ('A' for Active; 'I' for Inactive)
REMARK    1  A    between atoms: C_2  and  C_3 
REMARK       I    between atoms: C_2  and  N_11 
REMARK    2  A    between atoms: C_3  and  C_4 
REMARK    3  A    between atoms: C_9  and  O_10 
REMARK    4  A    between atoms: N_11  and  N_12 
REMARK       I    between atoms: N_12  and  C_13 
REMARK    5  A    between atoms: C_13  and  C_15 
REMARK    6  A    between atoms: N_17  and  C_18 
REMARK    7  A    between atoms: C_25  and  C_26 
ROOT
ATOM      1  C   UNL d   1      25.172 -17.294  -0.234  0.00  0.00     0.082 A 
ATOM      2  C   UNL d   1      24.201 -18.118   0.305  0.00  0.00     0.138 A 
ATOM      3  N   UNL d   1      23.094 -18.022  -0.511  0.00  0.00    -0.244 N 
ATOM      4  N   UNL d   1      23.311 -17.200  -1.564  0.00  0.00    -0.166 NA
ATOM      5  C   UNL d   1      24.539 -16.692  -1.359  0.00  0.00     0.105 A 
ENDROOT
BRANCH   1   6
ATOM      6  C   UNL d   1      26.523 -17.057   0.237  0.00  0.00     0.274 C 
ATOM      7  N   UNL d   1      26.805 -15.749   0.603  0.00  0.00    -0.263 N 
ATOM      8  H   UNL d   1      26.076 -15.048   0.656  0.00  0.00     0.190 HD
ATOM      9  O   UNL d   1      27.356 -17.961   0.347  0.00  0.00    -0.266 OA
BRANCH   7  10
ATOM     10  N   UNL d   1      28.074 -15.489   1.138  0.00  0.00    -0.267 N 
ATOM     11  C   UNL d   1      28.428 -14.425   1.931  0.00  0.00     0.240 C 
ATOM     12  O   UNL d   1      29.524 -14.478   2.492  0.00  0.00    -0.272 OA
ATOM     13  H   UNL d   1      28.767 -16.236   1.054  0.00  0.00     0.190 HD
BRANCH  11  14
ATOM     14  C   UNL d   1      27.418 -13.285   2.091  0.00  0.00     0.146 C 
BRANCH  14  15
ATOM     15  C   UNL d   1      27.504 -12.168   1.068  0.00  0.00    -0.016 A 
ATOM     16  C   UNL d   1      27.708 -10.844   1.496  0.00  0.00     0.010 A 
ATOM     17  C   UNL d   1      27.798  -9.800   0.571  0.00  0.00     0.001 A 
ATOM     18  C   UNL d   1      27.709 -10.067  -0.794  0.00  0.00     0.003 A 
ATOM     19  C   UNL d   1      27.483 -11.369  -1.235  0.00  0.00     0.037 A 
ATOM     20  C   UNL d   1      27.325 -12.390  -0.302  0.00  0.00     0.072 A 
BRANCH  20  21
ATOM     21  O   UNL d   1      26.917 -13.620  -0.735  0.00  0.00    -0.360 OA
ATOM     22  H   UNL d   1      25.998 -13.540  -1.045  0.00  0.00     0.217 HD
ENDBRANCH  20  21
ENDBRANCH  14  15
ENDBRANCH  11  14
ENDBRANCH   7  10
ENDBRANCH   1   6
BRANCH   5  23
ATOM     23  C   UNL d   1      25.167 -15.764  -2.297  0.00  0.00    -0.005 A 
ATOM     24  C   UNL d   1      26.470 -15.951  -2.771  0.00  0.00     0.014 A 
ATOM     25  C   UNL d   1      27.022 -15.028  -3.669  0.00  0.00     0.001 A 
ATOM     26  C   UNL d   1      26.251 -13.971  -4.155  0.00  0.00     0.000 A 
ATOM     27  C   UNL d   1      24.945 -13.797  -3.704  0.00  0.00     0.001 A 
ATOM     28  C   UNL d   1      24.411 -14.682  -2.770  0.00  0.00     0.014 A 
ENDBRANCH   5  23
BRANCH   3  29
ATOM     29  C   UNL d   1      21.836 -18.639  -0.304  0.00  0.00     0.058 A 
ATOM     30  C   UNL d   1      21.405 -18.950   0.993  0.00  0.00     0.031 A 
ATOM     31  C   UNL d   1      20.209 -19.654   1.178  0.00  0.00     0.002 A 
ATOM     32  C   UNL d   1      19.431 -20.018   0.079  0.00  0.00     0.000 A 
ATOM     33  C   UNL d   1      19.857 -19.700  -1.211  0.00  0.00     0.002 A 
ATOM     34  C   UNL d   1      21.052 -18.999  -1.408  0.00  0.00     0.031 A 
ENDBRANCH   3  29
TORSDOF 7
ENDMDL
MODEL 7
REMARK VINA RESULT:    -7.734      2.078      3.213
REMARK INTER + INTRA:         -12.258
REMARK INTER:                  -9.822
REMARK INTRA:                  -2.436
REMARK CONF_INDEPENDENT:        2.088
REMARK UNBOUND:                -2.436
REMARK  7 active torsions:
REMARK  status: ('A' for Active; 'I' for Inactive)
REMARK    1  A    between atoms: C_2  and  C_3 
REMARK       I    between atoms: C_2  and  N_11 
REMARK    2  A    between atoms: C_3  and  C_4 
REMARK    3  A    between atoms: C_9  and  O_10 
REMARK    4  A    between atoms: N_11  and  N_12 
REMARK       I    between atoms: N_12  and  C_13 
REMARK    5  A    between atoms: C_13  and  C_15 
REMARK    6  A    between atoms: N_17  and  C_18 
REMARK    7  A    between atoms: C_25  and  C_26 
ROOT
ATOM      1  C   UNL d   1      26.523 -14.344  -1.270  0.00  0.00     0.082 A 
ATOM      2  C   UNL d   1      25.926 -15.310  -0.481  0.00  0.00     0.138 A 
ATOM      3  N   UNL d   1      24.999 -15.957  -1.270  0.00  0.00    -0.244 N 
ATOM      4  N   UNL d   1      24.987 -15.475  -2.535  0.00  0.00    -0.166 NA
ATOM      5  C   UNL d   1      25.849 -14.445  -2.522  0.00  0.00     0.105 A 
ENDROOT
BRANCH   1   6
ATOM      6  C   UNL d   1      27.576 -13.410  -0.919  0.00  0.00     0.274 C 
ATOM      7  N   UNL d   1      27.557 -12.957   0.391  0.00  0.00    -0.263 N 
ATOM      8  H   UNL d   1      26.928 -13.355   1.078  0.00  0.00     0.190 HD
ATOM      9  O   UNL d   1      28.456 -13.072  -1.715  0.00  0.00    -0.266 OA
BRANCH   7  10
ATOM     10  N   UNL d   1      28.600 -12.114   0.797  0.00  0.00    -0.267 N 
ATOM     11  C   UNL d   1      28.822 -11.633   2.065  0.00  0.00     0.240 C 
ATOM     12  O   UNL d   1      29.908 -11.094   2.282  0.00  0.00    -0.272 OA
ATOM     13  H   UNL d   1      29.352 -11.959   0.121  0.00  0.00     0.190 HD
BRANCH  11  14
ATOM     14  C   UNL d   1      27.726 -11.848   3.113  0.00  0.00     0.146 C 
BRANCH  14  15
ATOM     15  C   UNL d   1      28.018 -12.885   4.181  0.00  0.00    -0.016 A 
ATOM     16  C   UNL d   1      28.405 -12.472   5.468  0.00  0.00     0.010 A 
ATOM     17  C   UNL d   1      28.670 -13.410   6.469  0.00  0.00     0.001 A 
ATOM     18  C   UNL d   1      28.531 -14.771   6.206  0.00  0.00     0.003 A 
ATOM     19  C   UNL d   1      28.171 -15.200   4.931  0.00  0.00     0.037 A 
ATOM     20  C   UNL d   1      27.978 -14.260   3.922  0.00  0.00     0.072 A 
BRANCH  20  21
ATOM     21  O   UNL d   1      27.814 -14.697   2.638  0.00  0.00    -0.360 OA
ATOM     22  H   UNL d   1      28.429 -15.435   2.491  0.00  0.00     0.217 HD
ENDBRANCH  20  21
ENDBRANCH  14  15
ENDBRANCH  11  14
ENDBRANCH   7  10
ENDBRANCH   1   6
BRANCH   5  23
ATOM     23  C   UNL d   1      26.148 -13.659  -3.717  0.00  0.00    -0.005 A 
ATOM     24  C   UNL d   1      25.589 -12.396  -3.938  0.00  0.00     0.014 A 
ATOM     25  C   UNL d   1      25.911 -11.687  -5.103  0.00  0.00     0.001 A 
ATOM     26  C   UNL d   1      26.847 -12.201  -6.003  0.00  0.00     0.000 A 
ATOM     27  C   UNL d   1      27.424 -13.446  -5.772  0.00  0.00     0.001 A 
ATOM     28  C   UNL d   1      27.065 -14.177  -4.642  0.00  0.00     0.014 A 
ENDBRANCH   5  23
BRANCH   3  29
ATOM     29  C   UNL d   1      24.099 -16.971  -0.858  0.00  0.00     0.058 A 
ATOM     30  C   UNL d   1      24.577 -18.242  -0.512  0.00  0.00     0.031 A 
ATOM     31  C   UNL d   1      23.672 -19.266  -0.209  0.00  0.00     0.002 A 
ATOM     32  C   UNL d   1      22.299 -19.017  -0.221  0.00  0.00     0.000 A 
ATOM     33  C   UNL d   1      21.826 -17.748  -0.558  0.00  0.00     0.002 A 
ATOM     34  C   UNL d   1      22.721 -16.718  -0.864  0.00  0.00     0.031 A 
ENDBRANCH   3  29
TORSDOF 7
ENDMDL
MODEL 8
REMARK VINA RESULT:    -7.360      4.020      8.010
REMARK INTER + INTRA:         -12.133
REMARK INTER:                  -9.448
REMARK INTRA:                  -2.686
REMARK CONF_INDEPENDENT:        2.088
REMARK UNBOUND:                -2.686
REMARK  7 active torsions:
REMARK  status: ('A' for Active; 'I' for Inactive)
REMARK    1  A    between atoms: C_2  and  C_3 
REMARK       I    between atoms: C_2  and  N_11 
REMARK    2  A    between atoms: C_3  and  C_4 
REMARK    3  A    between atoms: C_9  and  O_10 
REMARK    4  A    between atoms: N_11  and  N_12 
REMARK       I    between atoms: N_12  and  C_13 
REMARK    5  A    between atoms: C_13  and  C_15 
REMARK    6  A    between atoms: N_17  and  C_18 
REMARK    7  A    between atoms: C_25  and  C_26 
ROOT
ATOM      1  C   UNL d   1      29.094 -16.298  -3.884  0.00  0.00     0.082 A 
ATOM      2  C   UNL d   1      30.031 -17.143  -4.449  0.00  0.00     0.138 A 
ATOM      3  N   UNL d   1      30.056 -16.871  -5.800  0.00  0.00    -0.244 N 
ATOM      4  N   UNL d   1      29.202 -15.875  -6.131  0.00  0.00    -0.166 NA
ATOM      5  C   UNL d   1      28.557 -15.577  -4.990  0.00  0.00     0.105 A 
ENDROOT
BRANCH   1   6
ATOM      6  C   UNL d   1      28.706 -16.175  -2.492  0.00  0.00     0.274 C 
ATOM      7  N   UNL d   1      28.506 -14.878  -2.042  0.00  0.00    -0.263 N 
ATOM      8  H   UNL d   1      28.508 -14.092  -2.681  0.00  0.00     0.190 HD
ATOM      9  O   UNL d   1      28.523 -17.155  -1.765  0.00  0.00    -0.266 OA
BRANCH   7  10
ATOM     10  N   UNL d   1      28.054 -14.716  -0.726  0.00  0.00    -0.267 N 
ATOM     11  C   UNL d   1      26.804 -15.018  -0.244  0.00  0.00     0.240 C 
ATOM     12  O   UNL d   1      26.656 -15.022   0.980  0.00  0.00    -0.272 OA
ATOM     13  H   UNL d   1      28.762 -14.489  -0.024  0.00  0.00     0.190 HD
BRANCH  11  14
ATOM     14  C   UNL d   1      25.712 -15.370  -1.258  0.00  0.00     0.146 C 
BRANCH  14  15
ATOM     15  C   UNL d   1      24.788 -16.512  -0.876  0.00  0.00    -0.016 A 
ATOM     16  C   UNL d   1      23.395 -16.326  -0.917  0.00  0.00     0.010 A 
ATOM     17  C   UNL d   1      22.526 -17.367  -0.577  0.00  0.00     0.001 A 
ATOM     18  C   UNL d   1      23.035 -18.612  -0.214  0.00  0.00     0.003 A 
ATOM     19  C   UNL d   1      24.412 -18.807  -0.144  0.00  0.00     0.037 A 
ATOM     20  C   UNL d   1      25.269 -17.744  -0.417  0.00  0.00     0.072 A 
BRANCH  20  21
ATOM     21  O   UNL d   1      26.603 -17.891  -0.162  0.00  0.00    -0.360 OA
ATOM     22  H   UNL d   1      27.016 -17.011  -0.202  0.00  0.00     0.217 HD
ENDBRANCH  20  21
ENDBRANCH  14  15
ENDBRANCH  11  14
ENDBRANCH   7  10
ENDBRANCH   1   6
BRANCH   5  23
ATOM     23  C   UNL d   1      27.551 -14.520  -4.913  0.00  0.00    -0.005 A 
ATOM     24  C   UNL d   1      27.812 -13.210  -5.332  0.00  0.00     0.014 A 
ATOM     25  C   UNL d   1      26.810 -12.236  -5.235  0.00  0.00     0.001 A 
ATOM     26  C   UNL d   1      25.531 -12.585  -4.797  0.00  0.00     0.000 A 
ATOM     27  C   UNL d   1      25.261 -13.892  -4.404  0.00  0.00     0.001 A 
ATOM     28  C   UNL d   1      26.271 -14.851  -4.449  0.00  0.00     0.014 A 
ENDBRANCH   5  23
BRANCH   3  29
ATOM     29  C   UNL d   1      30.817 -17.548  -6.785  0.00  0.00     0.058 A 
ATOM     30  C   UNL d   1      31.654 -16.830  -7.649  0.00  0.00     0.031 A 
ATOM     31  C   UNL d   1      32.319 -17.496  -8.685  0.00  0.00     0.002 A 
ATOM     32  C   UNL d   1      32.174 -18.875  -8.841  0.00  0.00     0.000 A 
ATOM     33  C   UNL d   1      31.346 -19.589  -7.975  0.00  0.00     0.002 A 
ATOM     34  C   UNL d   1      30.676 -18.934  -6.937  0.00  0.00     0.031 A 
ENDBRANCH   3  29
TORSDOF 7
ENDMDL
MODEL 9
REMARK VINA RESULT:    -6.861      2.913      6.251
REMARK INTER + INTRA:         -12.230
REMARK INTER:                  -8.949
REMARK INTRA:                  -3.281
REMARK CONF_INDEPENDENT:        2.088
REMARK UNBOUND:                -3.281
REMARK  7 active torsions:
REMARK  status: ('A' for Active; 'I' for Inactive)
REMARK    1  A    between atoms: C_2  and  C_3 
REMARK       I    between atoms: C_2  and  N_11 
REMARK    2  A    between atoms: C_3  and  C_4 
REMARK    3  A    between atoms: C_9  and  O_10 
REMARK    4  A    between atoms: N_11  and  N_12 
REMARK       I    between atoms: N_12  and  C_13 
REMARK    5  A    between atoms: C_13  and  C_15 
REMARK    6  A    between atoms: N_17  and  C_18 
REMARK    7  A    between atoms: C_25  and  C_26 
ROOT
ATOM      1  C   UNL d   1      27.277 -15.568  -1.600  0.00  0.00     0.082 A 
ATOM      2  C   UNL d   1      26.334 -16.548  -1.851  0.00  0.00     0.138 A 
ATOM      3  N   UNL d   1      25.324 -16.380  -0.930  0.00  0.00    -0.244 N 
ATOM      4  N   UNL d   1      25.553 -15.324  -0.114  0.00  0.00    -0.166 NA
ATOM      5  C   UNL d   1      26.772 -14.877  -0.461  0.00  0.00     0.105 A 
ENDROOT
BRANCH   1   6
ATOM      6  C   UNL d   1      28.518 -15.302  -2.302  0.00  0.00     0.274 C 
ATOM      7  N   UNL d   1      28.596 -15.812  -3.589  0.00  0.00    -0.263 N 
ATOM      8  H   UNL d   1      27.789 -16.226  -4.041  0.00  0.00     0.190 HD
ATOM      9  O   UNL d   1      29.430 -14.632  -1.808  0.00  0.00    -0.266 OA
BRANCH   7  10
ATOM     10  N   UNL d   1      29.745 -15.513  -4.333  0.00  0.00    -0.267 N 
ATOM     11  C   UNL d   1      29.801 -14.796  -5.504  0.00  0.00     0.240 C 
ATOM     12  O   UNL d   1      30.914 -14.440  -5.895  0.00  0.00    -0.272 OA
ATOM     13  H   UNL d   1      30.642 -15.719  -3.889  0.00  0.00     0.190 HD
BRANCH  11  14
ATOM     14  C   UNL d   1      28.480 -14.459  -6.200  0.00  0.00     0.146 C 
BRANCH  14  15
ATOM     15  C   UNL d   1      27.378 -13.911  -5.313  0.00  0.00    -0.016 A 
ATOM     16  C   UNL d   1      27.530 -12.648  -4.712  0.00  0.00     0.010 A 
ATOM     17  C   UNL d   1      26.524 -12.120  -3.898  0.00  0.00     0.001 A 
ATOM     18  C   UNL d   1      25.345 -12.834  -3.691  0.00  0.00     0.003 A 
ATOM     19  C   UNL d   1      25.188 -14.096  -4.259  0.00  0.00     0.037 A 
ATOM     20  C   UNL d   1      26.225 -14.643  -5.010  0.00  0.00     0.072 A 
BRANCH  20  21
ATOM     21  O   UNL d   1      26.138 -15.949  -5.400  0.00  0.00    -0.360 OA
ATOM     22  H   UNL d   1      25.285 -16.300  -5.090  0.00  0.00     0.217 HD
ENDBRANCH  20  21
ENDBRANCH  14  15
ENDBRANCH  11  14
ENDBRANCH   7  10
ENDBRANCH   1   6
BRANCH   5  23
ATOM     23  C   UNL d   1      27.389 -13.714   0.175  0.00  0.00    -0.005 A 
ATOM     24  C   UNL d   1      27.421 -12.458  -0.439  0.00  0.00     0.014 A 
ATOM     25  C   UNL d   1      28.026 -11.378   0.217  0.00  0.00     0.001 A 
ATOM     26  C   UNL d   1      28.523 -11.532   1.513  0.00  0.00     0.000 A 
ATOM     27  C   UNL d   1      28.469 -12.775   2.137  0.00  0.00     0.001 A 
ATOM     28  C   UNL d   1      27.916 -13.864   1.465  0.00  0.00     0.014 A 
ENDBRANCH   5  23
BRANCH   3  29
ATOM     29  C   UNL d   1      24.183 -17.204  -0.766  0.00  0.00     0.058 A 
ATOM     30  C   UNL d   1      24.331 -18.576  -0.520  0.00  0.00     0.031 A 
ATOM     31  C   UNL d   1      23.200 -19.399  -0.465  0.00  0.00     0.002 A 
ATOM     32  C   UNL d   1      21.926 -18.853  -0.623  0.00  0.00     0.000 A 
ATOM     33  C   UNL d   1      21.780 -17.485  -0.860  0.00  0.00     0.002 A 
ATOM     34  C   UNL d   1      22.904 -16.654  -0.919  0.00  0.00     0.031 A 
ENDBRANCH   3  29
TORSDOF 7
ENDMDL
