MODEL 1
REMARK VINA RESULT:    -8.533      0.000      0.000
REMARK INTER + INTRA:         -15.230
REMARK INTER:                 -12.112
REMARK INTRA:                  -3.118
REMARK CONF_INDEPENDENT:        3.580
REMARK UNBOUND:                -3.118
REMARK  12 active torsions:
REMARK  status: ('A' for Active; 'I' for Inactive)
REMARK    1  A    between atoms: C_2  and  C_3 
REMARK    2  A    between atoms: C_3  and  N_4 
REMARK    3  A    between atoms: N_4  and  C_5 
REMARK    4  A    between atoms: N_4  and  C_27 
REMARK    5  A    between atoms: C_5  and  C_6 
REMARK    6  A    between atoms: N_10  and  C_11 
REMARK    7  A    between atoms: C_17  and  O_18 
REMARK    8  A    between atoms: O_18  and  C_19 
REMARK    9  A    between atoms: C_24  and  O_25 
REMARK   10  A    between atoms: C_28  and  C_27 
REMARK   11  A    between atoms: C_28  and  C_30 
REMARK   12  A    between atoms: C_28  and  O_29 
ROOT
ATOM      1  C   UNL d   1      30.081 -16.809  -1.574  0.00  0.00     0.047 A 
ATOM      2  C   UNL d   1      30.826 -18.051  -1.473  0.00  0.00     0.063 A 
ATOM      3  C   UNL d   1      31.539 -18.643  -0.267  0.00  0.00     0.073 C 
ATOM      4  N   UNL d   1      31.015 -18.609  -2.680  0.00  0.00    -0.170 NA
ATOM      5  N   UNL d   1      30.430 -17.770  -3.574  0.00  0.00    -0.210 N 
ATOM      6  C   UNL d   1      29.796 -16.694  -2.946  0.00  0.00     0.181 A 
ENDROOT
BRANCH   1   7
ATOM      7  C   UNL d   1      29.779 -15.806  -0.483  0.00  0.00     0.280 C 
BRANCH   7   8
ATOM      8  N   UNL d   1      28.649 -16.169   0.510  0.00  0.00    -0.065 N 
ATOM      9  H   UNL d   1      29.145 -16.435   1.355  0.00  0.00     0.280 HD
BRANCH   8  10
ATOM     10  C   UNL d   1      27.774 -17.366   0.254  0.00  0.00     0.235 C 
BRANCH  10  11
ATOM     11  C   UNL d   1      26.296 -17.171   0.467  0.00  0.00     0.023 C 
ATOM     12  C   UNL d   1      25.446 -18.246  -0.140  0.00  0.00     0.007 C 
ENDBRANCH  10  11
ENDBRANCH   8  10
BRANCH   8  13
ATOM     13  C   UNL d   1      27.828 -14.946   0.987  0.00  0.00     0.266 C 
BRANCH  13  14
ATOM     14  C   UNL d   1      28.571 -14.046   2.043  0.00  0.00     0.143 C 
BRANCH  14  15
ATOM     15  C   UNL d   1      27.768 -13.859   3.341  0.00  0.00     0.029 C 
ATOM     16  C   UNL d   1      28.155 -14.755   4.507  0.00  0.00     0.007 C 
ENDBRANCH  14  15
BRANCH  14  17
ATOM     17  O   UNL d   1      29.837 -14.607   2.406  0.00  0.00    -0.394 OA
ATOM     18  H   UNL d   1      29.764 -15.573   2.481  0.00  0.00     0.210 HD
ENDBRANCH  14  17
ENDBRANCH  13  14
ENDBRANCH   8  13
ENDBRANCH   7   8
ENDBRANCH   1   7
BRANCH   6  19
ATOM     19  O   UNL d   1      29.198 -15.783  -3.732  0.00  0.00    -0.288 OA
BRANCH  19  20
ATOM     20  C   UNL d   1      27.863 -15.495  -3.696  0.00  0.00     0.111 C 
ATOM     21  C   UNL d   1      27.266 -15.488  -2.438  0.00  0.00     0.040 C 
ATOM     22  C   UNL d   1      25.946 -15.080  -2.259  0.00  0.00     0.003 C 
ATOM     23  C   UNL d   1      25.210 -14.655  -3.361  0.00  0.00     0.003 C 
ATOM     24  C   UNL d   1      25.743 -14.842  -4.617  0.00  0.00     0.039 C 
ATOM     25  C   UNL d   1      27.058 -15.269  -4.824  0.00  0.00     0.102 C 
BRANCH  25  26
ATOM     26  O   UNL d   1      27.394 -15.200  -6.147  0.00  0.00    -0.353 OA
ATOM     27  C   UNL d   1      28.625 -14.619  -6.516  0.00  0.00     0.210 C 
ENDBRANCH  25  26
ENDBRANCH  19  20
ENDBRANCH   6  19
BRANCH   5  28
ATOM     28  C   UNL d   1      30.565 -17.934  -4.991  0.00  0.00     0.061 A 
ATOM     29  C   UNL d   1      30.986 -16.855  -5.777  0.00  0.00     0.031 A 
ATOM     30  C   UNL d   1      31.253 -17.059  -7.141  0.00  0.00     0.002 A 
ATOM     31  C   UNL d   1      31.128 -18.318  -7.728  0.00  0.00     0.000 A 
ATOM     32  C   UNL d   1      30.698 -19.393  -6.954  0.00  0.00     0.002 A 
ATOM     33  C   UNL d   1      30.409 -19.185  -5.602  0.00  0.00     0.031 A 
ENDBRANCH   5  28
TORSDOF 12
ENDMDL
MODEL 2
REMARK VINA RESULT:    -6.944      2.706      5.987
REMARK INTER + INTRA:         -15.033
REMARK INTER:                 -10.524
REMARK INTRA:                  -4.509
REMARK CONF_INDEPENDENT:        3.580
REMARK UNBOUND:                -4.509
REMARK  12 active torsions:
REMARK  status: ('A' for Active; 'I' for Inactive)
REMARK    1  A    between atoms: C_2  and  C_3 
REMARK    2  A    between atoms: C_3  and  N_4 
REMARK    3  A    between atoms: N_4  and  C_5 
REMARK    4  A    between atoms: N_4  and  C_27 
REMARK    5  A    between atoms: C_5  and  C_6 
REMARK    6  A    between atoms: N_10  and  C_11 
REMARK    7  A    between atoms: C_17  and  O_18 
REMARK    8  A    between atoms: O_18  and  C_19 
REMARK    9  A    between atoms: C_24  and  O_25 
REMARK   10  A    between atoms: C_28  and  C_27 
REMARK   11  A    between atoms: C_28  and  C_30 
REMARK   12  A    between atoms: C_28  and  O_29 
ROOT
ATOM      1  C   UNL d   1      28.425 -13.969   1.407  0.00  0.00     0.047 A 
ATOM      2  C   UNL d   1      27.180 -13.223   1.406  0.00  0.00     0.063 A 
ATOM      3  C   UNL d   1      26.839 -11.931   2.133  0.00  0.00     0.073 C 
ATOM      4  N   UNL d   1      26.195 -13.912   0.807  0.00  0.00    -0.170 NA
ATOM      5  N   UNL d   1      26.747 -15.092   0.424  0.00  0.00    -0.210 N 
ATOM      6  C   UNL d   1      28.114 -15.150   0.710  0.00  0.00     0.181 A 
ENDROOT
BRANCH   1   7
ATOM      7  C   UNL d   1      29.727 -13.621   2.095  0.00  0.00     0.280 C 
BRANCH   7   8
ATOM      8  N   UNL d   1      30.329 -14.692   3.036  0.00  0.00    -0.065 N 
ATOM      9  H   UNL d   1      30.043 -15.572   2.618  0.00  0.00     0.280 HD
BRANCH   8  10
ATOM     10  C   UNL d   1      29.828 -14.824   4.449  0.00  0.00     0.235 C 
BRANCH  10  11
ATOM     11  C   UNL d   1      28.333 -14.828   4.630  0.00  0.00     0.023 C 
ATOM     12  C   UNL d   1      27.785 -13.557   5.206  0.00  0.00     0.007 C 
ENDBRANCH  10  11
ENDBRANCH   8  10
BRANCH   8  13
ATOM     13  C   UNL d   1      31.873 -14.783   2.962  0.00  0.00     0.266 C 
BRANCH  13  14
ATOM     14  C   UNL d   1      32.405 -15.789   1.874  0.00  0.00     0.143 C 
BRANCH  14  15
ATOM     15  C   UNL d   1      32.956 -17.090   2.480  0.00  0.00     0.029 C 
ATOM     16  C   UNL d   1      32.656 -18.370   1.715  0.00  0.00     0.007 C 
ENDBRANCH  14  15
BRANCH  14  17
ATOM     17  O   UNL d   1      31.370 -16.156   0.954  0.00  0.00    -0.394 OA
ATOM     18  H   UNL d   1      30.654 -16.612   1.425  0.00  0.00     0.210 HD
ENDBRANCH  14  17
ENDBRANCH  13  14
ENDBRANCH   8  13
ENDBRANCH   7   8
ENDBRANCH   1   7
BRANCH   6  19
ATOM     19  O   UNL d   1      28.765 -16.282   0.394  0.00  0.00    -0.288 OA
BRANCH  19  20
ATOM     20  C   UNL d   1      29.265 -16.560  -0.847  0.00  0.00     0.111 C 
ATOM     21  C   UNL d   1      30.064 -17.695  -0.953  0.00  0.00     0.040 C 
ATOM     22  C   UNL d   1      30.521 -18.154  -2.186  0.00  0.00     0.003 C 
ATOM     23  C   UNL d   1      30.158 -17.470  -3.342  0.00  0.00     0.003 C 
ATOM     24  C   UNL d   1      29.530 -16.252  -3.214  0.00  0.00     0.039 C 
ATOM     25  C   UNL d   1      29.079 -15.759  -1.986  0.00  0.00     0.102 C 
BRANCH  25  26
ATOM     26  O   UNL d   1      28.334 -14.625  -2.154  0.00  0.00    -0.353 OA
ATOM     27  C   UNL d   1      27.192 -14.667  -2.979  0.00  0.00     0.210 C 
ENDBRANCH  25  26
ENDBRANCH  19  20
ENDBRANCH   6  19
BRANCH   5  28
ATOM     28  C   UNL d   1      25.969 -16.175  -0.103  0.00  0.00     0.061 A 
ATOM     29  C   UNL d   1      26.208 -17.480   0.341  0.00  0.00     0.031 A 
ATOM     30  C   UNL d   1      25.351 -18.515  -0.071  0.00  0.00     0.002 A 
ATOM     31  C   UNL d   1      24.254 -18.269  -0.895  0.00  0.00     0.000 A 
ATOM     32  C   UNL d   1      24.019 -16.973  -1.350  0.00  0.00     0.002 A 
ATOM     33  C   UNL d   1      24.885 -15.947  -0.961  0.00  0.00     0.031 A 
ENDBRANCH   5  28
TORSDOF 12
ENDMDL
MODEL 3
REMARK VINA RESULT:    -6.791      2.999      6.217
REMARK INTER + INTRA:         -15.166
REMARK INTER:                 -10.370
REMARK INTRA:                  -4.796
REMARK CONF_INDEPENDENT:        3.580
REMARK UNBOUND:                -4.796
REMARK  12 active torsions:
REMARK  status: ('A' for Active; 'I' for Inactive)
REMARK    1  A    between atoms: C_2  and  C_3 
REMARK    2  A    between atoms: C_3  and  N_4 
REMARK    3  A    between atoms: N_4  and  C_5 
REMARK    4  A    between atoms: N_4  and  C_27 
REMARK    5  A    between atoms: C_5  and  C_6 
REMARK    6  A    between atoms: N_10  and  C_11 
REMARK    7  A    between atoms: C_17  and  O_18 
REMARK    8  A    between atoms: O_18  and  C_19 
REMARK    9  A    between atoms: C_24  and  O_25 
REMARK   10  A    between atoms: C_28  and  C_27 
REMARK   11  A    between atoms: C_28  and  C_30 
REMARK   12  A    between atoms: C_28  and  O_29 
ROOT
ATOM      1  C   UNL d   1      28.510 -13.977   1.314  0.00  0.00     0.047 A 
ATOM      2  C   UNL d   1      27.282 -13.202   1.304  0.00  0.00     0.063 A 
ATOM      3  C   UNL d   1      26.974 -11.888   2.007  0.00  0.00     0.073 C 
ATOM      4  N   UNL d   1      26.279 -13.880   0.722  0.00  0.00    -0.170 NA
ATOM      5  N   UNL d   1      26.802 -15.080   0.360  0.00  0.00    -0.210 N 
ATOM      6  C   UNL d   1      28.168 -15.164   0.642  0.00  0.00     0.181 A 
ENDROOT
BRANCH   1   7
ATOM      7  C   UNL d   1      29.822 -13.646   1.990  0.00  0.00     0.280 C 
BRANCH   7   8
ATOM      8  N   UNL d   1      30.377 -14.688   2.991  0.00  0.00    -0.065 N 
ATOM      9  H   UNL d   1      30.033 -15.575   2.634  0.00  0.00     0.280 HD
BRANCH   8  10
ATOM     10  C   UNL d   1      29.892 -14.701   4.415  0.00  0.00     0.235 C 
BRANCH  10  11
ATOM     11  C   UNL d   1      28.754 -13.770   4.742  0.00  0.00     0.023 C 
ATOM     12  C   UNL d   1      27.408 -14.431   4.745  0.00  0.00     0.007 C 
ENDBRANCH  10  11
ENDBRANCH   8  10
BRANCH   8  13
ATOM     13  C   UNL d   1      31.911 -14.876   2.903  0.00  0.00     0.266 C 
BRANCH  13  14
ATOM     14  C   UNL d   1      32.367 -15.948   1.845  0.00  0.00     0.143 C 
BRANCH  14  15
ATOM     15  C   UNL d   1      32.724 -17.302   2.481  0.00  0.00     0.029 C 
ATOM     16  C   UNL d   1      33.580 -18.237   1.640  0.00  0.00     0.007 C 
ENDBRANCH  14  15
BRANCH  14  17
ATOM     17  O   UNL d   1      31.341 -16.194   0.877  0.00  0.00    -0.394 OA
ATOM     18  H   UNL d   1      30.720 -16.861   1.212  0.00  0.00     0.210 HD
ENDBRANCH  14  17
ENDBRANCH  13  14
ENDBRANCH   8  13
ENDBRANCH   7   8
ENDBRANCH   1   7
BRANCH   6  19
ATOM     19  O   UNL d   1      28.792 -16.316   0.345  0.00  0.00    -0.288 OA
BRANCH  19  20
ATOM     20  C   UNL d   1      29.187 -16.674  -0.913  0.00  0.00     0.111 C 
ATOM     21  C   UNL d   1      28.522 -16.057  -1.969  0.00  0.00     0.040 C 
ATOM     22  C   UNL d   1      28.923 -16.240  -3.291  0.00  0.00     0.003 C 
ATOM     23  C   UNL d   1      30.023 -17.048  -3.561  0.00  0.00     0.003 C 
ATOM     24  C   UNL d   1      30.555 -17.798  -2.536  0.00  0.00     0.039 C 
ATOM     25  C   UNL d   1      30.157 -17.648  -1.205  0.00  0.00     0.102 C 
BRANCH  25  26
ATOM     26  O   UNL d   1      30.958 -18.372  -0.367  0.00  0.00    -0.353 OA
ATOM     27  C   UNL d   1      31.150 -19.746  -0.614  0.00  0.00     0.210 C 
ENDBRANCH  25  26
ENDBRANCH  19  20
ENDBRANCH   6  19
BRANCH   5  28
ATOM     28  C   UNL d   1      25.997 -16.153  -0.143  0.00  0.00     0.061 A 
ATOM     29  C   UNL d   1      26.164 -17.444   0.370  0.00  0.00     0.031 A 
ATOM     30  C   UNL d   1      25.278 -18.462  -0.023  0.00  0.00     0.002 A 
ATOM     31  C   UNL d   1      24.222 -18.211  -0.897  0.00  0.00     0.000 A 
ATOM     32  C   UNL d   1      24.058 -16.931  -1.421  0.00  0.00     0.002 A 
ATOM     33  C   UNL d   1      24.953 -15.924  -1.049  0.00  0.00     0.031 A 
ENDBRANCH   5  28
TORSDOF 12
ENDMDL
MODEL 4
REMARK VINA RESULT:    -6.518      3.593      5.592
REMARK INTER + INTRA:         -15.165
REMARK INTER:                 -10.098
REMARK INTRA:                  -5.068
REMARK CONF_INDEPENDENT:        3.580
REMARK UNBOUND:                -5.068
REMARK  12 active torsions:
REMARK  status: ('A' for Active; 'I' for Inactive)
REMARK    1  A    between atoms: C_2  and  C_3 
REMARK    2  A    between atoms: C_3  and  N_4 
REMARK    3  A    between atoms: N_4  and  C_5 
REMARK    4  A    between atoms: N_4  and  C_27 
REMARK    5  A    between atoms: C_5  and  C_6 
REMARK    6  A    between atoms: N_10  and  C_11 
REMARK    7  A    between atoms: C_17  and  O_18 
REMARK    8  A    between atoms: O_18  and  C_19 
REMARK    9  A    between atoms: C_24  and  O_25 
REMARK   10  A    between atoms: C_28  and  C_27 
REMARK   11  A    between atoms: C_28  and  C_30 
REMARK   12  A    between atoms: C_28  and  O_29 
ROOT
ATOM      1  C   UNL d   1      28.485 -13.351   0.723  0.00  0.00     0.047 A 
ATOM      2  C   UNL d   1      29.457 -12.806  -0.207  0.00  0.00     0.063 A 
ATOM      3  C   UNL d   1      30.692 -11.966   0.084  0.00  0.00     0.073 C 
ATOM      4  N   UNL d   1      29.056 -12.956  -1.480  0.00  0.00    -0.170 NA
ATOM      5  N   UNL d   1      27.847 -13.570  -1.419  0.00  0.00    -0.210 N 
ATOM      6  C   UNL d   1      27.484 -13.887  -0.107  0.00  0.00     0.181 A 
ENDROOT
BRANCH   1   7
ATOM      7  C   UNL d   1      28.480 -13.264   2.233  0.00  0.00     0.280 C 
BRANCH   7   8
ATOM      8  N   UNL d   1      28.991 -14.503   3.008  0.00  0.00    -0.065 N 
ATOM      9  H   UNL d   1      29.002 -15.239   2.308  0.00  0.00     0.280 HD
BRANCH   8  10
ATOM     10  C   UNL d   1      28.155 -15.107   4.103  0.00  0.00     0.235 C 
BRANCH  10  11
ATOM     11  C   UNL d   1      28.211 -14.421   5.443  0.00  0.00     0.023 C 
ATOM     12  C   UNL d   1      28.031 -12.935   5.374  0.00  0.00     0.007 C 
ENDBRANCH  10  11
ENDBRANCH   8  10
BRANCH   8  13
ATOM     13  C   UNL d   1      30.484 -14.411   3.407  0.00  0.00     0.266 C 
BRANCH  13  14
ATOM     14  C   UNL d   1      31.484 -14.649   2.215  0.00  0.00     0.143 C 
BRANCH  14  15
ATOM     15  C   UNL d   1      32.654 -15.573   2.590  0.00  0.00     0.029 C 
ATOM     16  C   UNL d   1      32.493 -17.044   2.235  0.00  0.00     0.007 C 
ENDBRANCH  14  15
BRANCH  14  17
ATOM     17  O   UNL d   1      30.822 -15.242   1.091  0.00  0.00    -0.394 OA
ATOM     18  H   UNL d   1      30.400 -16.076   1.355  0.00  0.00     0.210 HD
ENDBRANCH  14  17
ENDBRANCH  13  14
ENDBRANCH   8  13
ENDBRANCH   7   8
ENDBRANCH   1   7
BRANCH   6  19
ATOM     19  O   UNL d   1      26.293 -14.480   0.080  0.00  0.00    -0.288 OA
BRANCH  19  20
ATOM     20  C   UNL d   1      26.103 -15.833   0.088  0.00  0.00     0.111 C 
ATOM     21  C   UNL d   1      24.803 -16.276  -0.145  0.00  0.00     0.040 C 
ATOM     22  C   UNL d   1      24.509 -17.631  -0.293  0.00  0.00     0.003 C 
ATOM     23  C   UNL d   1      25.541 -18.562  -0.220  0.00  0.00     0.003 C 
ATOM     24  C   UNL d   1      26.782 -18.135   0.195  0.00  0.00     0.039 C 
ATOM     25  C   UNL d   1      27.098 -16.784   0.369  0.00  0.00     0.102 C 
BRANCH  25  26
ATOM     26  O   UNL d   1      28.434 -16.618   0.605  0.00  0.00    -0.353 OA
ATOM     27  C   UNL d   1      29.365 -17.076  -0.349  0.00  0.00     0.210 C 
ENDBRANCH  25  26
ENDBRANCH  19  20
ENDBRANCH   6  19
BRANCH   5  28
ATOM     28  C   UNL d   1      27.014 -13.752  -2.571  0.00  0.00     0.061 A 
ATOM     29  C   UNL d   1      27.026 -14.977  -3.248  0.00  0.00     0.031 A 
ATOM     30  C   UNL d   1      26.105 -15.198  -4.287  0.00  0.00     0.002 A 
ATOM     31  C   UNL d   1      25.165 -14.234  -4.645  0.00  0.00     0.000 A 
ATOM     32  C   UNL d   1      25.156 -13.009  -3.982  0.00  0.00     0.002 A 
ATOM     33  C   UNL d   1      26.086 -12.779  -2.965  0.00  0.00     0.031 A 
ENDBRANCH   5  28
TORSDOF 12
ENDMDL
MODEL 5
REMARK VINA RESULT:    -6.113      2.375      6.271
REMARK INTER + INTRA:         -14.617
REMARK INTER:                  -9.693
REMARK INTRA:                  -4.924
REMARK CONF_INDEPENDENT:        3.580
REMARK UNBOUND:                -4.924
REMARK  12 active torsions:
REMARK  status: ('A' for Active; 'I' for Inactive)
REMARK    1  A    between atoms: C_2  and  C_3 
REMARK    2  A    between atoms: C_3  and  N_4 
REMARK    3  A    between atoms: N_4  and  C_5 
REMARK    4  A    between atoms: N_4  and  C_27 
REMARK    5  A    between atoms: C_5  and  C_6 
REMARK    6  A    between atoms: N_10  and  C_11 
REMARK    7  A    between atoms: C_17  and  O_18 
REMARK    8  A    between atoms: O_18  and  C_19 
REMARK    9  A    between atoms: C_24  and  O_25 
REMARK   10  A    between atoms: C_28  and  C_27 
REMARK   11  A    between atoms: C_28  and  C_30 
REMARK   12  A    between atoms: C_28  and  O_29 
ROOT
ATOM      1  C   UNL d   1      29.283 -16.455  -2.107  0.00  0.00     0.047 A 
ATOM      2  C   UNL d   1      29.511 -16.968  -0.768  0.00  0.00     0.063 A 
ATOM      3  C   UNL d   1      30.807 -17.462  -0.141  0.00  0.00     0.073 C 
ATOM      4  N   UNL d   1      28.355 -17.165  -0.114  0.00  0.00    -0.170 NA
ATOM      5  N   UNL d   1      27.372 -16.811  -0.982  0.00  0.00    -0.210 N 
ATOM      6  C   UNL d   1      27.886 -16.315  -2.183  0.00  0.00     0.181 A 
ENDROOT
BRANCH   1   7
ATOM      7  C   UNL d   1      30.293 -16.232  -3.210  0.00  0.00     0.280 C 
BRANCH   7   8
ATOM      8  N   UNL d   1      29.756 -16.235  -4.662  0.00  0.00    -0.065 N 
ATOM      9  H   UNL d   1      28.748 -16.281  -4.548  0.00  0.00     0.280 HD
BRANCH   8  10
ATOM     10  C   UNL d   1      30.036 -17.403  -5.569  0.00  0.00     0.235 C 
BRANCH  10  11
ATOM     11  C   UNL d   1      30.454 -18.685  -4.897  0.00  0.00     0.023 C 
ATOM     12  C   UNL d   1      30.405 -19.886  -5.792  0.00  0.00     0.007 C 
ENDBRANCH  10  11
ENDBRANCH   8  10
BRANCH   8  13
ATOM     13  C   UNL d   1      29.939 -14.882  -5.392  0.00  0.00     0.266 C 
BRANCH  13  14
ATOM     14  C   UNL d   1      28.592 -14.216  -5.859  0.00  0.00     0.143 C 
BRANCH  14  15
ATOM     15  C   UNL d   1      28.739 -13.419  -7.166  0.00  0.00     0.029 C 
ATOM     16  C   UNL d   1      30.147 -13.299  -7.727  0.00  0.00     0.007 C 
ENDBRANCH  14  15
BRANCH  14  17
ATOM     17  O   UNL d   1      27.573 -15.200  -6.077  0.00  0.00    -0.394 OA
ATOM     18  H   UNL d   1      27.375 -15.662  -5.246  0.00  0.00     0.210 HD
ENDBRANCH  14  17
ENDBRANCH  13  14
ENDBRANCH   8  13
ENDBRANCH   7   8
ENDBRANCH   1   7
BRANCH   6  19
ATOM     19  O   UNL d   1      27.005 -15.950  -3.130  0.00  0.00    -0.288 OA
BRANCH  19  20
ATOM     20  C   UNL d   1      26.590 -14.665  -3.340  0.00  0.00     0.111 C 
ATOM     21  C   UNL d   1      25.435 -14.504  -4.100  0.00  0.00     0.040 C 
ATOM     22  C   UNL d   1      24.842 -13.255  -4.271  0.00  0.00     0.003 C 
ATOM     23  C   UNL d   1      25.408 -12.144  -3.654  0.00  0.00     0.003 C 
ATOM     24  C   UNL d   1      26.645 -12.280  -3.064  0.00  0.00     0.039 C 
ATOM     25  C   UNL d   1      27.271 -13.519  -2.898  0.00  0.00     0.102 C 
BRANCH  25  26
ATOM     26  O   UNL d   1      28.395 -13.403  -2.128  0.00  0.00    -0.353 OA
ATOM     27  C   UNL d   1      29.493 -12.667  -2.618  0.00  0.00     0.210 C 
ENDBRANCH  25  26
ENDBRANCH  19  20
ENDBRANCH   6  19
BRANCH   5  28
ATOM     28  C   UNL d   1      25.983 -17.040  -0.712  0.00  0.00     0.061 A 
ATOM     29  C   UNL d   1      25.043 -16.053  -1.031  0.00  0.00     0.031 A 
ATOM     30  C   UNL d   1      23.674 -16.338  -0.897  0.00  0.00     0.002 A 
ATOM     31  C   UNL d   1      23.227 -17.588  -0.474  0.00  0.00     0.000 A 
ATOM     32  C   UNL d   1      24.158 -18.571  -0.145  0.00  0.00     0.002 A 
ATOM     33  C   UNL d   1      25.521 -18.281  -0.254  0.00  0.00     0.031 A 
ENDBRANCH   5  28
TORSDOF 12
ENDMDL
MODEL 6
REMARK VINA RESULT:    -5.885      3.260      5.731
REMARK INTER + INTRA:         -15.060
REMARK INTER:                  -9.464
REMARK INTRA:                  -5.596
REMARK CONF_INDEPENDENT:        3.580
REMARK UNBOUND:                -5.596
REMARK  12 active torsions:
REMARK  status: ('A' for Active; 'I' for Inactive)
REMARK    1  A    between atoms: C_2  and  C_3 
REMARK    2  A    between atoms: C_3  and  N_4 
REMARK    3  A    between atoms: N_4  and  C_5 
REMARK    4  A    between atoms: N_4  and  C_27 
REMARK    5  A    between atoms: C_5  and  C_6 
REMARK    6  A    between atoms: N_10  and  C_11 
REMARK    7  A    between atoms: C_17  and  O_18 
REMARK    8  A    between atoms: O_18  and  C_19 
REMARK    9  A    between atoms: C_24  and  O_25 
REMARK   10  A    between atoms: C_28  and  C_27 
REMARK   11  A    between atoms: C_28  and  C_30 
REMARK   12  A    between atoms: C_28  and  O_29 
ROOT
ATOM      1  C   UNL d   1      29.501 -15.950   0.497  0.00  0.00     0.047 A 
ATOM      2  C   UNL d   1      29.696 -17.069  -0.407  0.00  0.00     0.063 A 
ATOM      3  C   UNL d   1      30.969 -17.523  -1.106  0.00  0.00     0.073 C 
ATOM      4  N   UNL d   1      28.525 -17.622  -0.762  0.00  0.00    -0.170 NA
ATOM      5  N   UNL d   1      27.565 -16.898  -0.131  0.00  0.00    -0.210 N 
ATOM      6  C   UNL d   1      28.109 -15.911   0.694  0.00  0.00     0.181 A 
ENDROOT
BRANCH   1   7
ATOM      7  C   UNL d   1      30.533 -14.975   1.019  0.00  0.00     0.280 C 
BRANCH   7   8
ATOM      8  N   UNL d   1      30.086 -14.022   2.154  0.00  0.00    -0.065 N 
ATOM      9  H   UNL d   1      29.083 -14.173   2.217  0.00  0.00     0.280 HD
BRANCH   8  10
ATOM     10  C   UNL d   1      30.182 -12.532   1.972  0.00  0.00     0.235 C 
BRANCH  10  11
ATOM     11  C   UNL d   1      30.572 -11.734   3.188  0.00  0.00     0.023 C 
ATOM     12  C   UNL d   1      29.766 -10.485   3.382  0.00  0.00     0.007 C 
ENDBRANCH  10  11
ENDBRANCH   8  10
BRANCH   8  13
ATOM     13  C   UNL d   1      30.569 -14.464   3.557  0.00  0.00     0.266 C 
BRANCH  13  14
ATOM     14  C   UNL d   1      29.404 -14.825   4.553  0.00  0.00     0.143 C 
BRANCH  14  15
ATOM     15  C   UNL d   1      29.190 -13.756   5.638  0.00  0.00     0.029 C 
ATOM     16  C   UNL d   1      27.781 -13.198   5.765  0.00  0.00     0.007 C 
ENDBRANCH  14  15
BRANCH  14  17
ATOM     17  O   UNL d   1      28.159 -14.981   3.863  0.00  0.00    -0.394 OA
ATOM     18  H   UNL d   1      28.227 -15.700   3.213  0.00  0.00     0.210 HD
ENDBRANCH  14  17
ENDBRANCH  13  14
ENDBRANCH   8  13
ENDBRANCH   7   8
ENDBRANCH   1   7
BRANCH   6  19
ATOM     19  O   UNL d   1      27.252 -15.114   1.355  0.00  0.00    -0.288 OA
BRANCH  19  20
ATOM     20  C   UNL d   1      27.147 -13.766   1.157  0.00  0.00     0.111 C 
ATOM     21  C   UNL d   1      26.680 -13.017   2.233  0.00  0.00     0.040 C 
ATOM     22  C   UNL d   1      26.655 -11.624   2.197  0.00  0.00     0.003 C 
ATOM     23  C   UNL d   1      27.122 -10.966   1.064  0.00  0.00     0.003 C 
ATOM     24  C   UNL d   1      27.405 -11.711  -0.058  0.00  0.00     0.039 C 
ATOM     25  C   UNL d   1      27.418 -13.108  -0.054  0.00  0.00     0.102 C 
BRANCH  25  26
ATOM     26  O   UNL d   1      27.902 -13.599  -1.235  0.00  0.00    -0.353 OA
ATOM     27  C   UNL d   1      27.132 -13.459  -2.407  0.00  0.00     0.210 C 
ENDBRANCH  25  26
ENDBRANCH  19  20
ENDBRANCH   6  19
BRANCH   5  28
ATOM     28  C   UNL d   1      26.167 -17.075  -0.392  0.00  0.00     0.061 A 
ATOM     29  C   UNL d   1      25.472 -18.118   0.230  0.00  0.00     0.031 A 
ATOM     30  C   UNL d   1      24.076 -18.200   0.083  0.00  0.00     0.002 A 
ATOM     31  C   UNL d   1      23.364 -17.254  -0.652  0.00  0.00     0.000 A 
ATOM     32  C   UNL d   1      24.052 -16.221  -1.284  0.00  0.00     0.002 A 
ATOM     33  C   UNL d   1      25.442 -16.152  -1.158  0.00  0.00     0.031 A 
ENDBRANCH   5  28
TORSDOF 12
ENDMDL
MODEL 7
REMARK VINA RESULT:    -5.695      3.601      5.620
REMARK INTER + INTRA:         -15.025
REMARK INTER:                  -9.275
REMARK INTRA:                  -5.750
REMARK CONF_INDEPENDENT:        3.580
REMARK UNBOUND:                -5.750
REMARK  12 active torsions:
REMARK  status: ('A' for Active; 'I' for Inactive)
REMARK    1  A    between atoms: C_2  and  C_3 
REMARK    2  A    between atoms: C_3  and  N_4 
REMARK    3  A    between atoms: N_4  and  C_5 
REMARK    4  A    between atoms: N_4  and  C_27 
REMARK    5  A    between atoms: C_5  and  C_6 
REMARK    6  A    between atoms: N_10  and  C_11 
REMARK    7  A    between atoms: C_17  and  O_18 
REMARK    8  A    between atoms: O_18  and  C_19 
REMARK    9  A    between atoms: C_24  and  O_25 
REMARK   10  A    between atoms: C_28  and  C_27 
REMARK   11  A    between atoms: C_28  and  C_30 
REMARK   12  A    between atoms: C_28  and  O_29 
ROOT
ATOM      1  C   UNL d   1      28.144 -15.876  -0.734  0.00  0.00     0.047 A 
ATOM      2  C   UNL d   1      28.346 -17.289  -0.472  0.00  0.00     0.063 A 
ATOM      3  C   UNL d   1      29.635 -18.097  -0.521  0.00  0.00     0.073 C 
ATOM      4  N   UNL d   1      27.176 -17.937  -0.348  0.00  0.00    -0.170 NA
ATOM      5  N   UNL d   1      26.210 -17.000  -0.531  0.00  0.00    -0.210 N 
ATOM      6  C   UNL d   1      26.746 -15.722  -0.708  0.00  0.00     0.181 A 
ENDROOT
BRANCH   1   7
ATOM      7  C   UNL d   1      29.180 -14.828  -1.074  0.00  0.00     0.280 C 
BRANCH   7   8
ATOM      8  N   UNL d   1      29.342 -13.653  -0.080  0.00  0.00    -0.065 N 
ATOM      9  H   UNL d   1      28.513 -13.088  -0.235  0.00  0.00     0.280 HD
BRANCH   8  10
ATOM     10  C   UNL d   1      30.455 -12.657  -0.262  0.00  0.00     0.235 C 
BRANCH  10  11
ATOM     11  C   UNL d   1      31.098 -12.615  -1.623  0.00  0.00     0.023 C 
ATOM     12  C   UNL d   1      30.662 -11.456  -2.468  0.00  0.00     0.007 C 
ENDBRANCH  10  11
ENDBRANCH   8  10
BRANCH   8  13
ATOM     13  C   UNL d   1      29.178 -14.070   1.402  0.00  0.00     0.266 C 
BRANCH  13  14
ATOM     14  C   UNL d   1      27.703 -13.961   1.941  0.00  0.00     0.143 C 
BRANCH  14  15
ATOM     15  C   UNL d   1      27.636 -13.567   3.426  0.00  0.00     0.029 C 
ATOM     16  C   UNL d   1      28.274 -14.536   4.410  0.00  0.00     0.007 C 
ENDBRANCH  14  15
BRANCH  14  17
ATOM     17  O   UNL d   1      26.954 -12.983   1.210  0.00  0.00    -0.394 OA
ATOM     18  H   UNL d   1      26.723 -13.328   0.333  0.00  0.00     0.210 HD
ENDBRANCH  14  17
ENDBRANCH  13  14
ENDBRANCH   8  13
ENDBRANCH   7   8
ENDBRANCH   1   7
BRANCH   6  19
ATOM     19  O   UNL d   1      25.885 -14.713  -0.920  0.00  0.00    -0.288 OA
BRANCH  19  20
ATOM     20  C   UNL d   1      25.893 -13.917  -2.031  0.00  0.00     0.111 C 
ATOM     21  C   UNL d   1      25.160 -14.373  -3.124  0.00  0.00     0.040 C 
ATOM     22  C   UNL d   1      24.985 -13.589  -4.262  0.00  0.00     0.003 C 
ATOM     23  C   UNL d   1      25.541 -12.315  -4.303  0.00  0.00     0.003 C 
ATOM     24  C   UNL d   1      26.414 -11.948  -3.304  0.00  0.00     0.039 C 
ATOM     25  C   UNL d   1      26.624 -12.724  -2.160  0.00  0.00     0.102 C 
BRANCH  25  26
ATOM     26  O   UNL d   1      27.391 -12.057  -1.246  0.00  0.00    -0.353 OA
ATOM     27  C   UNL d   1      27.399 -10.648  -1.251  0.00  0.00     0.210 C 
ENDBRANCH  25  26
ENDBRANCH  19  20
ENDBRANCH   6  19
BRANCH   5  28
ATOM     28  C   UNL d   1      24.821 -17.333  -0.642  0.00  0.00     0.061 A 
ATOM     29  C   UNL d   1      24.416 -18.667  -0.519  0.00  0.00     0.031 A 
ATOM     30  C   UNL d   1      23.043 -18.970  -0.485  0.00  0.00     0.002 A 
ATOM     31  C   UNL d   1      22.075 -17.970  -0.550  0.00  0.00     0.000 A 
ATOM     32  C   UNL d   1      22.472 -16.641  -0.685  0.00  0.00     0.002 A 
ATOM     33  C   UNL d   1      23.836 -16.342  -0.743  0.00  0.00     0.031 A 
ENDBRANCH   5  28
TORSDOF 12
ENDMDL
