MODEL 1
REMARK VINA RESULT:    -8.421      0.000      0.000
REMARK INTER + INTRA:         -10.312
REMARK INTER:                  -9.316
REMARK INTRA:                  -0.996
REMARK CONF_INDEPENDENT:        0.895
REMARK UNBOUND:                -0.996
REMARK  3 active torsions:
REMARK  status: ('A' for Active; 'I' for Inactive)
REMARK       I    between atoms: C_2  and  N_3 
REMARK    1  A    between atoms: C_2  and  C_11 
REMARK    2  A    between atoms: N_3  and  C_4 
REMARK    3  A    between atoms: C_9  and  O_10 
ROOT
ATOM      1  O   UNL d   1      21.179 -17.338  -0.906  0.00  0.00    -0.267 OA
ATOM      2  C   UNL d   1      22.111 -17.970  -0.401  0.00  0.00     0.259 C 
ATOM      3  N   UNL d   1      21.980 -19.148   0.332  0.00  0.00    -0.320 N 
ATOM      4  H   UNL d   1      22.715 -19.398   0.980  0.00  0.00     0.169 HD
ENDROOT
BRANCH   2   5
ATOM      5  C   UNL d   1      23.457 -17.364  -0.507  0.00  0.00     0.072 A 
ATOM      6  C   UNL d   1      24.615 -18.007  -0.052  0.00  0.00     0.044 A 
ATOM      7  C   UNL d   1      25.865 -17.431  -0.319  0.00  0.00     0.035 A 
ATOM      8 CL   UNL d   1      27.305 -18.210   0.216  0.00  0.00    -0.084 Cl
ATOM      9  C   UNL d   1      25.973 -16.232  -1.031  0.00  0.00     0.027 A 
ATOM     10  C   UNL d   1      24.821 -15.594  -1.478  0.00  0.00     0.045 A 
ATOM     11  C   UNL d   1      23.575 -16.159  -1.213  0.00  0.00     0.132 A 
ATOM     12  F   UNL d   1      22.490 -15.501  -1.645  0.00  0.00    -0.205 F 
ENDBRANCH   2   5
BRANCH   3  13
ATOM     13  C   UNL d   1      20.695 -19.721   0.545  0.00  0.00     0.068 A 
ATOM     14  C   UNL d   1      20.279 -20.029   1.846  0.00  0.00     0.032 A 
ATOM     15  C   UNL d   1      18.977 -20.497   2.077  0.00  0.00     0.002 A 
ATOM     16  C   UNL d   1      18.100 -20.699   1.010  0.00  0.00     0.003 A 
ATOM     17  C   UNL d   1      18.523 -20.447  -0.295  0.00  0.00     0.039 A 
ATOM     18  C   UNL d   1      19.818 -19.973  -0.521  0.00  0.00     0.092 A 
BRANCH  18  19
ATOM     19  O   UNL d   1      20.278 -19.856  -1.807  0.00  0.00    -0.358 OA
ATOM     20  H   UNL d   1      20.265 -18.921  -2.060  0.00  0.00     0.217 HD
ENDBRANCH  18  19
ENDBRANCH   3  13
TORSDOF 3
ENDMDL
MODEL 2
REMARK VINA RESULT:    -7.943      2.029      2.303
REMARK INTER + INTRA:          -9.829
REMARK INTER:                  -8.838
REMARK INTRA:                  -0.991
REMARK CONF_INDEPENDENT:        0.895
REMARK UNBOUND:                -0.991
REMARK  3 active torsions:
REMARK  status: ('A' for Active; 'I' for Inactive)
REMARK       I    between atoms: C_2  and  N_3 
REMARK    1  A    between atoms: C_2  and  C_11 
REMARK    2  A    between atoms: N_3  and  C_4 
REMARK    3  A    between atoms: C_9  and  O_10 
ROOT
ATOM      1  O   UNL d   1      23.219 -19.668  -0.981  0.00  0.00    -0.267 OA
ATOM      2  C   UNL d   1      23.186 -18.597  -0.372  0.00  0.00     0.259 C 
ATOM      3  N   UNL d   1      22.158 -18.182   0.473  0.00  0.00    -0.320 N 
ATOM      4  H   UNL d   1      22.043 -17.193   0.645  0.00  0.00     0.169 HD
ENDROOT
BRANCH   2   5
ATOM      5  C   UNL d   1      24.286 -17.644  -0.646  0.00  0.00     0.072 A 
ATOM      6  C   UNL d   1      24.211 -16.669  -1.648  0.00  0.00     0.044 A 
ATOM      7  C   UNL d   1      25.233 -15.715  -1.749  0.00  0.00     0.035 A 
ATOM      8 CL   UNL d   1      25.157 -14.495  -2.963  0.00  0.00    -0.084 Cl
ATOM      9  C   UNL d   1      26.318 -15.719  -0.867  0.00  0.00     0.027 A 
ATOM     10  C   UNL d   1      26.391 -16.691   0.126  0.00  0.00     0.045 A 
ATOM     11  C   UNL d   1      25.381 -17.645   0.229  0.00  0.00     0.132 A 
ATOM     12  F   UNL d   1      25.501 -18.575   1.187  0.00  0.00    -0.205 F 
ENDBRANCH   2   5
BRANCH   3  13
ATOM     13  C   UNL d   1      21.031 -19.022   0.694  0.00  0.00     0.068 A 
ATOM     14  C   UNL d   1      20.644 -19.334   2.003  0.00  0.00     0.032 A 
ATOM     15  C   UNL d   1      19.475 -20.075   2.235  0.00  0.00     0.002 A 
ATOM     16  C   UNL d   1      18.712 -20.542   1.163  0.00  0.00     0.003 A 
ATOM     17  C   UNL d   1      19.118 -20.282  -0.145  0.00  0.00     0.039 A 
ATOM     18  C   UNL d   1      20.278 -19.537  -0.372  0.00  0.00     0.092 A 
BRANCH  18  19
ATOM     19  O   UNL d   1      20.750 -19.399  -1.652  0.00  0.00    -0.358 OA
ATOM     20  H   UNL d   1      21.405 -18.684  -1.668  0.00  0.00     0.217 HD
ENDBRANCH  18  19
ENDBRANCH   3  13
TORSDOF 3
ENDMDL
MODEL 3
REMARK VINA RESULT:    -6.505     13.361     15.246
REMARK INTER + INTRA:          -8.079
REMARK INTER:                  -7.400
REMARK INTRA:                  -0.679
REMARK CONF_INDEPENDENT:        0.895
REMARK UNBOUND:                -0.679
REMARK  3 active torsions:
REMARK  status: ('A' for Active; 'I' for Inactive)
REMARK       I    between atoms: C_2  and  N_3 
REMARK    1  A    between atoms: C_2  and  C_11 
REMARK    2  A    between atoms: N_3  and  C_4 
REMARK    3  A    between atoms: C_9  and  O_10 
ROOT
ATOM      1  O   UNL d   1      35.314 -20.407   6.788  0.00  0.00    -0.267 OA
ATOM      2  C   UNL d   1      34.764 -21.300   7.436  0.00  0.00     0.259 C 
ATOM      3  N   UNL d   1      33.568 -21.925   7.090  0.00  0.00    -0.320 N 
ATOM      4  H   UNL d   1      33.028 -22.373   7.818  0.00  0.00     0.169 HD
ENDROOT
BRANCH   2   5
ATOM      5  C   UNL d   1      35.385 -21.659   8.731  0.00  0.00     0.072 A 
ATOM      6  C   UNL d   1      35.655 -20.714   9.729  0.00  0.00     0.044 A 
ATOM      7  C   UNL d   1      36.111 -21.154  10.980  0.00  0.00     0.035 A 
ATOM      8 CL   UNL d   1      36.434 -20.014  12.229  0.00  0.00    -0.084 Cl
ATOM      9  C   UNL d   1      36.296 -22.515  11.246  0.00  0.00     0.027 A 
ATOM     10  C   UNL d   1      36.030 -23.450  10.251  0.00  0.00     0.045 A 
ATOM     11  C   UNL d   1      35.581 -23.019   9.005  0.00  0.00     0.132 A 
ATOM     12  F   UNL d   1      35.356 -23.953   8.069  0.00  0.00    -0.205 F 
ENDBRANCH   2   5
BRANCH   3  13
ATOM     13  C   UNL d   1      32.880 -21.549   5.903  0.00  0.00     0.068 A 
ATOM     14  C   UNL d   1      33.607 -21.256   4.742  0.00  0.00     0.032 A 
ATOM     15  C   UNL d   1      32.937 -20.984   3.540  0.00  0.00     0.002 A 
ATOM     16  C   UNL d   1      31.541 -20.963   3.500  0.00  0.00     0.003 A 
ATOM     17  C   UNL d   1      30.809 -21.200   4.662  0.00  0.00     0.039 A 
ATOM     18  C   UNL d   1      31.479 -21.478   5.856  0.00  0.00     0.092 A 
BRANCH  18  19
ATOM     19  O   UNL d   1      30.766 -21.575   7.023  0.00  0.00    -0.358 OA
ATOM     20  H   UNL d   1      30.197 -22.358   6.977  0.00  0.00     0.217 HD
ENDBRANCH  18  19
ENDBRANCH   3  13
TORSDOF 3
ENDMDL
MODEL 4
REMARK VINA RESULT:    -6.378      4.547      7.911
REMARK INTER + INTRA:          -8.305
REMARK INTER:                  -7.273
REMARK INTRA:                  -1.033
REMARK CONF_INDEPENDENT:        0.895
REMARK UNBOUND:                -1.033
REMARK  3 active torsions:
REMARK  status: ('A' for Active; 'I' for Inactive)
REMARK       I    between atoms: C_2  and  N_3 
REMARK    1  A    between atoms: C_2  and  C_11 
REMARK    2  A    between atoms: N_3  and  C_4 
REMARK    3  A    between atoms: C_9  and  O_10 
ROOT
ATOM      1  O   UNL d   1      27.266 -15.766  -2.499  0.00  0.00    -0.267 OA
ATOM      2  C   UNL d   1      26.034 -15.718  -2.456  0.00  0.00     0.259 C 
ATOM      3  N   UNL d   1      25.239 -14.821  -3.167  0.00  0.00    -0.320 N 
ATOM      4  H   UNL d   1      24.310 -14.621  -2.824  0.00  0.00     0.169 HD
ENDROOT
BRANCH   2   5
ATOM      5  C   UNL d   1      25.368 -16.625  -1.495  0.00  0.00     0.072 A 
ATOM      6  C   UNL d   1      24.026 -17.006  -1.620  0.00  0.00     0.044 A 
ATOM      7  C   UNL d   1      23.510 -17.980  -0.752  0.00  0.00     0.035 A 
ATOM      8 CL   UNL d   1      21.868 -18.478  -0.895  0.00  0.00    -0.084 Cl
ATOM      9  C   UNL d   1      24.311 -18.575   0.228  0.00  0.00     0.027 A 
ATOM     10  C   UNL d   1      25.643 -18.191   0.350  0.00  0.00     0.045 A 
ATOM     11  C   UNL d   1      26.160 -17.222  -0.506  0.00  0.00     0.132 A 
ATOM     12  F   UNL d   1      27.443 -16.867  -0.339  0.00  0.00    -0.205 F 
ENDBRANCH   2   5
BRANCH   3  13
ATOM     13  C   UNL d   1      25.838 -13.863  -4.033  0.00  0.00     0.068 A 
ATOM     14  C   UNL d   1      25.527 -12.506  -3.888  0.00  0.00     0.032 A 
ATOM     15  C   UNL d   1      26.189 -11.544  -4.666  0.00  0.00     0.002 A 
ATOM     16  C   UNL d   1      27.131 -11.935  -5.620  0.00  0.00     0.003 A 
ATOM     17  C   UNL d   1      27.407 -13.288  -5.810  0.00  0.00     0.039 A 
ATOM     18  C   UNL d   1      26.753 -14.243  -5.028  0.00  0.00     0.092 A 
BRANCH  18  19
ATOM     19  O   UNL d   1      26.922 -15.574  -5.307  0.00  0.00    -0.358 OA
ATOM     20  H   UNL d   1      27.479 -15.969  -4.620  0.00  0.00     0.217 HD
ENDBRANCH  18  19
ENDBRANCH   3  13
TORSDOF 3
ENDMDL
MODEL 5
REMARK VINA RESULT:    -6.170      4.596      8.316
REMARK INTER + INTRA:          -7.974
REMARK INTER:                  -7.065
REMARK INTRA:                  -0.909
REMARK CONF_INDEPENDENT:        0.895
REMARK UNBOUND:                -0.909
REMARK  3 active torsions:
REMARK  status: ('A' for Active; 'I' for Inactive)
REMARK       I    between atoms: C_2  and  N_3 
REMARK    1  A    between atoms: C_2  and  C_11 
REMARK    2  A    between atoms: N_3  and  C_4 
REMARK    3  A    between atoms: C_9  and  O_10 
ROOT
ATOM      1  O   UNL d   1      24.427 -14.449  -3.515  0.00  0.00    -0.267 OA
ATOM      2  C   UNL d   1      25.442 -14.865  -2.950  0.00  0.00     0.259 C 
ATOM      3  N   UNL d   1      26.751 -14.569  -3.325  0.00  0.00    -0.320 N 
ATOM      4  H   UNL d   1      27.488 -15.201  -3.046  0.00  0.00     0.169 HD
ENDROOT
BRANCH   2   5
ATOM      5  C   UNL d   1      25.238 -15.834  -1.849  0.00  0.00     0.072 A 
ATOM      6  C   UNL d   1      24.026 -16.506  -1.647  0.00  0.00     0.044 A 
ATOM      7  C   UNL d   1      23.958 -17.511  -0.672  0.00  0.00     0.035 A 
ATOM      8 CL   UNL d   1      22.484 -18.365  -0.414  0.00  0.00    -0.084 Cl
ATOM      9  C   UNL d   1      25.077 -17.854   0.095  0.00  0.00     0.027 A 
ATOM     10  C   UNL d   1      26.278 -17.182  -0.107  0.00  0.00     0.045 A 
ATOM     11  C   UNL d   1      26.351 -16.179  -1.071  0.00  0.00     0.132 A 
ATOM     12  F   UNL d   1      27.522 -15.543  -1.218  0.00  0.00    -0.205 F 
ENDBRANCH   2   5
BRANCH   3  13
ATOM     13  C   UNL d   1      27.002 -13.718  -4.438  0.00  0.00     0.068 A 
ATOM     14  C   UNL d   1      27.991 -14.063  -5.366  0.00  0.00     0.032 A 
ATOM     15  C   UNL d   1      28.177 -13.287  -6.520  0.00  0.00     0.002 A 
ATOM     16  C   UNL d   1      27.405 -12.143  -6.732  0.00  0.00     0.003 A 
ATOM     17  C   UNL d   1      26.454 -11.761  -5.787  0.00  0.00     0.039 A 
ATOM     18  C   UNL d   1      26.267 -12.540  -4.642  0.00  0.00     0.092 A 
BRANCH  18  19
ATOM     19  O   UNL d   1      25.433 -12.092  -3.651  0.00  0.00    -0.358 OA
ATOM     20  H   UNL d   1      24.519 -12.311  -3.889  0.00  0.00     0.217 HD
ENDBRANCH  18  19
ENDBRANCH   3  13
TORSDOF 3
ENDMDL
MODEL 6
REMARK VINA RESULT:    -5.808      4.380      6.197
REMARK INTER + INTRA:          -7.277
REMARK INTER:                  -6.703
REMARK INTRA:                  -0.574
REMARK CONF_INDEPENDENT:        0.895
REMARK UNBOUND:                -0.574
REMARK  3 active torsions:
REMARK  status: ('A' for Active; 'I' for Inactive)
REMARK       I    between atoms: C_2  and  N_3 
REMARK    1  A    between atoms: C_2  and  C_11 
REMARK    2  A    between atoms: N_3  and  C_4 
REMARK    3  A    between atoms: C_9  and  O_10 
ROOT
ATOM      1  O   UNL d   1      24.410 -14.669  -3.015  0.00  0.00    -0.267 OA
ATOM      2  C   UNL d   1      25.563 -15.071  -3.189  0.00  0.00     0.259 C 
ATOM      3  N   UNL d   1      26.160 -16.126  -2.503  0.00  0.00    -0.320 N 
ATOM      4  H   UNL d   1      27.169 -16.162  -2.453  0.00  0.00     0.169 HD
ENDROOT
BRANCH   2   5
ATOM      5  C   UNL d   1      26.398 -14.298  -4.136  0.00  0.00     0.072 A 
ATOM      6  C   UNL d   1      27.393 -14.889  -4.925  0.00  0.00     0.044 A 
ATOM      7  C   UNL d   1      28.041 -14.116  -5.898  0.00  0.00     0.035 A 
ATOM      8 CL   UNL d   1      29.257 -14.823  -6.892  0.00  0.00    -0.084 Cl
ATOM      9  C   UNL d   1      27.708 -12.772  -6.095  0.00  0.00     0.027 A 
ATOM     10  C   UNL d   1      26.722 -12.187  -5.308  0.00  0.00     0.045 A 
ATOM     11  C   UNL d   1      26.077 -12.949  -4.336  0.00  0.00     0.132 A 
ATOM     12  F   UNL d   1      25.147 -12.340  -3.586  0.00  0.00    -0.205 F 
ENDBRANCH   2   5
BRANCH   3  13
ATOM     13  C   UNL d   1      25.429 -16.841  -1.512  0.00  0.00     0.068 A 
ATOM     14  C   UNL d   1      24.044 -16.992  -1.645  0.00  0.00     0.032 A 
ATOM     15  C   UNL d   1      23.330 -17.781  -0.731  0.00  0.00     0.002 A 
ATOM     16  C   UNL d   1      23.987 -18.388   0.342  0.00  0.00     0.003 A 
ATOM     17  C   UNL d   1      25.358 -18.199   0.513  0.00  0.00     0.039 A 
ATOM     18  C   UNL d   1      26.067 -17.419  -0.404  0.00  0.00     0.092 A 
BRANCH  18  19
ATOM     19  O   UNL d   1      27.383 -17.122  -0.160  0.00  0.00    -0.358 OA
ATOM     20  H   UNL d   1      27.798 -17.878   0.282  0.00  0.00     0.217 HD
ENDBRANCH  18  19
ENDBRANCH   3  13
TORSDOF 3
ENDMDL
MODEL 7
REMARK VINA RESULT:    -5.735      4.931      6.834
REMARK INTER + INTRA:          -7.238
REMARK INTER:                  -6.630
REMARK INTRA:                  -0.608
REMARK CONF_INDEPENDENT:        0.895
REMARK UNBOUND:                -0.608
REMARK  3 active torsions:
REMARK  status: ('A' for Active; 'I' for Inactive)
REMARK       I    between atoms: C_2  and  N_3 
REMARK    1  A    between atoms: C_2  and  C_11 
REMARK    2  A    between atoms: N_3  and  C_4 
REMARK    3  A    between atoms: C_9  and  O_10 
ROOT
ATOM      1  O   UNL d   1      24.378 -14.579  -3.145  0.00  0.00    -0.267 OA
ATOM      2  C   UNL d   1      25.548 -14.857  -3.417  0.00  0.00     0.259 C 
ATOM      3  N   UNL d   1      26.319 -15.816  -2.763  0.00  0.00    -0.320 N 
ATOM      4  H   UNL d   1      27.326 -15.739  -2.807  0.00  0.00     0.169 HD
ENDROOT
BRANCH   2   5
ATOM      5  C   UNL d   1      26.202 -14.032  -4.457  0.00  0.00     0.072 A 
ATOM      6  C   UNL d   1      25.891 -12.681  -4.659  0.00  0.00     0.044 A 
ATOM      7  C   UNL d   1      26.655 -11.933  -5.566  0.00  0.00     0.035 A 
ATOM      8 CL   UNL d   1      26.303 -10.267  -5.821  0.00  0.00    -0.084 Cl
ATOM      9  C   UNL d   1      27.719 -12.511  -6.265  0.00  0.00     0.027 A 
ATOM     10  C   UNL d   1      28.024 -13.853  -6.064  0.00  0.00     0.045 A 
ATOM     11  C   UNL d   1      27.266 -14.603  -5.168  0.00  0.00     0.132 A 
ATOM     12  F   UNL d   1      27.581 -15.898  -5.020  0.00  0.00    -0.205 F 
ENDBRANCH   2   5
BRANCH   3  13
ATOM     13  C   UNL d   1      25.766 -16.571  -1.691  0.00  0.00     0.068 A 
ATOM     14  C   UNL d   1      24.386 -16.804  -1.645  0.00  0.00     0.032 A 
ATOM     15  C   UNL d   1      23.844 -17.632  -0.650  0.00  0.00     0.002 A 
ATOM     16  C   UNL d   1      24.670 -18.197   0.325  0.00  0.00     0.003 A 
ATOM     17  C   UNL d   1      26.037 -17.926   0.319  0.00  0.00     0.039 A 
ATOM     18  C   UNL d   1      26.575 -17.108  -0.677  0.00  0.00     0.092 A 
BRANCH  18  19
ATOM     19  O   UNL d   1      27.891 -16.733  -0.603  0.00  0.00    -0.358 OA
ATOM     20  H   UNL d   1      28.339 -17.289   0.052  0.00  0.00     0.217 HD
ENDBRANCH  18  19
ENDBRANCH   3  13
TORSDOF 3
ENDMDL
