MODEL 1
REMARK VINA RESULT:    -8.922      0.000      0.000
REMARK INTER + INTRA:         -12.094
REMARK INTER:                 -11.309
REMARK INTRA:                  -0.786
REMARK CONF_INDEPENDENT:        2.386
REMARK UNBOUND:                -0.786
REMARK  8 active torsions:
REMARK  status: ('A' for Active; 'I' for Inactive)
REMARK    1  A    between atoms: O_2  and  C_3 
REMARK    2  A    between atoms: C_5  and  C_6 
REMARK    3  A    between atoms: N_7  and  N_8 
REMARK       I    between atoms: N_8  and  C_9 
REMARK    4  A    between atoms: C_9  and  C_11 
REMARK    5  A    between atoms: C_11  and  N_12 
REMARK    6  A    between atoms: N_12  and  S_14 
REMARK    7  A    between atoms: S_14  and  C_17 
REMARK    8  A    between atoms: C_28  and  O_29 
ROOT
ATOM      1  N   UNL d   1      28.494 -14.929   4.179  0.00  0.00    -0.246 N 
ATOM      2  C   UNL d   1      28.210 -14.013   3.158  0.00  0.00     0.251 C 
ATOM      3  O   UNL d   1      27.726 -12.902   3.389  0.00  0.00    -0.270 OA
ATOM      4  H   UNL d   1      28.838 -15.864   3.989  0.00  0.00     0.192 HD
ENDROOT
BRANCH   2   5
ATOM      5  C   UNL d   1      28.568 -14.473   1.728  0.00  0.00     0.211 C 
BRANCH   5   6
ATOM      6  N   UNL d   1      27.350 -14.557   0.838  0.00  0.00    -0.202 NA
ATOM      7  C   UNL d   1      27.009 -13.201   0.341  0.00  0.00     0.130 C 
BRANCH   6   8
ATOM      8  S   UNL d   1      27.475 -15.697  -0.413  0.00  0.00     0.244 S 
ATOM      9  O   UNL d   1      27.562 -14.908  -1.621  0.00  0.00    -0.206 OA
ATOM     10  O   UNL d   1      28.535 -16.631  -0.062  0.00  0.00    -0.206 OA
BRANCH   8  11
ATOM     11  C   UNL d   1      25.943 -16.660  -0.507  0.00  0.00     0.086 A 
ATOM     12  C   UNL d   1      24.927 -16.166  -1.384  0.00  0.00    -0.038 A 
ATOM     13  C   UNL d   1      25.098 -14.937  -2.253  0.00  0.00     0.050 C 
ATOM     14  C   UNL d   1      23.685 -16.844  -1.466  0.00  0.00     0.015 A 
ATOM     15  C   UNL d   1      23.430 -17.975  -0.687  0.00  0.00    -0.061 A 
ATOM     16  C   UNL d   1      22.146 -18.751  -0.729  0.00  0.00     0.048 C 
ATOM     17  C   UNL d   1      24.430 -18.437   0.164  0.00  0.00     0.015 A 
ATOM     18  C   UNL d   1      25.700 -17.841   0.241  0.00  0.00    -0.038 A 
ATOM     19  C   UNL d   1      26.655 -18.575   1.140  0.00  0.00     0.050 C 
ENDBRANCH   8  11
ENDBRANCH   6   8
ENDBRANCH   5   6
ENDBRANCH   2   5
BRANCH   1  20
ATOM     20  N   UNL d   1      28.246 -14.535   5.475  0.00  0.00    -0.184 NA
ATOM     21  C   UNL d   1      29.211 -14.056   6.198  0.00  0.00     0.150 C 
BRANCH  21  22
ATOM     22  C   UNL d   1      28.969 -13.624   7.613  0.00  0.00    -0.014 A 
ATOM     23  C   UNL d   1      29.312 -14.450   8.693  0.00  0.00     0.052 A 
ATOM     24  C   UNL d   1      29.076 -14.040  10.025  0.00  0.00     0.102 A 
ATOM     25  C   UNL d   1      28.506 -12.779  10.261  0.00  0.00     0.099 A 
ATOM     26  C   UNL d   1      28.163 -11.955   9.189  0.00  0.00     0.040 A 
ATOM     27  C   UNL d   1      28.389 -12.377   7.874  0.00  0.00     0.016 A 
BRANCH  24  28
ATOM     28  O   UNL d   1      29.448 -14.963  10.972  0.00  0.00    -0.353 OA
ATOM     29  C   UNL d   1      30.420 -15.936  10.590  0.00  0.00     0.210 C 
ENDBRANCH  24  28
BRANCH  25  30
ATOM     30  O   UNL d   1      28.277 -12.325  11.531  0.00  0.00    -0.358 OA
ATOM     31  H   UNL d   1      28.539 -11.396  11.622  0.00  0.00     0.217 HD
ENDBRANCH  25  30
ENDBRANCH  21  22
ENDBRANCH   1  20
TORSDOF 8
ENDMDL
MODEL 2
REMARK VINA RESULT:    -8.659      0.995      1.836
REMARK INTER + INTRA:         -12.020
REMARK INTER:                 -11.045
REMARK INTRA:                  -0.975
REMARK CONF_INDEPENDENT:        2.386
REMARK UNBOUND:                -0.975
REMARK  8 active torsions:
REMARK  status: ('A' for Active; 'I' for Inactive)
REMARK    1  A    between atoms: O_2  and  C_3 
REMARK    2  A    between atoms: C_5  and  C_6 
REMARK    3  A    between atoms: N_7  and  N_8 
REMARK       I    between atoms: N_8  and  C_9 
REMARK    4  A    between atoms: C_9  and  C_11 
REMARK    5  A    between atoms: C_11  and  N_12 
REMARK    6  A    between atoms: N_12  and  S_14 
REMARK    7  A    between atoms: S_14  and  C_17 
REMARK    8  A    between atoms: C_28  and  O_29 
ROOT
ATOM      1  N   UNL d   1      28.670 -14.788   3.904  0.00  0.00    -0.246 N 
ATOM      2  C   UNL d   1      27.927 -14.319   2.813  0.00  0.00     0.251 C 
ATOM      3  O   UNL d   1      27.079 -13.431   2.929  0.00  0.00    -0.270 OA
ATOM      4  H   UNL d   1      29.326 -15.557   3.825  0.00  0.00     0.192 HD
ENDROOT
BRANCH   2   5
ATOM      5  C   UNL d   1      28.257 -14.967   1.451  0.00  0.00     0.211 C 
BRANCH   5   6
ATOM      6  N   UNL d   1      27.225 -14.636   0.400  0.00  0.00    -0.202 NA
ATOM      7  C   UNL d   1      27.440 -13.249  -0.082  0.00  0.00     0.130 C 
BRANCH   6   8
ATOM      8  S   UNL d   1      27.132 -15.760  -0.868  0.00  0.00     0.244 S 
ATOM      9  O   UNL d   1      26.958 -14.957  -2.058  0.00  0.00    -0.206 OA
ATOM     10  O   UNL d   1      28.264 -16.666  -0.747  0.00  0.00    -0.206 OA
BRANCH   8  11
ATOM     11  C   UNL d   1      25.636 -16.766  -0.675  0.00  0.00     0.086 A 
ATOM     12  C   UNL d   1      24.485 -16.353  -1.415  0.00  0.00    -0.038 A 
ATOM     13  C   UNL d   1      24.481 -15.177  -2.369  0.00  0.00     0.050 C 
ATOM     14  C   UNL d   1      23.268 -17.066  -1.270  0.00  0.00     0.015 A 
ATOM     15  C   UNL d   1      23.173 -18.154  -0.398  0.00  0.00    -0.061 A 
ATOM     16  C   UNL d   1      21.924 -18.964  -0.201  0.00  0.00     0.048 C 
ATOM     17  C   UNL d   1      24.303 -18.536   0.317  0.00  0.00     0.015 A 
ATOM     18  C   UNL d   1      25.549 -17.904   0.168  0.00  0.00    -0.038 A 
ATOM     19  C   UNL d   1      26.652 -18.557   0.953  0.00  0.00     0.050 C 
ENDBRANCH   8  11
ENDBRANCH   6   8
ENDBRANCH   5   6
ENDBRANCH   2   5
BRANCH   1  20
ATOM     20  N   UNL d   1      28.448 -14.194   5.127  0.00  0.00    -0.184 NA
ATOM     21  C   UNL d   1      29.318 -14.337   6.080  0.00  0.00     0.150 C 
BRANCH  21  22
ATOM     22  C   UNL d   1      29.099 -13.706   7.421  0.00  0.00    -0.014 A 
ATOM     23  C   UNL d   1      29.062 -12.311   7.570  0.00  0.00     0.052 A 
ATOM     24  C   UNL d   1      28.861 -11.721   8.838  0.00  0.00     0.102 A 
ATOM     25  C   UNL d   1      28.678 -12.550   9.956  0.00  0.00     0.099 A 
ATOM     26  C   UNL d   1      28.715 -13.936   9.812  0.00  0.00     0.040 A 
ATOM     27  C   UNL d   1      28.928 -14.510   8.553  0.00  0.00     0.016 A 
BRANCH  24  28
ATOM     28  O   UNL d   1      28.867 -10.347   8.826  0.00  0.00    -0.353 OA
ATOM     29  C   UNL d   1      30.134  -9.701   8.701  0.00  0.00     0.210 C 
ENDBRANCH  24  28
BRANCH  25  30
ATOM     30  O   UNL d   1      28.458 -12.029  11.202  0.00  0.00    -0.358 OA
ATOM     31  H   UNL d   1      28.633 -11.075  11.217  0.00  0.00     0.217 HD
ENDBRANCH  25  30
ENDBRANCH  21  22
ENDBRANCH   1  20
TORSDOF 8
ENDMDL
MODEL 3
REMARK VINA RESULT:    -8.624      0.263      1.657
REMARK INTER + INTRA:         -12.012
REMARK INTER:                 -11.010
REMARK INTRA:                  -1.002
REMARK CONF_INDEPENDENT:        2.386
REMARK UNBOUND:                -1.002
REMARK  8 active torsions:
REMARK  status: ('A' for Active; 'I' for Inactive)
REMARK    1  A    between atoms: O_2  and  C_3 
REMARK    2  A    between atoms: C_5  and  C_6 
REMARK    3  A    between atoms: N_7  and  N_8 
REMARK       I    between atoms: N_8  and  C_9 
REMARK    4  A    between atoms: C_9  and  C_11 
REMARK    5  A    between atoms: C_11  and  N_12 
REMARK    6  A    between atoms: N_12  and  S_14 
REMARK    7  A    between atoms: S_14  and  C_17 
REMARK    8  A    between atoms: C_28  and  O_29 
ROOT
ATOM      1  N   UNL d   1      28.341 -15.077   4.209  0.00  0.00    -0.246 N 
ATOM      2  C   UNL d   1      28.341 -14.071   3.233  0.00  0.00     0.251 C 
ATOM      3  O   UNL d   1      28.157 -12.884   3.513  0.00  0.00    -0.270 OA
ATOM      4  H   UNL d   1      28.435 -16.059   3.976  0.00  0.00     0.192 HD
ENDROOT
BRANCH   2   5
ATOM      5  C   UNL d   1      28.616 -14.542   1.788  0.00  0.00     0.211 C 
BRANCH   5   6
ATOM      6  N   UNL d   1      27.340 -14.730   1.002  0.00  0.00    -0.202 NA
ATOM      7  C   UNL d   1      26.811 -13.403   0.597  0.00  0.00     0.130 C 
BRANCH   6   8
ATOM      8  S   UNL d   1      27.476 -15.804  -0.305  0.00  0.00     0.244 S 
ATOM      9  O   UNL d   1      27.679 -14.955  -1.458  0.00  0.00    -0.206 OA
ATOM     10  O   UNL d   1      28.460 -16.817   0.048  0.00  0.00    -0.206 OA
BRANCH   8  11
ATOM     11  C   UNL d   1      25.901 -16.668  -0.543  0.00  0.00     0.086 A 
ATOM     12  C   UNL d   1      25.678 -17.829   0.260  0.00  0.00    -0.038 A 
ATOM     13  C   UNL d   1      26.654 -18.320   1.309  0.00  0.00     0.050 C 
ATOM     14  C   UNL d   1      24.488 -18.580   0.088  0.00  0.00     0.015 A 
ATOM     15  C   UNL d   1      23.539 -18.214  -0.870  0.00  0.00    -0.061 A 
ATOM     16  C   UNL d   1      22.252 -18.951  -1.101  0.00  0.00     0.048 C 
ATOM     17  C   UNL d   1      23.777 -17.083  -1.645  0.00  0.00     0.015 A 
ATOM     18  C   UNL d   1      24.909 -16.268  -1.476  0.00  0.00    -0.038 A 
ATOM     19  C   UNL d   1      24.900 -15.039  -2.342  0.00  0.00     0.050 C 
ENDBRANCH   8  11
ENDBRANCH   6   8
ENDBRANCH   5   6
ENDBRANCH   2   5
BRANCH   1  20
ATOM     20  N   UNL d   1      28.160 -14.692   5.519  0.00  0.00    -0.184 NA
ATOM     21  C   UNL d   1      29.067 -13.976   6.111  0.00  0.00     0.150 C 
BRANCH  21  22
ATOM     22  C   UNL d   1      28.897 -13.548   7.537  0.00  0.00    -0.014 A 
ATOM     23  C   UNL d   1      29.092 -14.450   8.594  0.00  0.00     0.052 A 
ATOM     24  C   UNL d   1      28.924 -14.042   9.937  0.00  0.00     0.102 A 
ATOM     25  C   UNL d   1      28.575 -12.710  10.208  0.00  0.00     0.099 A 
ATOM     26  C   UNL d   1      28.379 -11.811   9.160  0.00  0.00     0.040 A 
ATOM     27  C   UNL d   1      28.535 -12.229   7.833  0.00  0.00     0.016 A 
BRANCH  24  28
ATOM     28  O   UNL d   1      29.133 -15.040  10.858  0.00  0.00    -0.353 OA
ATOM     29  C   UNL d   1      30.470 -15.511  11.019  0.00  0.00     0.210 C 
ENDBRANCH  24  28
BRANCH  25  30
ATOM     30  O   UNL d   1      28.422 -12.259  11.491  0.00  0.00    -0.358 OA
ATOM     31  H   UNL d   1      28.686 -11.329  11.567  0.00  0.00     0.217 HD
ENDBRANCH  25  30
ENDBRANCH  21  22
ENDBRANCH   1  20
TORSDOF 8
ENDMDL
MODEL 4
REMARK VINA RESULT:    -8.233      1.320      2.428
REMARK INTER + INTRA:         -11.987
REMARK INTER:                 -10.620
REMARK INTRA:                  -1.367
REMARK CONF_INDEPENDENT:        2.386
REMARK UNBOUND:                -1.367
REMARK  8 active torsions:
REMARK  status: ('A' for Active; 'I' for Inactive)
REMARK    1  A    between atoms: O_2  and  C_3 
REMARK    2  A    between atoms: C_5  and  C_6 
REMARK    3  A    between atoms: N_7  and  N_8 
REMARK       I    between atoms: N_8  and  C_9 
REMARK    4  A    between atoms: C_9  and  C_11 
REMARK    5  A    between atoms: C_11  and  N_12 
REMARK    6  A    between atoms: N_12  and  S_14 
REMARK    7  A    between atoms: S_14  and  C_17 
REMARK    8  A    between atoms: C_28  and  O_29 
ROOT
ATOM      1  N   UNL d   1      28.663 -14.655   3.393  0.00  0.00    -0.246 N 
ATOM      2  C   UNL d   1      27.699 -14.311   2.437  0.00  0.00     0.251 C 
ATOM      3  O   UNL d   1      27.126 -13.219   2.445  0.00  0.00    -0.270 OA
ATOM      4  H   UNL d   1      29.094 -15.573   3.423  0.00  0.00     0.192 HD
ENDROOT
BRANCH   2   5
ATOM      5  C   UNL d   1      27.419 -15.377   1.354  0.00  0.00     0.211 C 
BRANCH   5   6
ATOM      6  N   UNL d   1      28.220 -15.132   0.098  0.00  0.00    -0.202 NA
ATOM      7  C   UNL d   1      29.666 -15.277   0.399  0.00  0.00     0.130 C 
BRANCH   6   8
ATOM      8  S   UNL d   1      27.735 -16.066  -1.234  0.00  0.00     0.244 S 
ATOM      9  O   UNL d   1      27.690 -15.134  -2.339  0.00  0.00    -0.206 OA
ATOM     10  O   UNL d   1      28.592 -17.241  -1.292  0.00  0.00    -0.206 OA
BRANCH   8  11
ATOM     11  C   UNL d   1      26.045 -16.665  -0.967  0.00  0.00     0.086 A 
ATOM     12  C   UNL d   1      25.895 -17.802  -0.113  0.00  0.00    -0.038 A 
ATOM     13  C   UNL d   1      27.052 -18.471   0.600  0.00  0.00     0.050 C 
ATOM     14  C   UNL d   1      24.606 -18.353   0.097  0.00  0.00     0.015 A 
ATOM     15  C   UNL d   1      23.482 -17.814  -0.534  0.00  0.00    -0.061 A 
ATOM     16  C   UNL d   1      22.086 -18.334  -0.351  0.00  0.00     0.048 C 
ATOM     17  C   UNL d   1      23.650 -16.711  -1.365  0.00  0.00     0.015 A 
ATOM     18  C   UNL d   1      24.895 -16.088  -1.563  0.00  0.00    -0.038 A 
ATOM     19  C   UNL d   1      24.818 -14.847  -2.408  0.00  0.00     0.050 C 
ENDBRANCH   8  11
ENDBRANCH   6   8
ENDBRANCH   5   6
ENDBRANCH   2   5
BRANCH   1  20
ATOM     20  N   UNL d   1      28.986 -13.710   4.340  0.00  0.00    -0.184 NA
ATOM     21  C   UNL d   1      28.366 -13.703   5.481  0.00  0.00     0.150 C 
BRANCH  21  22
ATOM     22  C   UNL d   1      28.694 -12.683   6.527  0.00  0.00    -0.014 A 
ATOM     23  C   UNL d   1      28.318 -12.868   7.866  0.00  0.00     0.052 A 
ATOM     24  C   UNL d   1      28.626 -11.899   8.847  0.00  0.00     0.102 A 
ATOM     25  C   UNL d   1      29.334 -10.746   8.472  0.00  0.00     0.099 A 
ATOM     26  C   UNL d   1      29.708 -10.558   7.143  0.00  0.00     0.040 A 
ATOM     27  C   UNL d   1      29.387 -11.519   6.176  0.00  0.00     0.016 A 
BRANCH  24  28
ATOM     28  O   UNL d   1      28.177 -12.213  10.108  0.00  0.00    -0.353 OA
ATOM     29  C   UNL d   1      28.228 -13.585  10.496  0.00  0.00     0.210 C 
ENDBRANCH  24  28
BRANCH  25  30
ATOM     30  O   UNL d   1      29.675  -9.788   9.388  0.00  0.00    -0.358 OA
ATOM     31  H   UNL d   1      29.280  -9.977  10.253  0.00  0.00     0.217 HD
ENDBRANCH  25  30
ENDBRANCH  21  22
ENDBRANCH   1  20
TORSDOF 8
ENDMDL
MODEL 5
REMARK VINA RESULT:    -7.883      7.411      9.811
REMARK INTER + INTRA:         -12.436
REMARK INTER:                 -10.270
REMARK INTRA:                  -2.166
REMARK CONF_INDEPENDENT:        2.386
REMARK UNBOUND:                -2.166
REMARK  8 active torsions:
REMARK  status: ('A' for Active; 'I' for Inactive)
REMARK    1  A    between atoms: O_2  and  C_3 
REMARK    2  A    between atoms: C_5  and  C_6 
REMARK    3  A    between atoms: N_7  and  N_8 
REMARK       I    between atoms: N_8  and  C_9 
REMARK    4  A    between atoms: C_9  and  C_11 
REMARK    5  A    between atoms: C_11  and  N_12 
REMARK    6  A    between atoms: N_12  and  S_14 
REMARK    7  A    between atoms: S_14  and  C_17 
REMARK    8  A    between atoms: C_28  and  O_29 
ROOT
ATOM      1  N   UNL d   1      24.080 -16.551  -1.608  0.00  0.00    -0.246 N 
ATOM      2  C   UNL d   1      25.355 -16.890  -1.136  0.00  0.00     0.251 C 
ATOM      3  O   UNL d   1      25.519 -17.604  -0.143  0.00  0.00    -0.270 OA
ATOM      4  H   UNL d   1      23.941 -15.919  -2.389  0.00  0.00     0.192 HD
ENDROOT
BRANCH   2   5
ATOM      5  C   UNL d   1      26.541 -16.336  -1.955  0.00  0.00     0.211 C 
BRANCH   5   6
ATOM      6  N   UNL d   1      26.336 -14.892  -2.343  0.00  0.00    -0.202 NA
ATOM      7  C   UNL d   1      27.605 -14.145  -2.151  0.00  0.00     0.130 C 
BRANCH   6   8
ATOM      8  S   UNL d   1      25.678 -14.670  -3.892  0.00  0.00     0.244 S 
ATOM      9  O   UNL d   1      25.838 -15.949  -4.545  0.00  0.00    -0.206 OA
ATOM     10  O   UNL d   1      24.356 -14.080  -3.736  0.00  0.00    -0.206 OA
BRANCH   8  11
ATOM     11  C   UNL d   1      26.680 -13.468  -4.807  0.00  0.00     0.086 A 
ATOM     12  C   UNL d   1      26.429 -12.086  -4.538  0.00  0.00    -0.038 A 
ATOM     13  C   UNL d   1      25.429 -11.603  -3.509  0.00  0.00     0.050 C 
ATOM     14  C   UNL d   1      27.143 -11.094  -5.257  0.00  0.00     0.015 A 
ATOM     15  C   UNL d   1      28.072 -11.447  -6.239  0.00  0.00    -0.061 A 
ATOM     16  C   UNL d   1      28.873 -10.455  -7.031  0.00  0.00     0.048 C 
ATOM     17  C   UNL d   1      28.297 -12.797  -6.489  0.00  0.00     0.015 A 
ATOM     18  C   UNL d   1      27.663 -13.822  -5.766  0.00  0.00    -0.038 A 
ATOM     19  C   UNL d   1      28.144 -15.199  -6.129  0.00  0.00     0.050 C 
ENDBRANCH   8  11
ENDBRANCH   6   8
ENDBRANCH   5   6
ENDBRANCH   2   5
BRANCH   1  20
ATOM     20  N   UNL d   1      22.995 -17.075  -0.942  0.00  0.00    -0.184 NA
ATOM     21  C   UNL d   1      22.568 -18.264  -1.240  0.00  0.00     0.150 C 
BRANCH  21  22
ATOM     22  C   UNL d   1      21.386 -18.855  -0.533  0.00  0.00    -0.014 A 
ATOM     23  C   UNL d   1      21.350 -18.950   0.866  0.00  0.00     0.052 A 
ATOM     24  C   UNL d   1      20.235 -19.514   1.527  0.00  0.00     0.102 A 
ATOM     25  C   UNL d   1      19.146 -19.965   0.766  0.00  0.00     0.099 A 
ATOM     26  C   UNL d   1      19.179 -19.873  -0.625  0.00  0.00     0.040 A 
ATOM     27  C   UNL d   1      20.294 -19.325  -1.270  0.00  0.00     0.016 A 
BRANCH  24  28
ATOM     28  O   UNL d   1      20.354 -19.554   2.896  0.00  0.00    -0.353 OA
ATOM     29  C   UNL d   1      19.905 -20.737   3.556  0.00  0.00     0.210 C 
ENDBRANCH  24  28
BRANCH  25  30
ATOM     30  O   UNL d   1      18.034 -20.499   1.358  0.00  0.00    -0.358 OA
ATOM     31  H   UNL d   1      18.039 -20.342   2.315  0.00  0.00     0.217 HD
ENDBRANCH  25  30
ENDBRANCH  21  22
ENDBRANCH   1  20
TORSDOF 8
ENDMDL
MODEL 6
REMARK VINA RESULT:    -7.154      7.435     11.603
REMARK INTER + INTRA:         -12.087
REMARK INTER:                  -9.541
REMARK INTRA:                  -2.546
REMARK CONF_INDEPENDENT:        2.386
REMARK UNBOUND:                -2.546
REMARK  8 active torsions:
REMARK  status: ('A' for Active; 'I' for Inactive)
REMARK    1  A    between atoms: O_2  and  C_3 
REMARK    2  A    between atoms: C_5  and  C_6 
REMARK    3  A    between atoms: N_7  and  N_8 
REMARK       I    between atoms: N_8  and  C_9 
REMARK    4  A    between atoms: C_9  and  C_11 
REMARK    5  A    between atoms: C_11  and  N_12 
REMARK    6  A    between atoms: N_12  and  S_14 
REMARK    7  A    between atoms: S_14  and  C_17 
REMARK    8  A    between atoms: C_28  and  O_29 
ROOT
ATOM      1  N   UNL d   1      27.633 -14.668  -5.722  0.00  0.00    -0.246 N 
ATOM      2  C   UNL d   1      27.508 -13.274  -5.775  0.00  0.00     0.251 C 
ATOM      3  O   UNL d   1      28.212 -12.579  -6.512  0.00  0.00    -0.270 OA
ATOM      4  H   UNL d   1      27.097 -15.238  -5.077  0.00  0.00     0.192 HD
ENDROOT
BRANCH   2   5
ATOM      5  C   UNL d   1      26.411 -12.666  -4.873  0.00  0.00     0.211 C 
BRANCH   5   6
ATOM      6  N   UNL d   1      26.301 -13.387  -3.551  0.00  0.00    -0.202 NA
ATOM      7  C   UNL d   1      26.021 -12.403  -2.476  0.00  0.00     0.130 C 
BRANCH   6   8
ATOM      8  S   UNL d   1      25.204 -14.683  -3.551  0.00  0.00     0.244 S 
ATOM      9  O   UNL d   1      23.921 -14.077  -3.273  0.00  0.00    -0.206 OA
ATOM     10  O   UNL d   1      25.412 -15.446  -4.772  0.00  0.00    -0.206 OA
BRANCH   8  11
ATOM     11  C   UNL d   1      25.584 -15.794  -2.170  0.00  0.00     0.086 A 
ATOM     12  C   UNL d   1      26.960 -16.136  -1.982  0.00  0.00    -0.038 A 
ATOM     13  C   UNL d   1      28.084 -15.579  -2.830  0.00  0.00     0.050 C 
ATOM     14  C   UNL d   1      27.320 -17.041  -0.952  0.00  0.00     0.015 A 
ATOM     15  C   UNL d   1      26.349 -17.620  -0.132  0.00  0.00    -0.061 A 
ATOM     16  C   UNL d   1      26.654 -18.576   0.985  0.00  0.00     0.048 C 
ATOM     17  C   UNL d   1      25.015 -17.278  -0.335  0.00  0.00     0.015 A 
ATOM     18  C   UNL d   1      24.607 -16.342  -1.300  0.00  0.00    -0.038 A 
ATOM     19  C   UNL d   1      23.134 -16.044  -1.264  0.00  0.00     0.050 C 
ENDBRANCH   8  11
ENDBRANCH   6   8
ENDBRANCH   5   6
ENDBRANCH   2   5
BRANCH   1  20
ATOM     20  N   UNL d   1      28.559 -15.256  -6.556  0.00  0.00    -0.184 NA
ATOM     21  C   UNL d   1      29.772 -15.451  -6.136  0.00  0.00     0.150 C 
BRANCH  21  22
ATOM     22  C   UNL d   1      30.799 -16.084  -7.024  0.00  0.00    -0.014 A 
ATOM     23  C   UNL d   1      30.810 -17.468  -7.250  0.00  0.00     0.052 A 
ATOM     24  C   UNL d   1      31.785 -18.060  -8.084  0.00  0.00     0.102 A 
ATOM     25  C   UNL d   1      32.741 -17.242  -8.706  0.00  0.00     0.099 A 
ATOM     26  C   UNL d   1      32.734 -15.866  -8.483  0.00  0.00     0.040 A 
ATOM     27  C   UNL d   1      31.771 -15.291  -7.644  0.00  0.00     0.016 A 
BRANCH  24  28
ATOM     28  O   UNL d   1      31.676 -19.427  -8.194  0.00  0.00    -0.353 OA
ATOM     29  C   UNL d   1      30.725 -20.076  -7.351  0.00  0.00     0.210 C 
ENDBRANCH  24  28
BRANCH  25  30
ATOM     30  O   UNL d   1      33.692 -17.763  -9.540  0.00  0.00    -0.358 OA
ATOM     31  H   UNL d   1      33.679 -18.733  -9.521  0.00  0.00     0.217 HD
ENDBRANCH  25  30
ENDBRANCH  21  22
ENDBRANCH   1  20
TORSDOF 8
ENDMDL
MODEL 7
REMARK VINA RESULT:    -7.035      5.333      9.291
REMARK INTER + INTRA:         -11.786
REMARK INTER:                  -9.421
REMARK INTRA:                  -2.365
REMARK CONF_INDEPENDENT:        2.386
REMARK UNBOUND:                -2.365
REMARK  8 active torsions:
REMARK  status: ('A' for Active; 'I' for Inactive)
REMARK    1  A    between atoms: O_2  and  C_3 
REMARK    2  A    between atoms: C_5  and  C_6 
REMARK    3  A    between atoms: N_7  and  N_8 
REMARK       I    between atoms: N_8  and  C_9 
REMARK    4  A    between atoms: C_9  and  C_11 
REMARK    5  A    between atoms: C_11  and  N_12 
REMARK    6  A    between atoms: N_12  and  S_14 
REMARK    7  A    between atoms: S_14  and  C_17 
REMARK    8  A    between atoms: C_28  and  O_29 
ROOT
ATOM      1  N   UNL d   1      25.140 -16.410  -0.184  0.00  0.00    -0.246 N 
ATOM      2  C   UNL d   1      26.228 -17.279  -0.037  0.00  0.00     0.251 C 
ATOM      3  O   UNL d   1      26.104 -18.505  -0.104  0.00  0.00    -0.270 OA
ATOM      4  H   UNL d   1      25.228 -15.406  -0.073  0.00  0.00     0.192 HD
ENDROOT
BRANCH   2   5
ATOM      5  C   UNL d   1      27.599 -16.603   0.186  0.00  0.00     0.211 C 
BRANCH   5   6
ATOM      6  N   UNL d   1      27.457 -15.161   0.610  0.00  0.00    -0.202 NA
ATOM      7  C   UNL d   1      28.457 -14.858   1.665  0.00  0.00     0.130 C 
BRANCH   6   8
ATOM      8  S   UNL d   1      27.503 -14.048  -0.670  0.00  0.00     0.244 S 
ATOM      9  O   UNL d   1      26.118 -13.716  -0.918  0.00  0.00    -0.206 OA
ATOM     10  O   UNL d   1      28.461 -13.008  -0.325  0.00  0.00    -0.206 OA
BRANCH   8  11
ATOM     11  C   UNL d   1      28.135 -14.866  -2.159  0.00  0.00     0.086 A 
ATOM     12  C   UNL d   1      29.469 -15.377  -2.093  0.00  0.00    -0.038 A 
ATOM     13  C   UNL d   1      30.329 -15.312  -0.848  0.00  0.00     0.050 C 
ATOM     14  C   UNL d   1      30.042 -15.983  -3.239  0.00  0.00     0.015 A 
ATOM     15  C   UNL d   1      29.330 -16.070  -4.438  0.00  0.00    -0.061 A 
ATOM     16  C   UNL d   1      29.865 -16.707  -5.688  0.00  0.00     0.048 C 
ATOM     17  C   UNL d   1      28.035 -15.562  -4.483  0.00  0.00     0.015 A 
ATOM     18  C   UNL d   1      27.397 -15.005  -3.362  0.00  0.00    -0.038 A 
ATOM     19  C   UNL d   1      25.963 -14.627  -3.613  0.00  0.00     0.050 C 
ENDBRANCH   8  11
ENDBRANCH   6   8
ENDBRANCH   5   6
ENDBRANCH   2   5
BRANCH   1  20
ATOM     20  N   UNL d   1      23.908 -16.970  -0.444  0.00  0.00    -0.184 NA
ATOM     21  C   UNL d   1      23.459 -17.919   0.318  0.00  0.00     0.150 C 
BRANCH  21  22
ATOM     22  C   UNL d   1      22.125 -18.549   0.054  0.00  0.00    -0.014 A 
ATOM     23  C   UNL d   1      21.290 -18.949   1.107  0.00  0.00     0.052 A 
ATOM     24  C   UNL d   1      20.035 -19.548   0.852  0.00  0.00     0.102 A 
ATOM     25  C   UNL d   1      19.619 -19.723  -0.477  0.00  0.00     0.099 A 
ATOM     26  C   UNL d   1      20.447 -19.327  -1.527  0.00  0.00     0.040 A 
ATOM     27  C   UNL d   1      21.694 -18.747  -1.262  0.00  0.00     0.016 A 
BRANCH  24  28
ATOM     28  O   UNL d   1      19.340 -19.902   1.984  0.00  0.00    -0.353 OA
ATOM     29  C   UNL d   1      18.486 -21.042   1.896  0.00  0.00     0.210 C 
ENDBRANCH  24  28
BRANCH  25  30
ATOM     30  O   UNL d   1      18.405 -20.277  -0.778  0.00  0.00    -0.358 OA
ATOM     31  H   UNL d   1      17.849 -19.653  -1.270  0.00  0.00     0.217 HD
ENDBRANCH  25  30
ENDBRANCH  21  22
ENDBRANCH   1  20
TORSDOF 8
ENDMDL
MODEL 8
REMARK VINA RESULT:    -6.659      7.317     10.425
REMARK INTER + INTRA:         -11.653
REMARK INTER:                  -9.045
REMARK INTRA:                  -2.608
REMARK CONF_INDEPENDENT:        2.386
REMARK UNBOUND:                -2.608
REMARK  8 active torsions:
REMARK  status: ('A' for Active; 'I' for Inactive)
REMARK    1  A    between atoms: O_2  and  C_3 
REMARK    2  A    between atoms: C_5  and  C_6 
REMARK    3  A    between atoms: N_7  and  N_8 
REMARK       I    between atoms: N_8  and  C_9 
REMARK    4  A    between atoms: C_9  and  C_11 
REMARK    5  A    between atoms: C_11  and  N_12 
REMARK    6  A    between atoms: N_12  and  S_14 
REMARK    7  A    between atoms: S_14  and  C_17 
REMARK    8  A    between atoms: C_28  and  O_29 
ROOT
ATOM      1  N   UNL d   1      25.662 -13.572  -4.686  0.00  0.00    -0.246 N 
ATOM      2  C   UNL d   1      26.781 -14.045  -5.386  0.00  0.00     0.251 C 
ATOM      3  O   UNL d   1      27.192 -15.201  -5.261  0.00  0.00    -0.270 OA
ATOM      4  H   UNL d   1      25.355 -12.608  -4.741  0.00  0.00     0.192 HD
ENDROOT
BRANCH   2   5
ATOM      5  C   UNL d   1      27.447 -13.033  -6.344  0.00  0.00     0.211 C 
BRANCH   5   6
ATOM      6  N   UNL d   1      27.342 -11.616  -5.834  0.00  0.00    -0.202 NA
ATOM      7  C   UNL d   1      28.676 -10.968  -5.905  0.00  0.00     0.130 C 
BRANCH   6   8
ATOM      8  S   UNL d   1      26.128 -10.693  -6.578  0.00  0.00     0.244 S 
ATOM      9  O   UNL d   1      26.689 -10.310  -7.855  0.00  0.00    -0.206 OA
ATOM     10  O   UNL d   1      24.887 -11.450  -6.513  0.00  0.00    -0.206 OA
BRANCH   8  11
ATOM     11  C   UNL d   1      25.861  -9.171  -5.630  0.00  0.00     0.086 A 
ATOM     12  C   UNL d   1      25.714  -9.314  -4.215  0.00  0.00    -0.038 A 
ATOM     13  C   UNL d   1      25.823 -10.640  -3.493  0.00  0.00     0.050 C 
ATOM     14  C   UNL d   1      25.452  -8.169  -3.421  0.00  0.00     0.015 A 
ATOM     15  C   UNL d   1      25.315  -6.907  -4.003  0.00  0.00    -0.061 A 
ATOM     16  C   UNL d   1      25.050  -5.649  -3.227  0.00  0.00     0.048 C 
ATOM     17  C   UNL d   1      25.457  -6.789  -5.382  0.00  0.00     0.015 A 
ATOM     18  C   UNL d   1      25.776  -7.879  -6.210  0.00  0.00    -0.038 A 
ATOM     19  C   UNL d   1      25.993  -7.498  -7.648  0.00  0.00     0.050 C 
ENDBRANCH   8  11
ENDBRANCH   6   8
ENDBRANCH   5   6
ENDBRANCH   2   5
BRANCH   1  20
ATOM     20  N   UNL d   1      25.002 -14.461  -3.866  0.00  0.00    -0.184 NA
ATOM     21  C   UNL d   1      25.607 -14.950  -2.828  0.00  0.00     0.150 C 
BRANCH  21  22
ATOM     22  C   UNL d   1      24.914 -15.922  -1.923  0.00  0.00    -0.014 A 
ATOM     23  C   UNL d   1      25.608 -16.990  -1.335  0.00  0.00     0.052 A 
ATOM     24  C   UNL d   1      24.946 -17.907  -0.486  0.00  0.00     0.102 A 
ATOM     25  C   UNL d   1      23.580 -17.728  -0.219  0.00  0.00     0.099 A 
ATOM     26  C   UNL d   1      22.887 -16.668  -0.802  0.00  0.00     0.040 A 
ATOM     27  C   UNL d   1      23.549 -15.773  -1.652  0.00  0.00     0.016 A 
BRANCH  24  28
ATOM     28  O   UNL d   1      25.754 -18.908  -0.002  0.00  0.00    -0.353 OA
ATOM     29  C   UNL d   1      27.028 -18.526   0.517  0.00  0.00     0.210 C 
ENDBRANCH  24  28
BRANCH  25  30
ATOM     30  O   UNL d   1      22.899 -18.574   0.613  0.00  0.00    -0.358 OA
ATOM     31  H   UNL d   1      23.490 -19.248   0.984  0.00  0.00     0.217 HD
ENDBRANCH  25  30
ENDBRANCH  21  22
ENDBRANCH   1  20
TORSDOF 8
ENDMDL
MODEL 9
REMARK VINA RESULT:    -6.168      3.606      9.734
REMARK INTER + INTRA:         -11.656
REMARK INTER:                  -8.555
REMARK INTRA:                  -3.101
REMARK CONF_INDEPENDENT:        2.386
REMARK UNBOUND:                -3.101
REMARK  8 active torsions:
REMARK  status: ('A' for Active; 'I' for Inactive)
REMARK    1  A    between atoms: O_2  and  C_3 
REMARK    2  A    between atoms: C_5  and  C_6 
REMARK    3  A    between atoms: N_7  and  N_8 
REMARK       I    between atoms: N_8  and  C_9 
REMARK    4  A    between atoms: C_9  and  C_11 
REMARK    5  A    between atoms: C_11  and  N_12 
REMARK    6  A    between atoms: N_12  and  S_14 
REMARK    7  A    between atoms: S_14  and  C_17 
REMARK    8  A    between atoms: C_28  and  O_29 
ROOT
ATOM      1  N   UNL d   1      29.547 -14.623   1.523  0.00  0.00    -0.246 N 
ATOM      2  C   UNL d   1      30.295 -13.570   2.066  0.00  0.00     0.251 C 
ATOM      3  O   UNL d   1      30.754 -12.663   1.368  0.00  0.00    -0.270 OA
ATOM      4  H   UNL d   1      29.217 -15.400   2.084  0.00  0.00     0.192 HD
ENDROOT
BRANCH   2   5
ATOM      5  C   UNL d   1      30.484 -13.604   3.598  0.00  0.00     0.211 C 
BRANCH   5   6
ATOM      6  N   UNL d   1      29.542 -14.579   4.264  0.00  0.00    -0.202 NA
ATOM      7  C   UNL d   1      29.991 -14.824   5.657  0.00  0.00     0.130 C 
BRANCH   6   8
ATOM      8  S   UNL d   1      27.905 -14.141   4.175  0.00  0.00     0.244 S 
ATOM      9  O   UNL d   1      27.405 -14.824   3.002  0.00  0.00    -0.206 OA
ATOM     10  O   UNL d   1      27.306 -14.379   5.480  0.00  0.00    -0.206 OA
BRANCH   8  11
ATOM     11  C   UNL d   1      27.773 -12.361   3.858  0.00  0.00     0.086 A 
ATOM     12  C   UNL d   1      28.157 -11.489   4.924  0.00  0.00    -0.038 A 
ATOM     13  C   UNL d   1      28.706 -11.978   6.248  0.00  0.00     0.050 C 
ATOM     14  C   UNL d   1      28.030 -10.087   4.760  0.00  0.00     0.015 A 
ATOM     15  C   UNL d   1      27.515  -9.545   3.579  0.00  0.00    -0.061 A 
ATOM     16  C   UNL d   1      27.363  -8.073   3.328  0.00  0.00     0.048 C 
ATOM     17  C   UNL d   1      27.142 -10.410   2.556  0.00  0.00     0.015 A 
ATOM     18  C   UNL d   1      27.302 -11.804   2.641  0.00  0.00    -0.038 A 
ATOM     19  C   UNL d   1      26.939 -12.529   1.375  0.00  0.00     0.050 C 
ENDBRANCH   8  11
ENDBRANCH   6   8
ENDBRANCH   5   6
ENDBRANCH   2   5
BRANCH   1  20
ATOM     20  N   UNL d   1      29.304 -14.598   0.167  0.00  0.00    -0.184 NA
ATOM     21  C   UNL d   1      28.278 -15.230  -0.315  0.00  0.00     0.150 C 
BRANCH  21  22
ATOM     22  C   UNL d   1      27.994 -15.223  -1.786  0.00  0.00    -0.014 A 
ATOM     23  C   UNL d   1      26.706 -14.961  -2.275  0.00  0.00     0.052 A 
ATOM     24  C   UNL d   1      26.443 -14.961  -3.664  0.00  0.00     0.102 A 
ATOM     25  C   UNL d   1      27.495 -15.210  -4.559  0.00  0.00     0.099 A 
ATOM     26  C   UNL d   1      28.776 -15.472  -4.076  0.00  0.00     0.040 A 
ATOM     27  C   UNL d   1      29.023 -15.482  -2.698  0.00  0.00     0.016 A 
BRANCH  24  28
ATOM     28  O   UNL d   1      25.131 -14.706  -3.988  0.00  0.00    -0.353 OA
ATOM     29  C   UNL d   1      24.780 -13.351  -4.269  0.00  0.00     0.210 C 
ENDBRANCH  24  28
BRANCH  25  30
ATOM     30  O   UNL d   1      27.297 -15.200  -5.913  0.00  0.00    -0.358 OA
ATOM     31  H   UNL d   1      26.351 -15.195  -6.127  0.00  0.00     0.217 HD
ENDBRANCH  25  30
ENDBRANCH  21  22
ENDBRANCH   1  20
TORSDOF 8
ENDMDL
