MODEL 1
REMARK VINA RESULT:   -32.968      0.000      0.000
REMARK INTER + INTRA:         -35.320
REMARK INTER:                 -34.460
REMARK INTRA:                  -0.861
REMARK CONF_INDEPENDENT:        1.492
REMARK UNBOUND:                -0.861
REMARK  5 active torsions:
REMARK  status: ('A' for Active; 'I' for Inactive)
REMARK       I    between atoms: C_2  and  N_3 
REMARK    1  A    between atoms: C_2  and  C_16 
REMARK    2  A    between atoms: N_3  and  C_4 
REMARK    3  A    between atoms: C_4  and  C_5 
REMARK    4  A    between atoms: C_5  and  C_6 
REMARK    5  A    between atoms: N_19  and  C_20 
ROOT
ATOM      1  O   UNL d   1      25.652 -14.539   0.387  0.00  0.00    -0.273 OA
ATOM      2  C   UNL d   1      26.771 -15.007   0.298  0.00  0.00     0.221 C 
ATOM      3  N   UNL d   1      27.781 -14.648   1.171  0.00  0.00    -0.360 N 
ATOM      4  H   UNL d   1      28.653 -15.143   1.177  0.00  0.00     0.162 HD
ENDROOT
BRANCH   2   5
ATOM      5  C   UNL d   1      27.190 -16.012  -0.798  0.00  0.00     0.081 C 
ATOM      6  C   UNL d   1      26.173 -16.138  -1.941  0.00  0.00     0.044 C 
ATOM      7  C   UNL d   1      24.810 -16.809  -1.477  0.00  0.00     0.276 C 
ATOM      8  N   UNL d   1      24.943 -18.163  -0.926  0.00  0.00     0.117 N 
ATOM      9  C   UNL d   1      26.050 -18.055   0.136  0.00  0.00     0.276 C 
ATOM     10  C   UNL d   1      27.391 -17.416  -0.255  0.00  0.00     0.044 C 
BRANCH   8  11
ATOM     11  C   UNL d   1      23.686 -18.783  -0.212  0.00  0.00     0.370 C 
ATOM     12  N   UNL d   1      22.733 -18.514   0.991  0.00  0.00    -0.252 NA
ATOM     13  C   UNL d   1      21.405 -19.062   0.679  0.00  0.00     0.046 C 
ATOM     14  H   UNL d   1      23.035 -18.845   1.905  0.00  0.00     0.130 HD
ATOM     15  C   UNL d   1      20.302 -19.327   1.507  0.00  0.00     0.028 C 
ATOM     16  C   UNL d   1      21.096 -19.109  -0.670  0.00  0.00     0.117 C 
ATOM     17  C   UNL d   1      18.999 -19.430   0.931  0.00  0.00     0.021 C 
ATOM     18  C   UNL d   1      18.858 -19.433  -0.448  0.00  0.00     0.118 C 
ATOM     19  N   UNL d   1      19.905 -19.325  -1.268  0.00  0.00    -0.252 NA
ATOM     20  S   UNL d   1      22.480 -18.829  -1.654  0.00  0.00    -0.057 SA
ENDBRANCH   8  11
ENDBRANCH   2   5
BRANCH   3  21
ATOM     21  C   UNL d   1      27.652 -13.590   2.122  0.00  0.00     0.127 C 
BRANCH  21  22
ATOM     22  C   UNL d   1      28.951 -13.430   2.919  0.00  0.00     0.056 C 
BRANCH  22  23
ATOM     23  C   UNL d   1      28.764 -13.805   4.344  0.00  0.00    -0.048 A 
ATOM     24  C   UNL d   1      28.836 -12.997   5.407  0.00  0.00    -0.004 A 
ATOM     25  C   UNL d   1      29.097 -11.608   5.577  0.00  0.00     0.037 A 
ATOM     26  C   UNL d   1      28.565 -13.885   6.556  0.00  0.00     0.038 A 
ATOM     27  C   UNL d   1      29.089 -11.098   6.818  0.00  0.00     0.035 A 
ATOM     28 CL   UNL d   1      29.387  -9.419   7.056  0.00  0.00    -0.084 Cl
ATOM     29  C   UNL d   1      28.843 -11.943   7.978  0.00  0.00     0.026 A 
ATOM     30  C   UNL d   1      28.594 -13.265   7.901  0.00  0.00     0.031 A 
ATOM     31  N   UNL d   1      28.353 -15.081   6.203  0.00  0.00    -0.385 N 
ATOM     32  C   UNL d   1      28.433 -15.213   4.734  0.00  0.00     0.155 A 
ATOM     33  H   UNL d   1      28.160 -15.848   6.856  0.00  0.00     0.160 HD
ENDBRANCH  22  23
ENDBRANCH  21  22
ENDBRANCH   3  21
TORSDOF 5
ENDMDL
MODEL 2
REMARK VINA RESULT:   -32.796      1.487      1.764
REMARK INTER + INTRA:         -35.190
REMARK INTER:                 -34.288
REMARK INTRA:                  -0.903
REMARK CONF_INDEPENDENT:        1.492
REMARK UNBOUND:                -0.903
REMARK  5 active torsions:
REMARK  status: ('A' for Active; 'I' for Inactive)
REMARK       I    between atoms: C_2  and  N_3 
REMARK    1  A    between atoms: C_2  and  C_16 
REMARK    2  A    between atoms: N_3  and  C_4 
REMARK    3  A    between atoms: C_4  and  C_5 
REMARK    4  A    between atoms: C_5  and  C_6 
REMARK    5  A    between atoms: N_19  and  C_20 
ROOT
ATOM      1  O   UNL d   1      26.099 -14.354   0.920  0.00  0.00    -0.273 OA
ATOM      2  C   UNL d   1      26.969 -15.185   0.749  0.00  0.00     0.221 C 
ATOM      3  N   UNL d   1      27.845 -15.541   1.757  0.00  0.00    -0.360 N 
ATOM      4  H   UNL d   1      28.461 -16.324   1.648  0.00  0.00     0.162 HD
ENDROOT
BRANCH   2   5
ATOM      5  C   UNL d   1      27.211 -15.901  -0.599  0.00  0.00     0.081 C 
ATOM      6  C   UNL d   1      26.066 -15.722  -1.606  0.00  0.00     0.044 C 
ATOM      7  C   UNL d   1      24.732 -16.456  -1.154  0.00  0.00     0.276 C 
ATOM      8  N   UNL d   1      24.858 -17.907  -0.965  0.00  0.00     0.117 N 
ATOM      9  C   UNL d   1      26.081 -18.086  -0.050  0.00  0.00     0.276 C 
ATOM     10  C   UNL d   1      27.401 -17.399  -0.437  0.00  0.00     0.044 C 
BRANCH   8  11
ATOM     11  C   UNL d   1      23.659 -18.655  -0.272  0.00  0.00     0.370 C 
ATOM     12  N   UNL d   1      22.731 -18.541   0.974  0.00  0.00    -0.252 NA
ATOM     13  C   UNL d   1      21.426 -19.137   0.652  0.00  0.00     0.046 C 
ATOM     14  H   UNL d   1      23.078 -18.928   1.849  0.00  0.00     0.130 HD
ATOM     15  C   UNL d   1      20.366 -19.533   1.483  0.00  0.00     0.028 C 
ATOM     16  C   UNL d   1      21.079 -19.091  -0.688  0.00  0.00     0.117 C 
ATOM     17  C   UNL d   1      19.053 -19.663   0.936  0.00  0.00     0.021 C 
ATOM     18  C   UNL d   1      18.870 -19.560  -0.435  0.00  0.00     0.118 C 
ATOM     19  N   UNL d   1      19.883 -19.325  -1.270  0.00  0.00    -0.252 NA
ATOM     20  S   UNL d   1      22.414 -18.652  -1.680  0.00  0.00    -0.057 SA
ENDBRANCH   8  11
ENDBRANCH   2   5
BRANCH   3  21
ATOM     21  C   UNL d   1      27.916 -14.854   3.008  0.00  0.00     0.127 C 
BRANCH  21  22
ATOM     22  C   UNL d   1      28.723 -13.560   2.859  0.00  0.00     0.056 C 
BRANCH  22  23
ATOM     23  C   UNL d   1      28.357 -12.568   3.902  0.00  0.00    -0.048 A 
ATOM     24  C   UNL d   1      28.703 -12.591   5.193  0.00  0.00    -0.004 A 
ATOM     25  C   UNL d   1      29.473 -13.480   5.995  0.00  0.00     0.037 A 
ATOM     26  C   UNL d   1      28.077 -11.377   5.758  0.00  0.00     0.038 A 
ATOM     27  C   UNL d   1      29.636 -13.197   7.296  0.00  0.00     0.035 A 
ATOM     28 CL   UNL d   1      30.575 -14.244   8.290  0.00  0.00    -0.084 Cl
ATOM     29  C   UNL d   1      29.022 -12.019   7.895  0.00  0.00     0.026 A 
ATOM     30  C   UNL d   1      28.275 -11.134   7.205  0.00  0.00     0.031 A 
ATOM     31  N   UNL d   1      27.438 -10.715   4.890  0.00  0.00    -0.385 N 
ATOM     32  C   UNL d   1      27.529 -11.365   3.567  0.00  0.00     0.155 A 
ATOM     33  H   UNL d   1      26.925  -9.850   5.090  0.00  0.00     0.160 HD
ENDBRANCH  22  23
ENDBRANCH  21  22
ENDBRANCH   3  21
TORSDOF 5
ENDMDL
MODEL 3
REMARK VINA RESULT:   -32.339      2.655      3.465
REMARK INTER + INTRA:         -34.926
REMARK INTER:                 -33.831
REMARK INTRA:                  -1.096
REMARK CONF_INDEPENDENT:        1.492
REMARK UNBOUND:                -1.096
REMARK  5 active torsions:
REMARK  status: ('A' for Active; 'I' for Inactive)
REMARK       I    between atoms: C_2  and  N_3 
REMARK    1  A    between atoms: C_2  and  C_16 
REMARK    2  A    between atoms: N_3  and  C_4 
REMARK    3  A    between atoms: C_4  and  C_5 
REMARK    4  A    between atoms: C_5  and  C_6 
REMARK    5  A    between atoms: N_19  and  C_20 
ROOT
ATOM      1  O   UNL d   1      26.095 -14.243   0.495  0.00  0.00    -0.273 OA
ATOM      2  C   UNL d   1      26.957 -15.099   0.453  0.00  0.00     0.221 C 
ATOM      3  N   UNL d   1      27.783 -15.354   1.531  0.00  0.00    -0.360 N 
ATOM      4  H   UNL d   1      28.390 -16.152   1.534  0.00  0.00     0.162 HD
ENDROOT
BRANCH   2   5
ATOM      5  C   UNL d   1      27.242 -15.961  -0.798  0.00  0.00     0.081 C 
ATOM      6  C   UNL d   1      26.131 -15.898  -1.856  0.00  0.00     0.044 C 
ATOM      7  C   UNL d   1      24.782 -16.580  -1.369  0.00  0.00     0.276 C 
ATOM      8  N   UNL d   1      24.899 -18.000  -1.015  0.00  0.00     0.117 N 
ATOM      9  C   UNL d   1      26.092 -18.073  -0.046  0.00  0.00     0.276 C 
ATOM     10  C   UNL d   1      27.424 -17.431  -0.464  0.00  0.00     0.044 C 
BRANCH   8  11
ATOM     11  C   UNL d   1      23.677 -18.669  -0.282  0.00  0.00     0.370 C 
ATOM     12  N   UNL d   1      22.742 -18.445   0.942  0.00  0.00    -0.252 NA
ATOM     13  C   UNL d   1      21.426 -19.032   0.650  0.00  0.00     0.046 C 
ATOM     14  H   UNL d   1      23.073 -18.776   1.846  0.00  0.00     0.130 HD
ATOM     15  C   UNL d   1      20.349 -19.343   1.497  0.00  0.00     0.028 C 
ATOM     16  C   UNL d   1      21.091 -19.073  -0.693  0.00  0.00     0.117 C 
ATOM     17  C   UNL d   1      19.039 -19.481   0.947  0.00  0.00     0.021 C 
ATOM     18  C   UNL d   1      18.869 -19.472  -0.429  0.00  0.00     0.118 C 
ATOM     19  N   UNL d   1      19.895 -19.320  -1.269  0.00  0.00    -0.252 NA
ATOM     20  S   UNL d   1      22.444 -18.737  -1.700  0.00  0.00    -0.057 SA
ENDBRANCH   8  11
ENDBRANCH   2   5
BRANCH   3  21
ATOM     21  C   UNL d   1      27.814 -14.536   2.702  0.00  0.00     0.127 C 
BRANCH  21  22
ATOM     22  C   UNL d   1      28.685 -13.298   2.463  0.00  0.00     0.056 C 
BRANCH  22  23
ATOM     23  C   UNL d   1      27.999 -12.058   2.909  0.00  0.00    -0.048 A 
ATOM     24  C   UNL d   1      27.561 -11.057   2.139  0.00  0.00    -0.004 A 
ATOM     25  C   UNL d   1      27.580 -10.805   0.738  0.00  0.00     0.037 A 
ATOM     26  C   UNL d   1      26.964 -10.100   3.094  0.00  0.00     0.038 A 
ATOM     27  C   UNL d   1      27.032  -9.670   0.280  0.00  0.00     0.035 A 
ATOM     28 CL   UNL d   1      27.025  -9.343  -1.411  0.00  0.00    -0.084 Cl
ATOM     29  C   UNL d   1      26.448  -8.694   1.189  0.00  0.00     0.026 A 
ATOM     30  C   UNL d   1      26.397  -8.855   2.526  0.00  0.00     0.031 A 
ATOM     31  N   UNL d   1      27.040 -10.501   4.291  0.00  0.00    -0.385 N 
ATOM     32  C   UNL d   1      27.701 -11.820   4.358  0.00  0.00     0.155 A 
ATOM     33  H   UNL d   1      26.694  -9.971   5.098  0.00  0.00     0.160 HD
ENDBRANCH  22  23
ENDBRANCH  21  22
ENDBRANCH   3  21
TORSDOF 5
ENDMDL
MODEL 4
REMARK VINA RESULT:   -31.363      1.599      2.353
REMARK INTER + INTRA:         -33.808
REMARK INTER:                 -32.854
REMARK INTRA:                  -0.954
REMARK CONF_INDEPENDENT:        1.492
REMARK UNBOUND:                -0.954
REMARK  5 active torsions:
REMARK  status: ('A' for Active; 'I' for Inactive)
REMARK       I    between atoms: C_2  and  N_3 
REMARK    1  A    between atoms: C_2  and  C_16 
REMARK    2  A    between atoms: N_3  and  C_4 
REMARK    3  A    between atoms: C_4  and  C_5 
REMARK    4  A    between atoms: C_5  and  C_6 
REMARK    5  A    between atoms: N_19  and  C_20 
ROOT
ATOM      1  O   UNL d   1      26.058 -14.172   0.467  0.00  0.00    -0.273 OA
ATOM      2  C   UNL d   1      26.892 -15.057   0.465  0.00  0.00     0.221 C 
ATOM      3  N   UNL d   1      27.660 -15.335   1.580  0.00  0.00    -0.360 N 
ATOM      4  H   UNL d   1      28.239 -16.153   1.612  0.00  0.00     0.162 HD
ENDROOT
BRANCH   2   5
ATOM      5  C   UNL d   1      27.204 -15.931  -0.770  0.00  0.00     0.081 C 
ATOM      6  C   UNL d   1      26.107 -15.895  -1.843  0.00  0.00     0.044 C 
ATOM      7  C   UNL d   1      24.759 -16.586  -1.366  0.00  0.00     0.276 C 
ATOM      8  N   UNL d   1      24.887 -18.000  -0.991  0.00  0.00     0.117 N 
ATOM      9  C   UNL d   1      26.067 -18.046  -0.005  0.00  0.00     0.276 C 
ATOM     10  C   UNL d   1      27.398 -17.395  -0.413  0.00  0.00     0.044 C 
BRANCH   8  11
ATOM     11  C   UNL d   1      23.663 -18.673  -0.266  0.00  0.00     0.370 C 
ATOM     12  N   UNL d   1      22.722 -18.455   0.956  0.00  0.00    -0.252 NA
ATOM     13  C   UNL d   1      21.408 -19.041   0.656  0.00  0.00     0.046 C 
ATOM     14  H   UNL d   1      23.049 -18.789   1.860  0.00  0.00     0.130 HD
ATOM     15  C   UNL d   1      20.328 -19.357   1.498  0.00  0.00     0.028 C 
ATOM     16  C   UNL d   1      21.078 -19.078  -0.688  0.00  0.00     0.117 C 
ATOM     17  C   UNL d   1      19.020 -19.494   0.941  0.00  0.00     0.021 C 
ATOM     18  C   UNL d   1      18.856 -19.480  -0.435  0.00  0.00     0.118 C 
ATOM     19  N   UNL d   1      19.885 -19.324  -1.270  0.00  0.00    -0.252 NA
ATOM     20  S   UNL d   1      22.436 -18.737  -1.689  0.00  0.00    -0.057 SA
ENDBRANCH   8  11
ENDBRANCH   2   5
BRANCH   3  21
ATOM     21  C   UNL d   1      27.666 -14.514   2.749  0.00  0.00     0.127 C 
BRANCH  21  22
ATOM     22  C   UNL d   1      28.841 -13.532   2.703  0.00  0.00     0.056 C 
BRANCH  22  23
ATOM     23  C   UNL d   1      28.370 -12.123   2.721  0.00  0.00    -0.048 A 
ATOM     24  C   UNL d   1      28.646 -11.191   3.639  0.00  0.00    -0.004 A 
ATOM     25  C   UNL d   1      29.413 -11.182   4.839  0.00  0.00     0.037 A 
ATOM     26  C   UNL d   1      27.932  -9.989   3.162  0.00  0.00     0.038 A 
ATOM     27  C   UNL d   1      29.490 -10.045   5.545  0.00  0.00     0.035 A 
ATOM     28 CL   UNL d   1      30.422  -9.996   6.993  0.00  0.00    -0.084 Cl
ATOM     29  C   UNL d   1      28.789  -8.842   5.118  0.00  0.00     0.026 A 
ATOM     30  C   UNL d   1      28.039  -8.772   4.000  0.00  0.00     0.031 A 
ATOM     31  N   UNL d   1      27.311 -10.193   2.080  0.00  0.00    -0.385 N 
ATOM     32  C   UNL d   1      27.506 -11.584   1.622  0.00  0.00     0.155 A 
ATOM     33  H   UNL d   1      26.747  -9.485   1.598  0.00  0.00     0.160 HD
ENDBRANCH  22  23
ENDBRANCH  21  22
ENDBRANCH   3  21
TORSDOF 5
ENDMDL
MODEL 5
REMARK VINA RESULT:   -31.269      3.050      4.181
REMARK INTER + INTRA:         -34.117
REMARK INTER:                 -32.761
REMARK INTRA:                  -1.356
REMARK CONF_INDEPENDENT:        1.492
REMARK UNBOUND:                -1.356
REMARK  5 active torsions:
REMARK  status: ('A' for Active; 'I' for Inactive)
REMARK       I    between atoms: C_2  and  N_3 
REMARK    1  A    between atoms: C_2  and  C_16 
REMARK    2  A    between atoms: N_3  and  C_4 
REMARK    3  A    between atoms: C_4  and  C_5 
REMARK    4  A    between atoms: C_5  and  C_6 
REMARK    5  A    between atoms: N_19  and  C_20 
ROOT
ATOM      1  O   UNL d   1      25.887 -14.595   0.556  0.00  0.00    -0.273 OA
ATOM      2  C   UNL d   1      26.904 -15.261   0.523  0.00  0.00     0.221 C 
ATOM      3  N   UNL d   1      27.853 -15.191   1.525  0.00  0.00    -0.360 N 
ATOM      4  H   UNL d   1      28.612 -15.844   1.558  0.00  0.00     0.162 HD
ENDROOT
BRANCH   2   5
ATOM      5  C   UNL d   1      27.259 -16.219  -0.637  0.00  0.00     0.081 C 
ATOM      6  C   UNL d   1      26.222 -16.225  -1.770  0.00  0.00     0.044 C 
ATOM      7  C   UNL d   1      24.833 -16.853  -1.327  0.00  0.00     0.276 C 
ATOM      8  N   UNL d   1      24.903 -18.242  -0.859  0.00  0.00     0.117 N 
ATOM      9  C   UNL d   1      26.026 -18.254   0.192  0.00  0.00     0.276 C 
ATOM     10  C   UNL d   1      27.394 -17.661  -0.181  0.00  0.00     0.044 C 
BRANCH   8  11
ATOM     11  C   UNL d   1      23.624 -18.840  -0.164  0.00  0.00     0.370 C 
ATOM     12  N   UNL d   1      22.661 -18.557   1.028  0.00  0.00    -0.252 NA
ATOM     13  C   UNL d   1      21.327 -19.076   0.696  0.00  0.00     0.046 C 
ATOM     14  H   UNL d   1      22.944 -18.897   1.944  0.00  0.00     0.130 HD
ATOM     15  C   UNL d   1      20.208 -19.323   1.508  0.00  0.00     0.028 C 
ATOM     16  C   UNL d   1      21.034 -19.111  -0.657  0.00  0.00     0.117 C 
ATOM     17  C   UNL d   1      18.911 -19.397   0.916  0.00  0.00     0.021 C 
ATOM     18  C   UNL d   1      18.787 -19.391  -0.465  0.00  0.00     0.118 C 
ATOM     19  N   UNL d   1      19.847 -19.301  -1.271  0.00  0.00    -0.252 NA
ATOM     20  S   UNL d   1      22.436 -18.856  -1.621  0.00  0.00    -0.057 SA
ENDBRANCH   8  11
ENDBRANCH   2   5
BRANCH   3  21
ATOM     21  C   UNL d   1      27.809 -14.225   2.576  0.00  0.00     0.127 C 
BRANCH  21  22
ATOM     22  C   UNL d   1      28.955 -13.219   2.423  0.00  0.00     0.056 C 
BRANCH  22  23
ATOM     23  C   UNL d   1      30.277 -13.896   2.454  0.00  0.00    -0.048 A 
ATOM     24  C   UNL d   1      30.822 -14.648   1.492  0.00  0.00    -0.004 A 
ATOM     25  C   UNL d   1      30.395 -15.059   0.197  0.00  0.00     0.037 A 
ATOM     26  C   UNL d   1      32.129 -15.056   2.046  0.00  0.00     0.038 A 
ATOM     27  C   UNL d   1      31.211 -15.832  -0.535  0.00  0.00     0.035 A 
ATOM     28 CL   UNL d   1      30.730 -16.334  -2.110  0.00  0.00    -0.084 Cl
ATOM     29  C   UNL d   1      32.500 -16.269  -0.019  0.00  0.00     0.026 A 
ATOM     30  C   UNL d   1      32.972 -15.928   1.197  0.00  0.00     0.031 A 
ATOM     31  N   UNL d   1      32.329 -14.589   3.204  0.00  0.00    -0.385 N 
ATOM     32  C   UNL d   1      31.184 -13.764   3.639  0.00  0.00     0.155 A 
ATOM     33  H   UNL d   1      33.172 -14.770   3.760  0.00  0.00     0.160 HD
ENDBRANCH  22  23
ENDBRANCH  21  22
ENDBRANCH   3  21
TORSDOF 5
ENDMDL
MODEL 6
REMARK VINA RESULT:   -30.904      3.310      5.042
REMARK INTER + INTRA:         -33.998
REMARK INTER:                 -32.395
REMARK INTRA:                  -1.603
REMARK CONF_INDEPENDENT:        1.492
REMARK UNBOUND:                -1.603
REMARK  5 active torsions:
REMARK  status: ('A' for Active; 'I' for Inactive)
REMARK       I    between atoms: C_2  and  N_3 
REMARK    1  A    between atoms: C_2  and  C_16 
REMARK    2  A    between atoms: N_3  and  C_4 
REMARK    3  A    between atoms: C_4  and  C_5 
REMARK    4  A    between atoms: C_5  and  C_6 
REMARK    5  A    between atoms: N_19  and  C_20 
ROOT
ATOM      1  O   UNL d   1      25.690 -14.572   0.615  0.00  0.00    -0.273 OA
ATOM      2  C   UNL d   1      26.795 -15.030   0.396  0.00  0.00     0.221 C 
ATOM      3  N   UNL d   1      27.866 -14.775   1.231  0.00  0.00    -0.360 N 
ATOM      4  H   UNL d   1      28.731 -15.271   1.121  0.00  0.00     0.162 HD
ENDROOT
BRANCH   2   5
ATOM      5  C   UNL d   1      27.127 -15.906  -0.832  0.00  0.00     0.081 C 
ATOM      6  C   UNL d   1      26.032 -15.899  -1.908  0.00  0.00     0.044 C 
ATOM      7  C   UNL d   1      24.697 -16.614  -1.429  0.00  0.00     0.276 C 
ATOM      8  N   UNL d   1      24.853 -18.022  -1.045  0.00  0.00     0.117 N 
ATOM      9  C   UNL d   1      26.031 -18.039  -0.057  0.00  0.00     0.276 C 
ATOM     10  C   UNL d   1      27.349 -17.363  -0.466  0.00  0.00     0.044 C 
BRANCH   8  11
ATOM     11  C   UNL d   1      23.640 -18.715  -0.319  0.00  0.00     0.370 C 
ATOM     12  N   UNL d   1      22.724 -18.534   0.927  0.00  0.00    -0.252 NA
ATOM     13  C   UNL d   1      21.403 -19.107   0.635  0.00  0.00     0.046 C 
ATOM     14  H   UNL d   1      23.068 -18.898   1.813  0.00  0.00     0.130 HD
ATOM     15  C   UNL d   1      20.338 -19.447   1.486  0.00  0.00     0.028 C 
ATOM     16  C   UNL d   1      21.047 -19.100  -0.704  0.00  0.00     0.117 C 
ATOM     17  C   UNL d   1      19.019 -19.563   0.951  0.00  0.00     0.021 C 
ATOM     18  C   UNL d   1      18.829 -19.505  -0.421  0.00  0.00     0.118 C 
ATOM     19  N   UNL d   1      19.842 -19.324  -1.270  0.00  0.00    -0.252 NA
ATOM     20  S   UNL d   1      22.386 -18.730  -1.719  0.00  0.00    -0.057 SA
ENDBRANCH   8  11
ENDBRANCH   2   5
BRANCH   3  21
ATOM     21  C   UNL d   1      27.815 -13.831   2.302  0.00  0.00     0.127 C 
BRANCH  21  22
ATOM     22  C   UNL d   1      27.439 -12.444   1.771  0.00  0.00     0.056 C 
BRANCH  22  23
ATOM     23  C   UNL d   1      28.330 -12.030   0.657  0.00  0.00    -0.048 A 
ATOM     24  C   UNL d   1      28.063 -12.083  -0.652  0.00  0.00    -0.004 A 
ATOM     25  C   UNL d   1      26.942 -12.514  -1.416  0.00  0.00     0.037 A 
ATOM     26  C   UNL d   1      29.283 -11.549  -1.293  0.00  0.00     0.038 A 
ATOM     27  C   UNL d   1      27.000 -12.424  -2.753  0.00  0.00     0.035 A 
ATOM     28 CL   UNL d   1      25.655 -12.924  -3.705  0.00  0.00    -0.084 Cl
ATOM     29  C   UNL d   1      28.190 -11.919  -3.424  0.00  0.00     0.026 A 
ATOM     30  C   UNL d   1      29.292 -11.497  -2.773  0.00  0.00     0.031 A 
ATOM     31  N   UNL d   1      30.165 -11.216  -0.450  0.00  0.00    -0.385 N 
ATOM     32  C   UNL d   1      29.688 -11.458   0.927  0.00  0.00     0.155 A 
ATOM     33  H   UNL d   1      31.085 -10.837  -0.699  0.00  0.00     0.160 HD
ENDBRANCH  22  23
ENDBRANCH  21  22
ENDBRANCH   3  21
TORSDOF 5
ENDMDL
MODEL 7
REMARK VINA RESULT:   -30.358      2.783      4.121
REMARK INTER + INTRA:         -33.086
REMARK INTER:                 -31.850
REMARK INTRA:                  -1.236
REMARK CONF_INDEPENDENT:        1.492
REMARK UNBOUND:                -1.236
REMARK  5 active torsions:
REMARK  status: ('A' for Active; 'I' for Inactive)
REMARK       I    between atoms: C_2  and  N_3 
REMARK    1  A    between atoms: C_2  and  C_16 
REMARK    2  A    between atoms: N_3  and  C_4 
REMARK    3  A    between atoms: C_4  and  C_5 
REMARK    4  A    between atoms: C_5  and  C_6 
REMARK    5  A    between atoms: N_19  and  C_20 
ROOT
ATOM      1  O   UNL d   1      26.229 -14.367   0.887  0.00  0.00    -0.273 OA
ATOM      2  C   UNL d   1      27.138 -15.119   0.591  0.00  0.00     0.221 C 
ATOM      3  N   UNL d   1      28.164 -15.401   1.473  0.00  0.00    -0.360 N 
ATOM      4  H   UNL d   1      28.826 -16.127   1.273  0.00  0.00     0.162 HD
ENDROOT
BRANCH   2   5
ATOM      5  C   UNL d   1      27.263 -15.804  -0.788  0.00  0.00     0.081 C 
ATOM      6  C   UNL d   1      26.054 -15.571  -1.704  0.00  0.00     0.044 C 
ATOM      7  C   UNL d   1      24.737 -16.283  -1.175  0.00  0.00     0.276 C 
ATOM      8  N   UNL d   1      24.837 -17.741  -1.031  0.00  0.00     0.117 N 
ATOM      9  C   UNL d   1      26.118 -17.974  -0.212  0.00  0.00     0.276 C 
ATOM     10  C   UNL d   1      27.424 -17.311  -0.677  0.00  0.00     0.044 C 
BRANCH   8  11
ATOM     11  C   UNL d   1      23.672 -18.477  -0.272  0.00  0.00     0.370 C 
ATOM     12  N   UNL d   1      22.759 -18.311   0.979  0.00  0.00    -0.252 NA
ATOM     13  C   UNL d   1      21.468 -18.963   0.718  0.00  0.00     0.046 C 
ATOM     14  H   UNL d   1      23.131 -18.630   1.871  0.00  0.00     0.130 HD
ATOM     15  C   UNL d   1      20.432 -19.335   1.591  0.00  0.00     0.028 C 
ATOM     16  C   UNL d   1      21.100 -19.013  -0.616  0.00  0.00     0.117 C 
ATOM     17  C   UNL d   1      19.116 -19.538   1.075  0.00  0.00     0.021 C 
ATOM     18  C   UNL d   1      18.910 -19.529  -0.296  0.00  0.00     0.118 C 
ATOM     19  N   UNL d   1      19.903 -19.319  -1.162  0.00  0.00    -0.252 NA
ATOM     20  S   UNL d   1      22.406 -18.600  -1.657  0.00  0.00    -0.057 SA
ENDBRANCH   8  11
ENDBRANCH   2   5
BRANCH   3  21
ATOM     21  C   UNL d   1      28.338 -14.716   2.715  0.00  0.00     0.127 C 
BRANCH  21  22
ATOM     22  C   UNL d   1      28.341 -13.201   2.490  0.00  0.00     0.056 C 
BRANCH  22  23
ATOM     23  C   UNL d   1      29.120 -12.833   1.280  0.00  0.00    -0.048 A 
ATOM     24  C   UNL d   1      30.395 -13.139   1.017  0.00  0.00    -0.004 A 
ATOM     25  C   UNL d   1      31.405 -13.856   1.718  0.00  0.00     0.037 A 
ATOM     26  C   UNL d   1      30.647 -12.534  -0.307  0.00  0.00     0.038 A 
ATOM     27  C   UNL d   1      32.613 -13.988   1.152  0.00  0.00     0.035 A 
ATOM     28 CL   UNL d   1      33.852 -14.862   1.968  0.00  0.00    -0.084 Cl
ATOM     29  C   UNL d   1      32.907 -13.393  -0.144  0.00  0.00     0.026 A 
ATOM     30  C   UNL d   1      32.008 -12.695  -0.867  0.00  0.00     0.031 A 
ATOM     31  N   UNL d   1      29.629 -11.943  -0.770  0.00  0.00    -0.385 N 
ATOM     32  C   UNL d   1      28.491 -12.054   0.165  0.00  0.00     0.155 A 
ATOM     33  H   UNL d   1      29.609 -11.451  -1.670  0.00  0.00     0.160 HD
ENDBRANCH  22  23
ENDBRANCH  21  22
ENDBRANCH   3  21
TORSDOF 5
ENDMDL
MODEL 8
REMARK VINA RESULT:   -30.284      4.958      7.891
REMARK INTER + INTRA:         -33.019
REMARK INTER:                 -31.775
REMARK INTRA:                  -1.244
REMARK CONF_INDEPENDENT:        1.492
REMARK UNBOUND:                -1.244
REMARK  5 active torsions:
REMARK  status: ('A' for Active; 'I' for Inactive)
REMARK       I    between atoms: C_2  and  N_3 
REMARK    1  A    between atoms: C_2  and  C_16 
REMARK    2  A    between atoms: N_3  and  C_4 
REMARK    3  A    between atoms: C_4  and  C_5 
REMARK    4  A    between atoms: C_5  and  C_6 
REMARK    5  A    between atoms: N_19  and  C_20 
ROOT
ATOM      1  O   UNL d   1      27.669 -17.385  -1.689  0.00  0.00    -0.273 OA
ATOM      2  C   UNL d   1      27.832 -16.226  -2.019  0.00  0.00     0.221 C 
ATOM      3  N   UNL d   1      28.905 -15.836  -2.799  0.00  0.00    -0.360 N 
ATOM      4  H   UNL d   1      28.951 -14.909  -3.180  0.00  0.00     0.162 HD
ENDROOT
BRANCH   2   5
ATOM      5  C   UNL d   1      26.896 -15.076  -1.585  0.00  0.00     0.081 C 
ATOM      6  C   UNL d   1      26.495 -15.133  -0.104  0.00  0.00     0.044 C 
ATOM      7  C   UNL d   1      25.561 -16.373   0.230  0.00  0.00     0.276 C 
ATOM      8  N   UNL d   1      24.297 -16.415  -0.515  0.00  0.00     0.117 N 
ATOM      9  C   UNL d   1      24.696 -16.237  -1.990  0.00  0.00     0.276 C 
ATOM     10  C   UNL d   1      25.598 -15.053  -2.374  0.00  0.00     0.044 C 
BRANCH   8  11
ATOM     11  C   UNL d   1      23.447 -17.737  -0.431  0.00  0.00     0.370 C 
ATOM     12  N   UNL d   1      22.985 -18.804   0.605  0.00  0.00    -0.252 NA
ATOM     13  C   UNL d   1      21.686 -19.347   0.183  0.00  0.00     0.046 C 
ATOM     14  H   UNL d   1      23.628 -19.567   0.804  0.00  0.00     0.130 HD
ATOM     15  C   UNL d   1      20.991 -20.496   0.596  0.00  0.00     0.028 C 
ATOM     16  C   UNL d   1      20.907 -18.481  -0.567  0.00  0.00     0.117 C 
ATOM     17  C   UNL d   1      19.582 -20.580   0.384  0.00  0.00     0.021 C 
ATOM     18  C   UNL d   1      18.944 -19.608  -0.371  0.00  0.00     0.118 C 
ATOM     19  N   UNL d   1      19.602 -18.575  -0.900  0.00  0.00    -0.252 NA
ATOM     20  S   UNL d   1      21.803 -17.112  -1.098  0.00  0.00    -0.057 SA
ENDBRANCH   8  11
ENDBRANCH   2   5
BRANCH   3  21
ATOM     21  C   UNL d   1      29.986 -16.707  -3.133  0.00  0.00     0.127 C 
BRANCH  21  22
ATOM     22  C   UNL d   1      29.775 -17.306  -4.527  0.00  0.00     0.056 C 
BRANCH  22  23
ATOM     23  C   UNL d   1      29.960 -16.285  -5.590  0.00  0.00    -0.048 A 
ATOM     24  C   UNL d   1      29.202 -15.206  -5.813  0.00  0.00    -0.004 A 
ATOM     25  C   UNL d   1      28.040 -14.668  -5.191  0.00  0.00     0.037 A 
ATOM     26  C   UNL d   1      29.837 -14.551  -6.975  0.00  0.00     0.038 A 
ATOM     27  C   UNL d   1      27.518 -13.531  -5.674  0.00  0.00     0.035 A 
ATOM     28 CL   UNL d   1      26.122 -12.846  -4.935  0.00  0.00    -0.084 Cl
ATOM     29  C   UNL d   1      28.105 -12.863  -6.828  0.00  0.00     0.026 A 
ATOM     30  C   UNL d   1      29.199 -13.311  -7.475  0.00  0.00     0.031 A 
ATOM     31  N   UNL d   1      30.858 -15.175  -7.384  0.00  0.00    -0.385 N 
ATOM     32  C   UNL d   1      31.103 -16.373  -6.554  0.00  0.00     0.155 A 
ATOM     33  H   UNL d   1      31.427 -14.886  -8.187  0.00  0.00     0.160 HD
ENDBRANCH  22  23
ENDBRANCH  21  22
ENDBRANCH   3  21
TORSDOF 5
ENDMDL
MODEL 9
REMARK VINA RESULT:   -30.034      2.197      2.963
REMARK INTER + INTRA:         -32.922
REMARK INTER:                 -31.525
REMARK INTRA:                  -1.396
REMARK CONF_INDEPENDENT:        1.492
REMARK UNBOUND:                -1.396
REMARK  5 active torsions:
REMARK  status: ('A' for Active; 'I' for Inactive)
REMARK       I    between atoms: C_2  and  N_3 
REMARK    1  A    between atoms: C_2  and  C_16 
REMARK    2  A    between atoms: N_3  and  C_4 
REMARK    3  A    between atoms: C_4  and  C_5 
REMARK    4  A    between atoms: C_5  and  C_6 
REMARK    5  A    between atoms: N_19  and  C_20 
ROOT
ATOM      1  O   UNL d   1      26.118 -15.152   0.689  0.00  0.00    -0.273 OA
ATOM      2  C   UNL d   1      26.718 -14.923  -0.344  0.00  0.00     0.221 C 
ATOM      3  N   UNL d   1      27.036 -13.635  -0.730  0.00  0.00    -0.360 N 
ATOM      4  H   UNL d   1      27.650 -13.470  -1.505  0.00  0.00     0.162 HD
ENDROOT
BRANCH   2   5
ATOM      5  C   UNL d   1      27.155 -16.023  -1.337  0.00  0.00     0.081 C 
ATOM      6  C   UNL d   1      26.128 -16.295  -2.446  0.00  0.00     0.044 C 
ATOM      7  C   UNL d   1      24.792 -16.954  -1.896  0.00  0.00     0.276 C 
ATOM      8  N   UNL d   1      24.972 -18.240  -1.211  0.00  0.00     0.117 N 
ATOM      9  C   UNL d   1      26.087 -17.992  -0.181  0.00  0.00     0.276 C 
ATOM     10  C   UNL d   1      27.404 -17.358  -0.656  0.00  0.00     0.044 C 
BRANCH   8  11
ATOM     11  C   UNL d   1      23.742 -18.819  -0.418  0.00  0.00     0.370 C 
ATOM     12  N   UNL d   1      22.856 -18.503   0.822  0.00  0.00    -0.252 NA
ATOM     13  C   UNL d   1      21.505 -19.035   0.592  0.00  0.00     0.046 C 
ATOM     14  H   UNL d   1      23.198 -18.814   1.729  0.00  0.00     0.130 HD
ATOM     15  C   UNL d   1      20.441 -19.260   1.481  0.00  0.00     0.028 C 
ATOM     16  C   UNL d   1      21.128 -19.112  -0.739  0.00  0.00     0.117 C 
ATOM     17  C   UNL d   1      19.109 -19.355   0.974  0.00  0.00     0.021 C 
ATOM     18  C   UNL d   1      18.899 -19.391  -0.396  0.00  0.00     0.118 C 
ATOM     19  N   UNL d   1      19.905 -19.322  -1.270  0.00  0.00    -0.252 NA
ATOM     20  S   UNL d   1      22.465 -18.882  -1.797  0.00  0.00    -0.057 SA
ENDBRANCH   8  11
ENDBRANCH   2   5
BRANCH   3  21
ATOM     21  C   UNL d   1      26.548 -12.475  -0.055  0.00  0.00     0.127 C 
BRANCH  21  22
ATOM     22  C   UNL d   1      27.714 -11.664   0.520  0.00  0.00     0.056 C 
BRANCH  22  23
ATOM     23  C   UNL d   1      28.889 -12.528   0.800  0.00  0.00    -0.048 A 
ATOM     24  C   UNL d   1      29.165 -13.170   1.940  0.00  0.00    -0.004 A 
ATOM     25  C   UNL d   1      28.514 -13.267   3.203  0.00  0.00     0.037 A 
ATOM     26  C   UNL d   1      30.435 -13.873   1.663  0.00  0.00     0.038 A 
ATOM     27  C   UNL d   1      29.073 -14.024   4.159  0.00  0.00     0.035 A 
ATOM     28 CL   UNL d   1      28.303 -14.173   5.692  0.00  0.00    -0.084 Cl
ATOM     29  C   UNL d   1      30.332 -14.719   3.932  0.00  0.00     0.026 A 
ATOM     30  C   UNL d   1      31.011 -14.673   2.768  0.00  0.00     0.031 A 
ATOM     31  N   UNL d   1      30.853 -13.668   0.488  0.00  0.00    -0.385 N 
ATOM     32  C   UNL d   1      29.924 -12.789  -0.251  0.00  0.00     0.155 A 
ATOM     33  H   UNL d   1      31.724 -14.058   0.111  0.00  0.00     0.160 HD
ENDBRANCH  22  23
ENDBRANCH  21  22
ENDBRANCH   3  21
TORSDOF 5
ENDMDL
