MODEL 1
REMARK VINA RESULT:   -30.780      0.000      0.000
REMARK INTER + INTRA:         -32.324
REMARK INTER:                 -31.973
REMARK INTRA:                  -0.351
REMARK CONF_INDEPENDENT:        1.193
REMARK UNBOUND:                -0.351
REMARK  4 active torsions:
REMARK  status: ('A' for Active; 'I' for Inactive)
REMARK    1  A    between atoms: C_4  and  N_5 
REMARK       I    between atoms: N_5  and  C_6 
REMARK       I    between atoms: C_6  and  N_8 
REMARK    2  A    between atoms: N_8  and  C_9 
REMARK    3  A    between atoms: C_9  and  C_10 
REMARK    4  A    between atoms: C_10  and  C_11 
ROOT
ATOM      1  N   UNL d   1      21.724 -18.386   0.100  0.00  0.00    -0.291 N 
ATOM      2  C   UNL d   1      22.691 -18.351  -0.872  0.00  0.00     0.321 C 
ATOM      3  O   UNL d   1      22.668 -19.016  -1.909  0.00  0.00    -0.247 OA
ATOM      4  N   UNL d   1      23.746 -17.500  -0.634  0.00  0.00    -0.343 N 
ATOM      5  H   UNL d   1      21.780 -17.820   0.933  0.00  0.00     0.172 HD
ATOM      6  H   UNL d   1      23.805 -16.935   0.199  0.00  0.00     0.164 HD
ENDROOT
BRANCH   1   7
ATOM      7  C   UNL d   1      20.599 -19.198  -0.008  0.00  0.00     0.161 A 
ATOM      8  C   UNL d   1      20.020 -19.993   1.007  0.00  0.00     0.087 A 
ATOM      9  C   UNL d   1      18.950 -20.615   0.429  0.00  0.00     0.078 A 
ATOM     10  C   UNL d   1      17.962 -21.572   0.959  0.00  0.00     0.079 C 
ATOM     11  O   UNL d   1      18.865 -20.220  -0.870  0.00  0.00    -0.216 OA
ATOM     12  N   UNL d   1      19.904 -19.325  -1.147  0.00  0.00    -0.110 NA
ENDBRANCH   1   7
BRANCH   4  13
ATOM     13  C   UNL d   1      24.786 -17.443  -1.647  0.00  0.00     0.125 C 
BRANCH  13  14
ATOM     14  C   UNL d   1      25.847 -16.362  -1.433  0.00  0.00     0.028 C 
BRANCH  14  15
ATOM     15  C   UNL d   1      26.999 -16.803  -0.480  0.00  0.00    -0.050 C 
ATOM     16  C   UNL d   1      26.653 -18.127   0.223  0.00  0.00     0.014 C 
ATOM     17  C   UNL d   1      28.317 -16.970  -1.256  0.00  0.00     0.014 C 
ATOM     18  C   UNL d   1      27.209 -15.724   0.599  0.00  0.00     0.014 C 
ENDBRANCH  14  15
ENDBRANCH  13  14
ENDBRANCH   4  13
TORSDOF 4
ENDMDL
MODEL 2
REMARK VINA RESULT:   -30.555      1.094      1.711
REMARK INTER + INTRA:         -32.133
REMARK INTER:                 -31.748
REMARK INTRA:                  -0.385
REMARK CONF_INDEPENDENT:        1.193
REMARK UNBOUND:                -0.385
REMARK  4 active torsions:
REMARK  status: ('A' for Active; 'I' for Inactive)
REMARK    1  A    between atoms: C_4  and  N_5 
REMARK       I    between atoms: N_5  and  C_6 
REMARK       I    between atoms: C_6  and  N_8 
REMARK    2  A    between atoms: N_8  and  C_9 
REMARK    3  A    between atoms: C_9  and  C_10 
REMARK    4  A    between atoms: C_10  and  C_11 
ROOT
ATOM      1  N   UNL d   1      21.678 -18.595   0.489  0.00  0.00    -0.291 N 
ATOM      2  C   UNL d   1      22.751 -18.582  -0.364  0.00  0.00     0.321 C 
ATOM      3  O   UNL d   1      22.800 -19.180  -1.440  0.00  0.00    -0.247 OA
ATOM      4  N   UNL d   1      23.833 -17.838   0.049  0.00  0.00    -0.343 N 
ATOM      5  H   UNL d   1      21.678 -18.087   1.360  0.00  0.00     0.172 HD
ATOM      6  H   UNL d   1      23.836 -17.331   0.921  0.00  0.00     0.164 HD
ENDROOT
BRANCH   1   7
ATOM      7  C   UNL d   1      20.514 -19.302   0.200  0.00  0.00     0.161 A 
ATOM      8  C   UNL d   1      19.807 -20.170   1.062  0.00  0.00     0.087 A 
ATOM      9  C   UNL d   1      18.749 -20.637   0.336  0.00  0.00     0.078 A 
ATOM     10  C   UNL d   1      17.662 -21.576   0.669  0.00  0.00     0.079 C 
ATOM     11  O   UNL d   1      18.793 -20.082  -0.905  0.00  0.00    -0.216 OA
ATOM     12  N   UNL d   1      19.905 -19.239  -0.993  0.00  0.00    -0.110 NA
ENDBRANCH   1   7
BRANCH   4  13
ATOM     13  C   UNL d   1      24.986 -17.807  -0.834  0.00  0.00     0.125 C 
BRANCH  13  14
ATOM     14  C   UNL d   1      24.828 -16.938  -2.083  0.00  0.00     0.028 C 
BRANCH  14  15
ATOM     15  C   UNL d   1      25.681 -15.633  -2.043  0.00  0.00    -0.050 C 
ATOM     16  C   UNL d   1      27.058 -15.859  -2.693  0.00  0.00     0.014 C 
ATOM     17  C   UNL d   1      24.960 -14.486  -2.770  0.00  0.00     0.014 C 
ATOM     18  C   UNL d   1      25.903 -15.212  -0.578  0.00  0.00     0.014 C 
ENDBRANCH  14  15
ENDBRANCH  13  14
ENDBRANCH   4  13
TORSDOF 4
ENDMDL
MODEL 3
REMARK VINA RESULT:   -30.553      1.085      1.849
REMARK INTER + INTRA:         -32.134
REMARK INTER:                 -31.747
REMARK INTRA:                  -0.387
REMARK CONF_INDEPENDENT:        1.193
REMARK UNBOUND:                -0.387
REMARK  4 active torsions:
REMARK  status: ('A' for Active; 'I' for Inactive)
REMARK    1  A    between atoms: C_4  and  N_5 
REMARK       I    between atoms: N_5  and  C_6 
REMARK       I    between atoms: C_6  and  N_8 
REMARK    2  A    between atoms: N_8  and  C_9 
REMARK    3  A    between atoms: C_9  and  C_10 
REMARK    4  A    between atoms: C_10  and  C_11 
ROOT
ATOM      1  N   UNL d   1      21.675 -18.593   0.474  0.00  0.00    -0.291 N 
ATOM      2  C   UNL d   1      22.752 -18.596  -0.374  0.00  0.00     0.321 C 
ATOM      3  O   UNL d   1      22.805 -19.213  -1.439  0.00  0.00    -0.247 OA
ATOM      4  N   UNL d   1      23.832 -17.844   0.030  0.00  0.00    -0.343 N 
ATOM      5  H   UNL d   1      21.671 -18.068   1.335  0.00  0.00     0.172 HD
ATOM      6  H   UNL d   1      23.832 -17.321   0.892  0.00  0.00     0.164 HD
ENDROOT
BRANCH   1   7
ATOM      7  C   UNL d   1      20.512 -19.305   0.193  0.00  0.00     0.161 A 
ATOM      8  C   UNL d   1      19.805 -20.162   1.066  0.00  0.00     0.087 A 
ATOM      9  C   UNL d   1      18.748 -20.640   0.345  0.00  0.00     0.078 A 
ATOM     10  C   UNL d   1      17.662 -21.575   0.689  0.00  0.00     0.079 C 
ATOM     11  O   UNL d   1      18.793 -20.101  -0.903  0.00  0.00    -0.216 OA
ATOM     12  N   UNL d   1      19.904 -19.258  -1.001  0.00  0.00    -0.110 NA
ENDBRANCH   1   7
BRANCH   4  13
ATOM     13  C   UNL d   1      24.989 -17.830  -0.849  0.00  0.00     0.125 C 
BRANCH  13  14
ATOM     14  C   UNL d   1      24.856 -16.945  -2.089  0.00  0.00     0.028 C 
BRANCH  14  15
ATOM     15  C   UNL d   1      25.686 -15.628  -2.005  0.00  0.00    -0.050 C 
ATOM     16  C   UNL d   1      24.978 -14.486  -2.754  0.00  0.00     0.014 C 
ATOM     17  C   UNL d   1      25.907 -15.214  -0.540  0.00  0.00     0.014 C 
ATOM     18  C   UNL d   1      27.064 -15.851  -2.656  0.00  0.00     0.014 C 
ENDBRANCH  14  15
ENDBRANCH  13  14
ENDBRANCH   4  13
TORSDOF 4
ENDMDL
