MODEL 1
REMARK VINA RESULT:   -11.748      0.000      0.000
REMARK INTER + INTRA:         -14.286
REMARK INTER:                 -13.538
REMARK INTRA:                  -0.748
REMARK CONF_INDEPENDENT:        1.790
REMARK UNBOUND:                -0.748
REMARK  6 active torsions:
REMARK  status: ('A' for Active; 'I' for Inactive)
REMARK    1  A    between atoms: C_4  and  C_5 
REMARK       I    between atoms: C_5  and  N_7 
REMARK    2  A    between atoms: N_7  and  C_8 
REMARK    3  A    between atoms: C_15  and  N_16 
REMARK       I    between atoms: N_16  and  C_17 
REMARK       I    between atoms: C_17  and  N_19 
REMARK    4  A    between atoms: N_19  and  C_20 
REMARK    5  A    between atoms: C_20  and  C_21 
REMARK    6  A    between atoms: C_25  and  N_26 
ROOT
ATOM      1  C   UNL d   1      26.228 -18.468   0.743  0.00  0.00     0.050 C 
ATOM      2  C   UNL d   1      25.299 -17.543   0.135  0.00  0.00    -0.034 C 
ATOM      3  C   UNL d   1      24.000 -18.061   0.185  0.00  0.00     0.026 C 
ATOM      4  C   UNL d   1      23.011 -17.490  -0.555  0.00  0.00     0.032 C 
ATOM      5  C   UNL d   1      23.363 -16.338  -1.270  0.00  0.00     0.019 C 
ATOM      6  C   UNL d   1      24.678 -15.755  -1.202  0.00  0.00     0.031 C 
ATOM      7  C   UNL d   1      25.693 -16.337  -0.448  0.00  0.00     0.042 C 
ENDROOT
BRANCH   7   8
ATOM      8  N   UNL d   1      27.064 -15.802  -0.370  0.00  0.00    -0.308 N 
ATOM      9  C   UNL d   1      27.388 -14.464  -0.672  0.00  0.00     0.321 C 
ATOM     10  O   UNL d   1      26.734 -13.779  -1.456  0.00  0.00    -0.247 OA
ATOM     11  N   UNL d   1      28.423 -13.889   0.069  0.00  0.00    -0.339 N 
ATOM     12  H   UNL d   1      29.306 -14.353  -0.131  0.00  0.00     0.164 HD
ATOM     13  H   UNL d   1      27.791 -16.472  -0.588  0.00  0.00     0.170 HD
BRANCH  11  14
ATOM     14  C   UNL d   1      28.622 -12.372   0.235  0.00  0.00     0.163 C 
BRANCH  14  15
ATOM     15  C   UNL d   1      28.116 -11.623   1.514  0.00  0.00    -0.038 C 
ATOM     16  C   UNL d   1      28.450 -11.941   2.828  0.00  0.00     0.009 C 
ATOM     17  C   UNL d   1      27.912 -11.195   3.914  0.00  0.00     0.003 C 
ATOM     18  C   UNL d   1      27.110 -10.065   3.738  0.00  0.00     0.036 C 
ATOM     19  C   UNL d   1      26.803  -9.668   2.468  0.00  0.00     0.103 C 
ATOM     20  C   UNL d   1      27.243 -10.532   1.428  0.00  0.00     0.045 C 
BRANCH  19  21
ATOM     21  N   UNL d   1      25.995  -8.399   2.389  0.00  0.00    -0.116 N 
ATOM     22  O   UNL d   1      26.280  -7.506   3.205  0.00  0.00    -0.532 OA
ATOM     23  O   UNL d   1      25.179  -8.233   1.471  0.00  0.00    -0.532 OA
ENDBRANCH  19  21
ENDBRANCH  14  15
ENDBRANCH  11  14
ENDBRANCH   7   8
BRANCH   4  24
ATOM     24  C   UNL d   1      21.718 -18.238  -0.535  0.00  0.00     0.252 C 
ATOM     25  O   UNL d   1      20.755 -17.782  -1.143  0.00  0.00    -0.268 OA
ATOM     26  N   UNL d   1      21.684 -19.402   0.183  0.00  0.00    -0.352 N 
ATOM     27  H   UNL d   1      22.527 -19.694   0.649  0.00  0.00     0.163 HD
BRANCH  26  28
ATOM     28  C   UNL d   1      20.527 -20.259   0.365  0.00  0.00     0.084 C 
ATOM     29  C   UNL d   1      19.943 -20.110   1.765  0.00  0.00     0.025 C 
ATOM     30  C   UNL d   1      18.605 -20.832   1.686  0.00  0.00     0.002 C 
ATOM     31  C   UNL d   1      18.143 -20.706   0.236  0.00  0.00     0.002 C 
ATOM     32  C   UNL d   1      19.295 -20.052  -0.519  0.00  0.00     0.025 C 
ENDBRANCH  26  28
ENDBRANCH   4  24
TORSDOF 6
ENDMDL
MODEL 2
REMARK VINA RESULT:   -11.214      1.011      1.507
REMARK INTER + INTRA:         -13.904
REMARK INTER:                 -13.004
REMARK INTRA:                  -0.900
REMARK CONF_INDEPENDENT:        1.790
REMARK UNBOUND:                -0.900
REMARK  6 active torsions:
REMARK  status: ('A' for Active; 'I' for Inactive)
REMARK    1  A    between atoms: C_4  and  C_5 
REMARK       I    between atoms: C_5  and  N_7 
REMARK    2  A    between atoms: N_7  and  C_8 
REMARK    3  A    between atoms: C_15  and  N_16 
REMARK       I    between atoms: N_16  and  C_17 
REMARK       I    between atoms: C_17  and  N_19 
REMARK    4  A    between atoms: N_19  and  C_20 
REMARK    5  A    between atoms: C_20  and  C_21 
REMARK    6  A    between atoms: C_25  and  N_26 
ROOT
ATOM      1  C   UNL d   1      26.843 -18.519   0.351  0.00  0.00     0.050 C 
ATOM      2  C   UNL d   1      25.748 -17.702  -0.118  0.00  0.00    -0.034 C 
ATOM      3  C   UNL d   1      24.562 -18.444  -0.132  0.00  0.00     0.026 C 
ATOM      4  C   UNL d   1      23.466 -17.964  -0.781  0.00  0.00     0.032 C 
ATOM      5  C   UNL d   1      23.589 -16.683  -1.334  0.00  0.00     0.019 C 
ATOM      6  C   UNL d   1      24.783 -15.890  -1.194  0.00  0.00     0.031 C 
ATOM      7  C   UNL d   1      25.906 -16.377  -0.533  0.00  0.00     0.042 C 
ENDROOT
BRANCH   7   8
ATOM      8  N   UNL d   1      27.163 -15.623  -0.390  0.00  0.00    -0.308 N 
ATOM      9  C   UNL d   1      27.210 -14.268  -0.002  0.00  0.00     0.321 C 
ATOM     10  O   UNL d   1      26.290 -13.480  -0.218  0.00  0.00    -0.247 OA
ATOM     11  N   UNL d   1      28.306 -13.875   0.769  0.00  0.00    -0.339 N 
ATOM     12  H   UNL d   1      29.167 -13.954   0.234  0.00  0.00     0.164 HD
ATOM     13  H   UNL d   1      27.900 -15.906  -1.024  0.00  0.00     0.170 HD
BRANCH  11  14
ATOM     14  C   UNL d   1      28.324 -12.622   1.662  0.00  0.00     0.163 C 
BRANCH  14  15
ATOM     15  C   UNL d   1      28.006 -11.205   1.079  0.00  0.00    -0.038 C 
ATOM     16  C   UNL d   1      28.251 -10.790  -0.228  0.00  0.00     0.009 C 
ATOM     17  C   UNL d   1      27.933  -9.465  -0.640  0.00  0.00     0.003 C 
ATOM     18  C   UNL d   1      27.285  -8.546   0.187  0.00  0.00     0.036 C 
ATOM     19  C   UNL d   1      26.961  -8.920   1.460  0.00  0.00     0.103 C 
ATOM     20  C   UNL d   1      27.433 -10.199   1.866  0.00  0.00     0.045 C 
BRANCH  19  21
ATOM     21  N   UNL d   1      26.201  -7.880   2.242  0.00  0.00    -0.116 N 
ATOM     22  O   UNL d   1      26.655  -7.582   3.359  0.00  0.00    -0.532 OA
ATOM     23  O   UNL d   1      25.248  -7.282   1.724  0.00  0.00    -0.532 OA
ENDBRANCH  19  21
ENDBRANCH  14  15
ENDBRANCH  11  14
ENDBRANCH   7   8
BRANCH   4  24
ATOM     24  C   UNL d   1      22.326 -18.926  -0.857  0.00  0.00     0.252 C 
ATOM     25  O   UNL d   1      21.952 -19.325  -1.956  0.00  0.00    -0.268 OA
ATOM     26  N   UNL d   1      21.750 -19.302   0.325  0.00  0.00    -0.352 N 
ATOM     27  H   UNL d   1      22.127 -18.921   1.176  0.00  0.00     0.163 HD
BRANCH  26  28
ATOM     28  C   UNL d   1      20.612 -20.192   0.476  0.00  0.00     0.084 C 
ATOM     29  C   UNL d   1      19.951 -20.017   1.838  0.00  0.00     0.025 C 
ATOM     30  C   UNL d   1      18.642 -20.786   1.714  0.00  0.00     0.002 C 
ATOM     31  C   UNL d   1      18.255 -20.723   0.238  0.00  0.00     0.002 C 
ATOM     32  C   UNL d   1      19.424 -20.055  -0.478  0.00  0.00     0.025 C 
ENDBRANCH  26  28
ENDBRANCH   4  24
TORSDOF 6
ENDMDL
MODEL 3
REMARK VINA RESULT:   -10.845      1.075      2.042
REMARK INTER + INTRA:         -13.557
REMARK INTER:                 -12.634
REMARK INTRA:                  -0.923
REMARK CONF_INDEPENDENT:        1.790
REMARK UNBOUND:                -0.923
REMARK  6 active torsions:
REMARK  status: ('A' for Active; 'I' for Inactive)
REMARK    1  A    between atoms: C_4  and  C_5 
REMARK       I    between atoms: C_5  and  N_7 
REMARK    2  A    between atoms: N_7  and  C_8 
REMARK    3  A    between atoms: C_15  and  N_16 
REMARK       I    between atoms: N_16  and  C_17 
REMARK       I    between atoms: C_17  and  N_19 
REMARK    4  A    between atoms: N_19  and  C_20 
REMARK    5  A    between atoms: C_20  and  C_21 
REMARK    6  A    between atoms: C_25  and  N_26 
ROOT
ATOM      1  C   UNL d   1      24.747 -15.465  -2.223  0.00  0.00     0.050 C 
ATOM      2  C   UNL d   1      24.818 -16.611  -1.347  0.00  0.00    -0.034 C 
ATOM      3  C   UNL d   1      23.631 -17.348  -1.419  0.00  0.00     0.026 C 
ATOM      4  C   UNL d   1      23.371 -18.311  -0.492  0.00  0.00     0.032 C 
ATOM      5  C   UNL d   1      24.384 -18.555   0.445  0.00  0.00     0.019 C 
ATOM      6  C   UNL d   1      25.648 -17.866   0.416  0.00  0.00     0.031 C 
ATOM      7  C   UNL d   1      25.917 -16.880  -0.528  0.00  0.00     0.042 C 
ENDROOT
BRANCH   7   8
ATOM      8  N   UNL d   1      27.179 -16.121  -0.583  0.00  0.00    -0.308 N 
ATOM      9  C   UNL d   1      27.287 -14.773  -0.183  0.00  0.00     0.321 C 
ATOM     10  O   UNL d   1      26.343 -13.987  -0.227  0.00  0.00    -0.247 OA
ATOM     11  N   UNL d   1      28.496 -14.389   0.402  0.00  0.00    -0.339 N 
ATOM     12  H   UNL d   1      29.256 -14.454  -0.271  0.00  0.00     0.164 HD
ATOM     13  H   UNL d   1      27.800 -16.389  -1.337  0.00  0.00     0.170 HD
BRANCH  11  14
ATOM     14  C   UNL d   1      28.660 -13.153   1.303  0.00  0.00     0.163 C 
BRANCH  14  15
ATOM     15  C   UNL d   1      28.232 -11.729   0.813  0.00  0.00    -0.038 C 
ATOM     16  C   UNL d   1      28.441 -11.211  -0.463  0.00  0.00     0.009 C 
ATOM     17  C   UNL d   1      28.021  -9.891  -0.788  0.00  0.00     0.003 C 
ATOM     18  C   UNL d   1      27.306  -9.080   0.097  0.00  0.00     0.036 C 
ATOM     19  C   UNL d   1      27.016  -9.561   1.341  0.00  0.00     0.103 C 
ATOM     20  C   UNL d   1      27.586 -10.824   1.663  0.00  0.00     0.045 C 
BRANCH  19  21
ATOM     21  N   UNL d   1      26.180  -8.637   2.188  0.00  0.00    -0.116 N 
ATOM     22  O   UNL d   1      26.636  -8.340   3.304  0.00  0.00    -0.532 OA
ATOM     23  O   UNL d   1      25.155  -8.118   1.722  0.00  0.00    -0.532 OA
ENDBRANCH  19  21
ENDBRANCH  14  15
ENDBRANCH  11  14
ENDBRANCH   7   8
BRANCH   4  24
ATOM     24  C   UNL d   1      22.004 -18.904  -0.588  0.00  0.00     0.252 C 
ATOM     25  O   UNL d   1      21.552 -19.189  -1.693  0.00  0.00    -0.268 OA
ATOM     26  N   UNL d   1      21.321 -19.086   0.583  0.00  0.00    -0.352 N 
ATOM     27  H   UNL d   1      21.775 -18.821   1.440  0.00  0.00     0.163 HD
BRANCH  26  28
ATOM     28  C   UNL d   1      19.972 -19.608   0.713  0.00  0.00     0.084 C 
ATOM     29  C   UNL d   1      19.889 -21.051   0.230  0.00  0.00     0.025 C 
ATOM     30  C   UNL d   1      18.518 -21.519   0.700  0.00  0.00     0.002 C 
ATOM     31  C   UNL d   1      18.208 -20.716   1.961  0.00  0.00     0.002 C 
ATOM     32  C   UNL d   1      19.334 -19.697   2.101  0.00  0.00     0.025 C 
ENDBRANCH  26  28
ENDBRANCH   4  24
TORSDOF 6
ENDMDL
MODEL 4
REMARK VINA RESULT:   -10.788      1.108      1.316
REMARK INTER + INTRA:         -13.439
REMARK INTER:                 -12.577
REMARK INTRA:                  -0.862
REMARK CONF_INDEPENDENT:        1.790
REMARK UNBOUND:                -0.862
REMARK  6 active torsions:
REMARK  status: ('A' for Active; 'I' for Inactive)
REMARK    1  A    between atoms: C_4  and  C_5 
REMARK       I    between atoms: C_5  and  N_7 
REMARK    2  A    between atoms: N_7  and  C_8 
REMARK    3  A    between atoms: C_15  and  N_16 
REMARK       I    between atoms: N_16  and  C_17 
REMARK       I    between atoms: C_17  and  N_19 
REMARK    4  A    between atoms: N_19  and  C_20 
REMARK    5  A    between atoms: C_20  and  C_21 
REMARK    6  A    between atoms: C_25  and  N_26 
ROOT
ATOM      1  C   UNL d   1      26.854 -18.234   0.466  0.00  0.00     0.050 C 
ATOM      2  C   UNL d   1      25.730 -17.467  -0.020  0.00  0.00    -0.034 C 
ATOM      3  C   UNL d   1      24.582 -18.265  -0.062  0.00  0.00     0.026 C 
ATOM      4  C   UNL d   1      23.477 -17.833  -0.730  0.00  0.00     0.032 C 
ATOM      5  C   UNL d   1      23.549 -16.543  -1.270  0.00  0.00     0.019 C 
ATOM      6  C   UNL d   1      24.701 -15.695  -1.102  0.00  0.00     0.031 C 
ATOM      7  C   UNL d   1      25.833 -16.133  -0.422  0.00  0.00     0.042 C 
ENDROOT
BRANCH   7   8
ATOM      8  N   UNL d   1      27.049 -15.320  -0.249  0.00  0.00    -0.308 N 
ATOM      9  C   UNL d   1      27.221 -14.405   0.810  0.00  0.00     0.321 C 
ATOM     10  O   UNL d   1      26.279 -13.842   1.364  0.00  0.00    -0.247 OA
ATOM     11  N   UNL d   1      28.519 -14.257   1.305  0.00  0.00    -0.339 N 
ATOM     12  H   UNL d   1      29.128 -13.853   0.597  0.00  0.00     0.164 HD
ATOM     13  H   UNL d   1      27.508 -15.058  -1.112  0.00  0.00     0.170 HD
BRANCH  11  14
ATOM     14  C   UNL d   1      28.848 -13.700   2.700  0.00  0.00     0.163 C 
BRANCH  14  15
ATOM     15  C   UNL d   1      28.224 -12.356   3.206  0.00  0.00    -0.038 C 
ATOM     16  C   UNL d   1      28.308 -11.859   4.504  0.00  0.00     0.009 C 
ATOM     17  C   UNL d   1      27.682 -10.629   4.853  0.00  0.00     0.003 C 
ATOM     18  C   UNL d   1      27.039  -9.812   3.921  0.00  0.00     0.036 C 
ATOM     19  C   UNL d   1      26.982 -10.219   2.618  0.00  0.00     0.103 C 
ATOM     20  C   UNL d   1      27.492 -11.520   2.355  0.00  0.00     0.045 C 
BRANCH  19  21
ATOM     21  N   UNL d   1      26.332  -9.232   1.684  0.00  0.00    -0.116 N 
ATOM     22  O   UNL d   1      26.664  -9.294   0.489  0.00  0.00    -0.532 OA
ATOM     23  O   UNL d   1      25.427  -8.489   2.090  0.00  0.00    -0.532 OA
ENDBRANCH  19  21
ENDBRANCH  14  15
ENDBRANCH  11  14
ENDBRANCH   7   8
BRANCH   4  24
ATOM     24  C   UNL d   1      22.386 -18.848  -0.835  0.00  0.00     0.252 C 
ATOM     25  O   UNL d   1      22.117 -19.325  -1.933  0.00  0.00    -0.268 OA
ATOM     26  N   UNL d   1      21.733 -19.181   0.320  0.00  0.00    -0.352 N 
ATOM     27  H   UNL d   1      22.025 -18.734   1.173  0.00  0.00     0.163 HD
BRANCH  26  28
ATOM     28  C   UNL d   1      20.623 -20.110   0.436  0.00  0.00     0.084 C 
ATOM     29  C   UNL d   1      19.967 -20.018   1.808  0.00  0.00     0.025 C 
ATOM     30  C   UNL d   1      18.681 -20.820   1.657  0.00  0.00     0.002 C 
ATOM     31  C   UNL d   1      18.281 -20.701   0.188  0.00  0.00     0.002 C 
ATOM     32  C   UNL d   1      19.425 -19.965  -0.503  0.00  0.00     0.025 C 
ENDBRANCH  26  28
ENDBRANCH   4  24
TORSDOF 6
ENDMDL
MODEL 5
REMARK VINA RESULT:   -10.765      2.647      3.106
REMARK INTER + INTRA:         -13.413
REMARK INTER:                 -12.555
REMARK INTRA:                  -0.858
REMARK CONF_INDEPENDENT:        1.790
REMARK UNBOUND:                -0.858
REMARK  6 active torsions:
REMARK  status: ('A' for Active; 'I' for Inactive)
REMARK    1  A    between atoms: C_4  and  C_5 
REMARK       I    between atoms: C_5  and  N_7 
REMARK    2  A    between atoms: N_7  and  C_8 
REMARK    3  A    between atoms: C_15  and  N_16 
REMARK       I    between atoms: N_16  and  C_17 
REMARK       I    between atoms: C_17  and  N_19 
REMARK    4  A    between atoms: N_19  and  C_20 
REMARK    5  A    between atoms: C_20  and  C_21 
REMARK    6  A    between atoms: C_25  and  N_26 
ROOT
ATOM      1  C   UNL d   1      26.629 -18.540   0.912  0.00  0.00     0.050 C 
ATOM      2  C   UNL d   1      25.623 -17.734   0.262  0.00  0.00    -0.034 C 
ATOM      3  C   UNL d   1      24.433 -18.458   0.133  0.00  0.00     0.026 C 
ATOM      4  C   UNL d   1      23.441 -17.998  -0.678  0.00  0.00     0.032 C 
ATOM      5  C   UNL d   1      23.662 -16.750  -1.276  0.00  0.00     0.019 C 
ATOM      6  C   UNL d   1      24.846 -15.969  -1.024  0.00  0.00     0.031 C 
ATOM      7  C   UNL d   1      25.863 -16.437  -0.198  0.00  0.00     0.042 C 
ENDROOT
BRANCH   7   8
ATOM      8  N   UNL d   1      27.108 -15.695   0.068  0.00  0.00    -0.308 N 
ATOM      9  C   UNL d   1      27.131 -14.414   0.657  0.00  0.00     0.321 C 
ATOM     10  O   UNL d   1      26.201 -13.616   0.556  0.00  0.00    -0.247 OA
ATOM     11  N   UNL d   1      28.217 -14.127   1.487  0.00  0.00    -0.339 N 
ATOM     12  H   UNL d   1      29.082 -14.112   0.953  0.00  0.00     0.164 HD
ATOM     13  H   UNL d   1      27.852 -15.867  -0.596  0.00  0.00     0.170 HD
BRANCH  11  14
ATOM     14  C   UNL d   1      28.211 -13.024   2.560  0.00  0.00     0.163 C 
BRANCH  14  15
ATOM     15  C   UNL d   1      28.457 -13.359   4.070  0.00  0.00    -0.038 C 
ATOM     16  C   UNL d   1      28.746 -14.619   4.586  0.00  0.00     0.009 C 
ATOM     17  C   UNL d   1      28.933 -14.806   5.984  0.00  0.00     0.003 C 
ATOM     18  C   UNL d   1      28.934 -13.750   6.899  0.00  0.00     0.036 C 
ATOM     19  C   UNL d   1      28.720 -12.482   6.440  0.00  0.00     0.103 C 
ATOM     20  C   UNL d   1      28.392 -12.372   5.060  0.00  0.00     0.045 C 
BRANCH  19  21
ATOM     21  N   UNL d   1      28.814 -11.412   7.496  0.00  0.00    -0.116 N 
ATOM     22  O   UNL d   1      29.460 -10.393   7.200  0.00  0.00    -0.532 OA
ATOM     23  O   UNL d   1      28.169 -11.515   8.550  0.00  0.00    -0.532 OA
ENDBRANCH  19  21
ENDBRANCH  14  15
ENDBRANCH  11  14
ENDBRANCH   7   8
BRANCH   4  24
ATOM     24  C   UNL d   1      22.298 -18.945  -0.851  0.00  0.00     0.252 C 
ATOM     25  O   UNL d   1      22.003 -19.324  -1.979  0.00  0.00    -0.268 OA
ATOM     26  N   UNL d   1      21.633 -19.329   0.281  0.00  0.00    -0.352 N 
ATOM     27  H   UNL d   1      21.950 -18.963   1.162  0.00  0.00     0.163 HD
BRANCH  26  28
ATOM     28  C   UNL d   1      20.477 -20.206   0.335  0.00  0.00     0.084 C 
ATOM     29  C   UNL d   1      19.878 -20.245   1.736  0.00  0.00     0.025 C 
ATOM     30  C   UNL d   1      18.544 -20.955   1.547  0.00  0.00     0.002 C 
ATOM     31  C   UNL d   1      18.097 -20.641   0.120  0.00  0.00     0.002 C 
ATOM     32  C   UNL d   1      19.255 -19.888  -0.528  0.00  0.00     0.025 C 
ENDBRANCH  26  28
ENDBRANCH   4  24
TORSDOF 6
ENDMDL
MODEL 6
REMARK VINA RESULT:   -10.716      4.336      5.696
REMARK INTER + INTRA:         -13.773
REMARK INTER:                 -12.506
REMARK INTRA:                  -1.268
REMARK CONF_INDEPENDENT:        1.790
REMARK UNBOUND:                -1.268
REMARK  6 active torsions:
REMARK  status: ('A' for Active; 'I' for Inactive)
REMARK    1  A    between atoms: C_4  and  C_5 
REMARK       I    between atoms: C_5  and  N_7 
REMARK    2  A    between atoms: N_7  and  C_8 
REMARK    3  A    between atoms: C_15  and  N_16 
REMARK       I    between atoms: N_16  and  C_17 
REMARK       I    between atoms: C_17  and  N_19 
REMARK    4  A    between atoms: N_19  and  C_20 
REMARK    5  A    between atoms: C_20  and  C_21 
REMARK    6  A    between atoms: C_25  and  N_26 
ROOT
ATOM      1  C   UNL d   1      25.983 -15.019  -1.427  0.00  0.00     0.050 C 
ATOM      2  C   UNL d   1      25.760 -16.301  -0.802  0.00  0.00    -0.034 C 
ATOM      3  C   UNL d   1      24.413 -16.663  -0.908  0.00  0.00     0.026 C 
ATOM      4  C   UNL d   1      23.925 -17.696  -0.167  0.00  0.00     0.032 C 
ATOM      5  C   UNL d   1      24.860 -18.394   0.608  0.00  0.00     0.019 C 
ATOM      6  C   UNL d   1      26.265 -18.077   0.600  0.00  0.00     0.031 C 
ATOM      7  C   UNL d   1      26.767 -17.021  -0.154  0.00  0.00     0.042 C 
ENDROOT
BRANCH   7   8
ATOM      8  N   UNL d   1      28.188 -16.632  -0.173  0.00  0.00    -0.308 N 
ATOM      9  C   UNL d   1      28.945 -16.535  -1.359  0.00  0.00     0.321 C 
ATOM     10  O   UNL d   1      28.694 -17.193  -2.367  0.00  0.00    -0.247 OA
ATOM     11  N   UNL d   1      29.930 -15.545  -1.393  0.00  0.00    -0.339 N 
ATOM     12  H   UNL d   1      30.659 -15.743  -0.712  0.00  0.00     0.164 HD
ATOM     13  H   UNL d   1      28.716 -16.921   0.641  0.00  0.00     0.170 HD
BRANCH  11  14
ATOM     14  C   UNL d   1      30.526 -14.969  -2.689  0.00  0.00     0.163 C 
BRANCH  14  15
ATOM     15  C   UNL d   1      29.659 -14.817  -3.984  0.00  0.00    -0.038 C 
ATOM     16  C   UNL d   1      30.146 -14.559  -5.262  0.00  0.00     0.009 C 
ATOM     17  C   UNL d   1      29.256 -14.423  -6.365  0.00  0.00     0.003 C 
ATOM     18  C   UNL d   1      27.879 -14.628  -6.260  0.00  0.00     0.036 C 
ATOM     19  C   UNL d   1      27.352 -14.948  -5.041  0.00  0.00     0.103 C 
ATOM     20  C   UNL d   1      28.264 -14.925  -3.950  0.00  0.00     0.045 C 
BRANCH  19  21
ATOM     21  N   UNL d   1      25.870 -15.219  -5.053  0.00  0.00    -0.116 N 
ATOM     22  O   UNL d   1      25.506 -16.295  -5.556  0.00  0.00    -0.532 OA
ATOM     23  O   UNL d   1      25.089 -14.450  -4.476  0.00  0.00    -0.532 OA
ENDBRANCH  19  21
ENDBRANCH  14  15
ENDBRANCH  11  14
ENDBRANCH   7   8
BRANCH   4  24
ATOM     24  C   UNL d   1      22.444 -17.869  -0.254  0.00  0.00     0.252 C 
ATOM     25  O   UNL d   1      21.784 -17.058  -0.896  0.00  0.00    -0.268 OA
ATOM     26  N   UNL d   1      21.902 -18.934   0.412  0.00  0.00    -0.352 N 
ATOM     27  H   UNL d   1      22.526 -19.544   0.913  0.00  0.00     0.163 HD
BRANCH  26  28
ATOM     28  C   UNL d   1      20.490 -19.263   0.492  0.00  0.00     0.084 C 
ATOM     29  C   UNL d   1      19.961 -19.752  -0.851  0.00  0.00     0.025 C 
ATOM     30  C   UNL d   1      18.585 -20.316  -0.521  0.00  0.00     0.002 C 
ATOM     31  C   UNL d   1      18.665 -20.805   0.923  0.00  0.00     0.002 C 
ATOM     32  C   UNL d   1      20.032 -20.372   1.441  0.00  0.00     0.025 C 
ENDBRANCH  26  28
ENDBRANCH   4  24
TORSDOF 6
ENDMDL
MODEL 7
REMARK VINA RESULT:   -10.238      2.053      2.772
REMARK INTER + INTRA:         -12.866
REMARK INTER:                 -12.028
REMARK INTRA:                  -0.838
REMARK CONF_INDEPENDENT:        1.790
REMARK UNBOUND:                -0.838
REMARK  6 active torsions:
REMARK  status: ('A' for Active; 'I' for Inactive)
REMARK    1  A    between atoms: C_4  and  C_5 
REMARK       I    between atoms: C_5  and  N_7 
REMARK    2  A    between atoms: N_7  and  C_8 
REMARK    3  A    between atoms: C_15  and  N_16 
REMARK       I    between atoms: N_16  and  C_17 
REMARK       I    between atoms: C_17  and  N_19 
REMARK    4  A    between atoms: N_19  and  C_20 
REMARK    5  A    between atoms: C_20  and  C_21 
REMARK    6  A    between atoms: C_25  and  N_26 
ROOT
ATOM      1  C   UNL d   1      24.795 -15.369  -2.062  0.00  0.00     0.050 C 
ATOM      2  C   UNL d   1      24.845 -16.562  -1.249  0.00  0.00    -0.034 C 
ATOM      3  C   UNL d   1      23.621 -17.238  -1.305  0.00  0.00     0.026 C 
ATOM      4  C   UNL d   1      23.353 -18.234  -0.417  0.00  0.00     0.032 C 
ATOM      5  C   UNL d   1      24.391 -18.575   0.460  0.00  0.00     0.019 C 
ATOM      6  C   UNL d   1      25.686 -17.946   0.409  0.00  0.00     0.031 C 
ATOM      7  C   UNL d   1      25.964 -16.926  -0.495  0.00  0.00     0.042 C 
ENDROOT
BRANCH   7   8
ATOM      8  N   UNL d   1      27.258 -16.226  -0.567  0.00  0.00    -0.308 N 
ATOM      9  C   UNL d   1      27.448 -14.905  -0.114  0.00  0.00     0.321 C 
ATOM     10  O   UNL d   1      26.542 -14.073  -0.085  0.00  0.00    -0.247 OA
ATOM     11  N   UNL d   1      28.695 -14.605   0.438  0.00  0.00    -0.339 N 
ATOM     12  H   UNL d   1      29.425 -14.676  -0.268  0.00  0.00     0.164 HD
ATOM     13  H   UNL d   1      27.836 -16.488  -1.357  0.00  0.00     0.170 HD
BRANCH  11  14
ATOM     14  C   UNL d   1      28.955 -13.421   1.385  0.00  0.00     0.163 C 
BRANCH  14  15
ATOM     15  C   UNL d   1      28.480 -13.454   2.876  0.00  0.00    -0.038 C 
ATOM     16  C   UNL d   1      28.027 -14.579   3.560  0.00  0.00     0.009 C 
ATOM     17  C   UNL d   1      27.602 -14.484   4.915  0.00  0.00     0.003 C 
ATOM     18  C   UNL d   1      27.697 -13.306   5.660  0.00  0.00     0.036 C 
ATOM     19  C   UNL d   1      28.196 -12.186   5.060  0.00  0.00     0.103 C 
ATOM     20  C   UNL d   1      28.464 -12.300   3.668  0.00  0.00     0.045 C 
BRANCH  19  21
ATOM     21  N   UNL d   1      28.323 -10.993   5.971  0.00  0.00    -0.116 N 
ATOM     22  O   UNL d   1      28.706 -11.218   7.131  0.00  0.00    -0.532 OA
ATOM     23  O   UNL d   1      28.167  -9.847   5.527  0.00  0.00    -0.532 OA
ENDBRANCH  19  21
ENDBRANCH  14  15
ENDBRANCH  11  14
ENDBRANCH   7   8
BRANCH   4  24
ATOM     24  C   UNL d   1      21.955 -18.756  -0.482  0.00  0.00     0.252 C 
ATOM     25  O   UNL d   1      21.448 -18.973  -1.579  0.00  0.00    -0.268 OA
ATOM     26  N   UNL d   1      21.309 -18.952   0.707  0.00  0.00    -0.352 N 
ATOM     27  H   UNL d   1      21.808 -18.745   1.555  0.00  0.00     0.163 HD
BRANCH  26  28
ATOM     28  C   UNL d   1      19.941 -19.413   0.870  0.00  0.00     0.084 C 
ATOM     29  C   UNL d   1      19.545 -20.371  -0.246  0.00  0.00     0.025 C 
ATOM     30  C   UNL d   1      18.227 -20.968   0.230  0.00  0.00     0.002 C 
ATOM     31  C   UNL d   1      18.284 -20.951   1.756  0.00  0.00     0.002 C 
ATOM     32  C   UNL d   1      19.563 -20.205   2.123  0.00  0.00     0.025 C 
ENDBRANCH  26  28
ENDBRANCH   4  24
TORSDOF 6
ENDMDL
MODEL 8
REMARK VINA RESULT:    -9.917      4.862      7.760
REMARK INTER + INTRA:         -12.532
REMARK INTER:                 -11.707
REMARK INTRA:                  -0.826
REMARK CONF_INDEPENDENT:        1.790
REMARK UNBOUND:                -0.826
REMARK  6 active torsions:
REMARK  status: ('A' for Active; 'I' for Inactive)
REMARK    1  A    between atoms: C_4  and  C_5 
REMARK       I    between atoms: C_5  and  N_7 
REMARK    2  A    between atoms: N_7  and  C_8 
REMARK    3  A    between atoms: C_15  and  N_16 
REMARK       I    between atoms: N_16  and  C_17 
REMARK       I    between atoms: C_17  and  N_19 
REMARK    4  A    between atoms: N_19  and  C_20 
REMARK    5  A    between atoms: C_20  and  C_21 
REMARK    6  A    between atoms: C_25  and  N_26 
ROOT
ATOM      1  C   UNL d   1      24.826 -15.134  -2.300  0.00  0.00     0.050 C 
ATOM      2  C   UNL d   1      24.838 -16.303  -1.452  0.00  0.00    -0.034 C 
ATOM      3  C   UNL d   1      23.558 -16.865  -1.385  0.00  0.00     0.026 C 
ATOM      4  C   UNL d   1      23.277 -17.807  -0.443  0.00  0.00     0.032 C 
ATOM      5  C   UNL d   1      24.350 -18.217   0.359  0.00  0.00     0.019 C 
ATOM      6  C   UNL d   1      25.687 -17.711   0.182  0.00  0.00     0.031 C 
ATOM      7  C   UNL d   1      25.978 -16.746  -0.777  0.00  0.00     0.042 C 
ENDROOT
BRANCH   7   8
ATOM      8  N   UNL d   1      27.320 -16.171  -0.979  0.00  0.00    -0.308 N 
ATOM      9  C   UNL d   1      28.471 -16.955  -1.198  0.00  0.00     0.321 C 
ATOM     10  O   UNL d   1      28.585 -18.104  -0.775  0.00  0.00    -0.247 OA
ATOM     11  N   UNL d   1      29.443 -16.417  -2.043  0.00  0.00    -0.339 N 
ATOM     12  H   UNL d   1      29.852 -15.581  -1.632  0.00  0.00     0.164 HD
ATOM     13  H   UNL d   1      27.487 -15.306  -0.480  0.00  0.00     0.170 HD
BRANCH  11  14
ATOM     14  C   UNL d   1      30.511 -17.254  -2.770  0.00  0.00     0.163 C 
BRANCH  14  15
ATOM     15  C   UNL d   1      30.593 -17.285  -4.333  0.00  0.00    -0.038 C 
ATOM     16  C   UNL d   1      30.696 -16.172  -5.163  0.00  0.00     0.009 C 
ATOM     17  C   UNL d   1      30.746 -16.324  -6.578  0.00  0.00     0.003 C 
ATOM     18  C   UNL d   1      30.790 -17.570  -7.208  0.00  0.00     0.036 C 
ATOM     19  C   UNL d   1      30.758 -18.698  -6.438  0.00  0.00     0.103 C 
ATOM     20  C   UNL d   1      30.558 -18.489  -5.046  0.00  0.00     0.045 C 
BRANCH  19  21
ATOM     21  N   UNL d   1      30.884 -19.984  -7.212  0.00  0.00    -0.116 N 
ATOM     22  O   UNL d   1      31.359 -20.956  -6.601  0.00  0.00    -0.532 OA
ATOM     23  O   UNL d   1      30.417 -20.074  -8.357  0.00  0.00    -0.532 OA
ENDBRANCH  19  21
ENDBRANCH  14  15
ENDBRANCH  11  14
ENDBRANCH   7   8
BRANCH   4  24
ATOM     24  C   UNL d   1      21.838 -18.200  -0.377  0.00  0.00     0.252 C 
ATOM     25  O   UNL d   1      21.077 -17.833  -1.266  0.00  0.00    -0.268 OA
ATOM     26  N   UNL d   1      21.447 -18.950   0.698  0.00  0.00    -0.352 N 
ATOM     27  H   UNL d   1      22.145 -19.202   1.377  0.00  0.00     0.163 HD
BRANCH  26  28
ATOM     28  C   UNL d   1      20.096 -19.404   0.977  0.00  0.00     0.084 C 
ATOM     29  C   UNL d   1      19.658 -20.476  -0.014  0.00  0.00     0.025 C 
ATOM     30  C   UNL d   1      18.374 -21.032   0.587  0.00  0.00     0.002 C 
ATOM     31  C   UNL d   1      18.507 -20.857   2.099  0.00  0.00     0.002 C 
ATOM     32  C   UNL d   1      19.792 -20.066   2.322  0.00  0.00     0.025 C 
ENDBRANCH  26  28
ENDBRANCH   4  24
TORSDOF 6
ENDMDL
MODEL 9
REMARK VINA RESULT:    -9.671      4.402      6.528
REMARK INTER + INTRA:         -12.321
REMARK INTER:                 -11.461
REMARK INTRA:                  -0.860
REMARK CONF_INDEPENDENT:        1.790
REMARK UNBOUND:                -0.860
REMARK  6 active torsions:
REMARK  status: ('A' for Active; 'I' for Inactive)
REMARK    1  A    between atoms: C_4  and  C_5 
REMARK       I    between atoms: C_5  and  N_7 
REMARK    2  A    between atoms: N_7  and  C_8 
REMARK    3  A    between atoms: C_15  and  N_16 
REMARK       I    between atoms: N_16  and  C_17 
REMARK       I    between atoms: C_17  and  N_19 
REMARK    4  A    between atoms: N_19  and  C_20 
REMARK    5  A    between atoms: C_20  and  C_21 
REMARK    6  A    between atoms: C_25  and  N_26 
ROOT
ATOM      1  C   UNL d   1      26.400 -18.588   0.469  0.00  0.00     0.050 C 
ATOM      2  C   UNL d   1      25.463 -17.621  -0.054  0.00  0.00    -0.034 C 
ATOM      3  C   UNL d   1      24.153 -18.091   0.088  0.00  0.00     0.026 C 
ATOM      4  C   UNL d   1      23.132 -17.473  -0.567  0.00  0.00     0.032 C 
ATOM      5  C   UNL d   1      23.472 -16.323  -1.292  0.00  0.00     0.019 C 
ATOM      6  C   UNL d   1      24.810 -15.790  -1.317  0.00  0.00     0.031 C 
ATOM      7  C   UNL d   1      25.856 -16.420  -0.650  0.00  0.00     0.042 C 
ENDROOT
BRANCH   7   8
ATOM      8  N   UNL d   1      27.248 -15.937  -0.669  0.00  0.00    -0.308 N 
ATOM      9  C   UNL d   1      27.942 -15.631  -1.857  0.00  0.00     0.321 C 
ATOM     10  O   UNL d   1      27.687 -16.164  -2.936  0.00  0.00    -0.247 OA
ATOM     11  N   UNL d   1      28.861 -14.581  -1.792  0.00  0.00    -0.339 N 
ATOM     12  H   UNL d   1      29.632 -14.818  -1.172  0.00  0.00     0.164 HD
ATOM     13  H   UNL d   1      27.829 -16.296   0.078  0.00  0.00     0.170 HD
BRANCH  11  14
ATOM     14  C   UNL d   1      29.360 -13.797  -3.019  0.00  0.00     0.163 C 
BRANCH  14  15
ATOM     15  C   UNL d   1      29.527 -14.491  -4.412  0.00  0.00    -0.038 C 
ATOM     16  C   UNL d   1      29.203 -13.929  -5.644  0.00  0.00     0.009 C 
ATOM     17  C   UNL d   1      29.383 -14.665  -6.849  0.00  0.00     0.003 C 
ATOM     18  C   UNL d   1      29.971 -15.932  -6.885  0.00  0.00     0.036 C 
ATOM     19  C   UNL d   1      30.369 -16.506  -5.711  0.00  0.00     0.103 C 
ATOM     20  C   UNL d   1      30.030 -15.792  -4.529  0.00  0.00     0.045 C 
BRANCH  19  21
ATOM     21  N   UNL d   1      31.055 -17.838  -5.870  0.00  0.00    -0.116 N 
ATOM     22  O   UNL d   1      32.232 -17.907  -5.481  0.00  0.00    -0.532 OA
ATOM     23  O   UNL d   1      30.417 -18.827  -6.257  0.00  0.00    -0.532 OA
ENDBRANCH  19  21
ENDBRANCH  14  15
ENDBRANCH  11  14
ENDBRANCH   7   8
BRANCH   4  24
ATOM     24  C   UNL d   1      21.818 -18.174  -0.459  0.00  0.00     0.252 C 
ATOM     25  O   UNL d   1      20.825 -17.663  -0.968  0.00  0.00    -0.268 OA
ATOM     26  N   UNL d   1      21.799 -19.359   0.223  0.00  0.00    -0.352 N 
ATOM     27  H   UNL d   1      22.666 -19.697   0.605  0.00  0.00     0.163 HD
BRANCH  26  28
ATOM     28  C   UNL d   1      20.629 -20.179   0.478  0.00  0.00     0.084 C 
ATOM     29  C   UNL d   1      20.010 -19.854   1.832  0.00  0.00     0.025 C 
ATOM     30  C   UNL d   1      18.667 -20.571   1.807  0.00  0.00     0.002 C 
ATOM     31  C   UNL d   1      18.245 -20.623   0.340  0.00  0.00     0.002 C 
ATOM     32  C   UNL d   1      19.423 -20.075  -0.458  0.00  0.00     0.025 C 
ENDBRANCH  26  28
ENDBRANCH   4  24
TORSDOF 6
ENDMDL
