MODEL 1
REMARK VINA RESULT:    -8.415      0.000      0.000
REMARK INTER + INTRA:         -11.275
REMARK INTER:                  -9.608
REMARK INTRA:                  -1.668
REMARK CONF_INDEPENDENT:        1.193
REMARK UNBOUND:                -1.668
REMARK  4 active torsions:
REMARK  status: ('A' for Active; 'I' for Inactive)
REMARK    1  A    between atoms: C_5  and  C_6 
REMARK       I    between atoms: C_6  and  N_8 
REMARK    2  A    between atoms: N_8  and  N_9 
REMARK       I    between atoms: N_9  and  C_10 
REMARK    3  A    between atoms: C_12  and  C_10 
REMARK    4  A    between atoms: C_18  and  O_19 
ROOT
ATOM      1  C   UNL d   1      24.711 -17.919  -0.263  0.00  0.00     0.272 C 
ATOM      2  O   UNL d   1      25.001 -18.574   0.746  0.00  0.00    -0.266 OA
ATOM      3  N   UNL d   1      23.450 -17.991  -0.861  0.00  0.00    -0.263 N 
ATOM      4  H   UNL d   1      23.162 -17.474  -1.685  0.00  0.00     0.190 HD
ENDROOT
BRANCH   3   5
ATOM      5  N   UNL d   1      22.489 -18.893  -0.359  0.00  0.00    -0.267 N 
ATOM      6  C   UNL d   1      21.116 -18.686  -0.563  0.00  0.00     0.240 C 
ATOM      7  O   UNL d   1      20.680 -17.764  -1.256  0.00  0.00    -0.271 OA
ATOM      8  H   UNL d   1      22.863 -19.633   0.233  0.00  0.00     0.190 HD
BRANCH   6   9
ATOM      9  C   UNL d   1      20.232 -19.753   0.117  0.00  0.00     0.083 C 
ATOM     10  C   UNL d   1      18.846 -20.098  -0.498  0.00  0.00     0.041 C 
ATOM     11  C   UNL d   1      18.027 -20.993   0.423  0.00  0.00    -0.030 C 
ATOM     12  C   UNL d   1      18.308 -21.161   1.726  0.00  0.00    -0.031 C 
ATOM     13  C   UNL d   1      19.429 -20.452   2.413  0.00  0.00     0.027 C 
ATOM     14  C   UNL d   1      20.008 -19.325   1.574  0.00  0.00     0.018 C 
ENDBRANCH   6   9
ENDBRANCH   3   5
BRANCH   1  15
ATOM     15  C   UNL d   1      25.752 -17.017  -0.871  0.00  0.00     0.066 A 
ATOM     16  C   UNL d   1      27.120 -17.211  -0.625  0.00  0.00     0.020 A 
ATOM     17  C   UNL d   1      28.092 -16.375  -1.198  0.00  0.00     0.008 A 
ATOM     18  C   UNL d   1      27.723 -15.326  -2.042  0.00  0.00    -0.059 A 
ATOM     19  C   UNL d   1      28.742 -14.431  -2.688  0.00  0.00     0.048 C 
ATOM     20  C   UNL d   1      26.364 -15.113  -2.288  0.00  0.00     0.044 A 
ATOM     21  C   UNL d   1      25.392 -15.939  -1.706  0.00  0.00     0.082 A 
BRANCH  21  22
ATOM     22  O   UNL d   1      24.099 -15.603  -2.016  0.00  0.00    -0.360 OA
ATOM     23  H   UNL d   1      24.117 -14.876  -2.674  0.00  0.00     0.217 HD
ENDBRANCH  21  22
ENDBRANCH   1  15
TORSDOF 4
ENDMDL
MODEL 2
REMARK VINA RESULT:    -8.354      0.922      1.518
REMARK INTER + INTRA:         -11.228
REMARK INTER:                  -9.547
REMARK INTRA:                  -1.681
REMARK CONF_INDEPENDENT:        1.193
REMARK UNBOUND:                -1.681
REMARK  4 active torsions:
REMARK  status: ('A' for Active; 'I' for Inactive)
REMARK    1  A    between atoms: C_5  and  C_6 
REMARK       I    between atoms: C_6  and  N_8 
REMARK    2  A    between atoms: N_8  and  N_9 
REMARK       I    between atoms: N_9  and  C_10 
REMARK    3  A    between atoms: C_12  and  C_10 
REMARK    4  A    between atoms: C_18  and  O_19 
ROOT
ATOM      1  C   UNL d   1      24.672 -17.843  -0.324  0.00  0.00     0.272 C 
ATOM      2  O   UNL d   1      25.020 -18.570   0.614  0.00  0.00    -0.266 OA
ATOM      3  N   UNL d   1      23.375 -17.864  -0.842  0.00  0.00    -0.263 N 
ATOM      4  H   UNL d   1      23.038 -17.288  -1.606  0.00  0.00     0.190 HD
ENDROOT
BRANCH   3   5
ATOM      5  N   UNL d   1      22.439 -18.796  -0.343  0.00  0.00    -0.267 N 
ATOM      6  C   UNL d   1      21.062 -18.638  -0.565  0.00  0.00     0.240 C 
ATOM      7  O   UNL d   1      20.602 -17.737  -1.270  0.00  0.00    -0.271 OA
ATOM      8  H   UNL d   1      22.832 -19.518   0.259  0.00  0.00     0.190 HD
BRANCH   6   9
ATOM      9  C   UNL d   1      20.207 -19.729   0.114  0.00  0.00     0.083 C 
ATOM     10  C   UNL d   1      18.819 -20.092  -0.486  0.00  0.00     0.041 C 
ATOM     11  C   UNL d   1      18.030 -21.013   0.434  0.00  0.00    -0.030 C 
ATOM     12  C   UNL d   1      18.333 -21.193   1.730  0.00  0.00    -0.031 C 
ATOM     13  C   UNL d   1      19.451 -20.474   2.410  0.00  0.00     0.027 C 
ATOM     14  C   UNL d   1      19.998 -19.325   1.579  0.00  0.00     0.018 C 
ENDBRANCH   6   9
ENDBRANCH   3   5
BRANCH   1  15
ATOM     15  C   UNL d   1      25.680 -16.904  -0.932  0.00  0.00     0.066 A 
ATOM     16  C   UNL d   1      25.279 -15.805  -1.707  0.00  0.00     0.020 A 
ATOM     17  C   UNL d   1      26.219 -14.924  -2.267  0.00  0.00     0.008 A 
ATOM     18  C   UNL d   1      27.587 -15.113  -2.060  0.00  0.00    -0.059 A 
ATOM     19  C   UNL d   1      28.613 -14.174  -2.627  0.00  0.00     0.048 C 
ATOM     20  C   UNL d   1      28.002 -16.210  -1.301  0.00  0.00     0.044 A 
ATOM     21  C   UNL d   1      27.065 -17.097  -0.751  0.00  0.00     0.082 A 
BRANCH  21  22
ATOM     22  O   UNL d   1      27.612 -18.139  -0.046  0.00  0.00    -0.360 OA
ATOM     23  H   UNL d   1      27.150 -18.205   0.817  0.00  0.00     0.217 HD
ENDBRANCH  21  22
ENDBRANCH   1  15
TORSDOF 4
ENDMDL
MODEL 3
REMARK VINA RESULT:    -7.767      1.179      8.182
REMARK INTER + INTRA:         -10.663
REMARK INTER:                  -8.960
REMARK INTRA:                  -1.703
REMARK CONF_INDEPENDENT:        1.193
REMARK UNBOUND:                -1.703
REMARK  4 active torsions:
REMARK  status: ('A' for Active; 'I' for Inactive)
REMARK    1  A    between atoms: C_5  and  C_6 
REMARK       I    between atoms: C_6  and  N_8 
REMARK    2  A    between atoms: N_8  and  N_9 
REMARK       I    between atoms: N_9  and  C_10 
REMARK    3  A    between atoms: C_12  and  C_10 
REMARK    4  A    between atoms: C_18  and  O_19 
ROOT
ATOM      1  C   UNL d   1      21.998 -18.265  -0.259  0.00  0.00     0.272 C 
ATOM      2  O   UNL d   1      21.759 -17.402  -1.113  0.00  0.00    -0.266 OA
ATOM      3  N   UNL d   1      23.280 -18.470   0.256  0.00  0.00    -0.263 N 
ATOM      4  H   UNL d   1      23.527 -19.160   0.957  0.00  0.00     0.190 HD
ENDROOT
BRANCH   3   5
ATOM      5  N   UNL d   1      24.366 -17.732  -0.261  0.00  0.00    -0.267 N 
ATOM      6  C   UNL d   1      25.641 -17.807   0.319  0.00  0.00     0.240 C 
ATOM      7  O   UNL d   1      25.905 -18.575   1.247  0.00  0.00    -0.271 OA
ATOM      8  H   UNL d   1      24.126 -17.083  -1.009  0.00  0.00     0.190 HD
BRANCH   6   9
ATOM      9  C   UNL d   1      26.673 -16.878  -0.357  0.00  0.00     0.083 C 
ATOM     10  C   UNL d   1      26.329 -16.229  -1.727  0.00  0.00     0.041 C 
ATOM     11  C   UNL d   1      27.539 -15.537  -2.343  0.00  0.00    -0.030 C 
ATOM     12  C   UNL d   1      28.800 -15.764  -1.939  0.00  0.00    -0.031 C 
ATOM     13  C   UNL d   1      29.146 -16.752  -0.873  0.00  0.00     0.027 C 
ATOM     14  C   UNL d   1      27.982 -17.662  -0.520  0.00  0.00     0.018 C 
ENDBRANCH   6   9
ENDBRANCH   3   5
BRANCH   1  15
ATOM     15  C   UNL d   1      20.868 -19.127   0.242  0.00  0.00     0.066 A 
ATOM     16  C   UNL d   1      20.655 -19.325   1.615  0.00  0.00     0.020 A 
ATOM     17  C   UNL d   1      19.597 -20.121   2.082  0.00  0.00     0.008 A 
ATOM     18  C   UNL d   1      18.716 -20.735   1.189  0.00  0.00    -0.059 A 
ATOM     19  C   UNL d   1      17.563 -21.573   1.661  0.00  0.00     0.048 C 
ATOM     20  C   UNL d   1      18.923 -20.557  -0.181  0.00  0.00     0.044 A 
ATOM     21  C   UNL d   1      19.987 -19.772  -0.649  0.00  0.00     0.082 A 
BRANCH  21  22
ATOM     22  O   UNL d   1      20.083 -19.700  -2.016  0.00  0.00    -0.360 OA
ATOM     23  H   UNL d   1      20.805 -19.075  -2.242  0.00  0.00     0.217 HD
ENDBRANCH  21  22
ENDBRANCH   1  15
TORSDOF 4
ENDMDL
MODEL 4
REMARK VINA RESULT:    -7.079      1.544      8.223
REMARK INTER + INTRA:          -9.993
REMARK INTER:                  -8.273
REMARK INTRA:                  -1.720
REMARK CONF_INDEPENDENT:        1.193
REMARK UNBOUND:                -1.720
REMARK  4 active torsions:
REMARK  status: ('A' for Active; 'I' for Inactive)
REMARK    1  A    between atoms: C_5  and  C_6 
REMARK       I    between atoms: C_6  and  N_8 
REMARK    2  A    between atoms: N_8  and  N_9 
REMARK       I    between atoms: N_9  and  C_10 
REMARK    3  A    between atoms: C_12  and  C_10 
REMARK    4  A    between atoms: C_18  and  O_19 
ROOT
ATOM      1  C   UNL d   1      22.512 -18.566  -1.278  0.00  0.00     0.272 C 
ATOM      2  O   UNL d   1      22.787 -19.216  -2.294  0.00  0.00    -0.266 OA
ATOM      3  N   UNL d   1      23.226 -17.425  -0.907  0.00  0.00    -0.263 N 
ATOM      4  H   UNL d   1      23.039 -16.856  -0.088  0.00  0.00     0.190 HD
ENDROOT
BRANCH   3   5
ATOM      5  N   UNL d   1      24.352 -17.030  -1.660  0.00  0.00    -0.267 N 
ATOM      6  C   UNL d   1      25.246 -16.059  -1.184  0.00  0.00     0.240 C 
ATOM      7  O   UNL d   1      25.149 -15.562  -0.059  0.00  0.00    -0.271 OA
ATOM      8  H   UNL d   1      24.404 -17.430  -2.596  0.00  0.00     0.190 HD
BRANCH   6   9
ATOM      9  C   UNL d   1      26.374 -15.727  -2.183  0.00  0.00     0.083 C 
ATOM     10  C   UNL d   1      27.366 -14.574  -1.857  0.00  0.00     0.041 C 
ATOM     11  C   UNL d   1      28.258 -14.244  -3.046  0.00  0.00    -0.030 C 
ATOM     12  C   UNL d   1      27.987 -14.639  -4.301  0.00  0.00    -0.031 C 
ATOM     13  C   UNL d   1      26.757 -15.405  -4.663  0.00  0.00     0.027 C 
ATOM     14  C   UNL d   1      25.731 -15.426  -3.543  0.00  0.00     0.018 C 
ENDBRANCH   6   9
ENDBRANCH   3   5
BRANCH   1  15
ATOM     15  C   UNL d   1      21.369 -19.021  -0.409  0.00  0.00     0.066 A 
ATOM     16  C   UNL d   1      21.444 -18.950   0.991  0.00  0.00     0.020 A 
ATOM     17  C   UNL d   1      20.375 -19.367   1.802  0.00  0.00     0.008 A 
ATOM     18  C   UNL d   1      19.197 -19.857   1.234  0.00  0.00    -0.059 A 
ATOM     19  C   UNL d   1      18.030 -20.287   2.076  0.00  0.00     0.048 C 
ATOM     20  C   UNL d   1      19.113 -19.945  -0.157  0.00  0.00     0.044 A 
ATOM     21  C   UNL d   1      20.184 -19.541  -0.968  0.00  0.00     0.082 A 
BRANCH  21  22
ATOM     22  O   UNL d   1      19.972 -19.700  -2.314  0.00  0.00    -0.360 OA
ATOM     23  H   UNL d   1      20.842 -19.698  -2.766  0.00  0.00     0.217 HD
ENDBRANCH  21  22
ENDBRANCH   1  15
TORSDOF 4
ENDMDL
MODEL 5
REMARK VINA RESULT:    -6.328      4.296      6.690
REMARK INTER + INTRA:          -9.152
REMARK INTER:                  -7.521
REMARK INTRA:                  -1.631
REMARK CONF_INDEPENDENT:        1.193
REMARK UNBOUND:                -1.631
REMARK  4 active torsions:
REMARK  status: ('A' for Active; 'I' for Inactive)
REMARK    1  A    between atoms: C_5  and  C_6 
REMARK       I    between atoms: C_6  and  N_8 
REMARK    2  A    between atoms: N_8  and  N_9 
REMARK       I    between atoms: N_9  and  C_10 
REMARK    3  A    between atoms: C_12  and  C_10 
REMARK    4  A    between atoms: C_18  and  O_19 
ROOT
ATOM      1  C   UNL d   1      27.197 -14.189  -5.356  0.00  0.00     0.272 C 
ATOM      2  O   UNL d   1      27.792 -15.240  -5.624  0.00  0.00    -0.266 OA
ATOM      3  N   UNL d   1      26.329 -14.081  -4.268  0.00  0.00    -0.263 N 
ATOM      4  H   UNL d   1      25.820 -13.244  -4.004  0.00  0.00     0.190 HD
ENDROOT
BRANCH   3   5
ATOM      5  N   UNL d   1      26.048 -15.220  -3.483  0.00  0.00    -0.267 N 
ATOM      6  C   UNL d   1      24.872 -15.310  -2.722  0.00  0.00     0.240 C 
ATOM      7  O   UNL d   1      23.989 -14.450  -2.760  0.00  0.00    -0.271 OA
ATOM      8  H   UNL d   1      26.798 -15.908  -3.441  0.00  0.00     0.190 HD
BRANCH   6   9
ATOM      9  C   UNL d   1      24.784 -16.607  -1.889  0.00  0.00     0.083 C 
ATOM     10  C   UNL d   1      23.437 -16.985  -1.210  0.00  0.00     0.041 C 
ATOM     11  C   UNL d   1      23.598 -18.161  -0.255  0.00  0.00    -0.030 C 
ATOM     12  C   UNL d   1      24.788 -18.575   0.207  0.00  0.00    -0.031 C 
ATOM     13  C   UNL d   1      26.074 -17.896  -0.136  0.00  0.00     0.027 C 
ATOM     14  C   UNL d   1      25.862 -16.545  -0.799  0.00  0.00     0.018 C 
ENDBRANCH   6   9
ENDBRANCH   3   5
BRANCH   1  15
ATOM     15  C   UNL d   1      27.413 -12.985  -6.235  0.00  0.00     0.066 A 
ATOM     16  C   UNL d   1      28.402 -12.976  -7.230  0.00  0.00     0.020 A 
ATOM     17  C   UNL d   1      28.598 -11.856  -8.055  0.00  0.00     0.008 A 
ATOM     18  C   UNL d   1      27.802 -10.717  -7.914  0.00  0.00    -0.059 A 
ATOM     19  C   UNL d   1      27.973  -9.515  -8.798  0.00  0.00     0.048 C 
ATOM     20  C   UNL d   1      26.821 -10.707  -6.920  0.00  0.00     0.044 A 
ATOM     21  C   UNL d   1      26.633 -11.820  -6.086  0.00  0.00     0.082 A 
BRANCH  21  22
ATOM     22  O   UNL d   1      25.650 -11.665  -5.142  0.00  0.00    -0.360 OA
ATOM     23  H   UNL d   1      24.795 -11.534  -5.605  0.00  0.00     0.217 HD
ENDBRANCH  21  22
ENDBRANCH   1  15
TORSDOF 4
ENDMDL
MODEL 6
REMARK VINA RESULT:    -6.287      5.443      8.036
REMARK INTER + INTRA:          -9.174
REMARK INTER:                  -7.481
REMARK INTRA:                  -1.694
REMARK CONF_INDEPENDENT:        1.193
REMARK UNBOUND:                -1.694
REMARK  4 active torsions:
REMARK  status: ('A' for Active; 'I' for Inactive)
REMARK    1  A    between atoms: C_5  and  C_6 
REMARK       I    between atoms: C_6  and  N_8 
REMARK    2  A    between atoms: N_8  and  N_9 
REMARK       I    between atoms: N_9  and  C_10 
REMARK    3  A    between atoms: C_12  and  C_10 
REMARK    4  A    between atoms: C_18  and  O_19 
ROOT
ATOM      1  C   UNL d   1      25.871 -10.945  -3.397  0.00  0.00     0.272 C 
ATOM      2  O   UNL d   1      26.525 -10.823  -2.353  0.00  0.00    -0.266 OA
ATOM      3  N   UNL d   1      25.326 -12.167  -3.796  0.00  0.00    -0.263 N 
ATOM      4  H   UNL d   1      24.781 -12.319  -4.638  0.00  0.00     0.190 HD
ENDROOT
BRANCH   3   5
ATOM      5  N   UNL d   1      25.584 -13.329  -3.037  0.00  0.00    -0.267 N 
ATOM      6  C   UNL d   1      25.242 -14.603  -3.514  0.00  0.00     0.240 C 
ATOM      7  O   UNL d   1      24.781 -14.788  -4.642  0.00  0.00    -0.271 OA
ATOM      8  H   UNL d   1      25.941 -13.157  -2.098  0.00  0.00     0.190 HD
BRANCH   6   9
ATOM      9  C   UNL d   1      25.554 -15.733  -2.509  0.00  0.00     0.083 C 
ATOM     10  C   UNL d   1      24.403 -16.320  -1.644  0.00  0.00     0.041 C 
ATOM     11  C   UNL d   1      24.931 -17.253  -0.561  0.00  0.00    -0.030 C 
ATOM     12  C   UNL d   1      26.218 -17.281  -0.179  0.00  0.00    -0.031 C 
ATOM     13  C   UNL d   1      27.255 -16.368  -0.747  0.00  0.00     0.027 C 
ATOM     14  C   UNL d   1      26.652 -15.235  -1.560  0.00  0.00     0.018 C 
ENDBRANCH   6   9
ENDBRANCH   3   5
BRANCH   1  15
ATOM     15  C   UNL d   1      25.659  -9.736  -4.269  0.00  0.00     0.066 A 
ATOM     16  C   UNL d   1      25.689  -8.438  -3.737  0.00  0.00     0.020 A 
ATOM     17  C   UNL d   1      25.500  -7.310  -4.551  0.00  0.00     0.008 A 
ATOM     18  C   UNL d   1      25.284  -7.448  -5.924  0.00  0.00    -0.059 A 
ATOM     19  C   UNL d   1      25.102  -6.258  -6.823  0.00  0.00     0.048 C 
ATOM     20  C   UNL d   1      25.239  -8.735  -6.466  0.00  0.00     0.044 A 
ATOM     21  C   UNL d   1      25.415  -9.863  -5.652  0.00  0.00     0.082 A 
BRANCH  21  22
ATOM     22  O   UNL d   1      25.327 -11.062  -6.312  0.00  0.00    -0.360 OA
ATOM     23  H   UNL d   1      24.521 -11.527  -6.003  0.00  0.00     0.217 HD
ENDBRANCH  21  22
ENDBRANCH   1  15
TORSDOF 4
ENDMDL
MODEL 7
REMARK VINA RESULT:    -5.912      3.071      9.118
REMARK INTER + INTRA:          -8.801
REMARK INTER:                  -7.105
REMARK INTRA:                  -1.696
REMARK CONF_INDEPENDENT:        1.193
REMARK UNBOUND:                -1.696
REMARK  4 active torsions:
REMARK  status: ('A' for Active; 'I' for Inactive)
REMARK    1  A    between atoms: C_5  and  C_6 
REMARK       I    between atoms: C_6  and  N_8 
REMARK    2  A    between atoms: N_8  and  N_9 
REMARK       I    between atoms: N_9  and  C_10 
REMARK    3  A    between atoms: C_12  and  C_10 
REMARK    4  A    between atoms: C_18  and  O_19 
ROOT
ATOM      1  C   UNL d   1      25.909 -16.348  -1.693  0.00  0.00     0.272 C 
ATOM      2  O   UNL d   1      26.885 -16.118  -0.969  0.00  0.00    -0.266 OA
ATOM      3  N   UNL d   1      25.891 -16.019  -3.050  0.00  0.00    -0.263 N 
ATOM      4  H   UNL d   1      25.119 -16.189  -3.685  0.00  0.00     0.190 HD
ENDROOT
BRANCH   3   5
ATOM      5  N   UNL d   1      26.985 -15.329  -3.615  0.00  0.00    -0.267 N 
ATOM      6  C   UNL d   1      27.118 -15.186  -5.004  0.00  0.00     0.240 C 
ATOM      7  O   UNL d   1      26.259 -15.575  -5.798  0.00  0.00    -0.271 OA
ATOM      8  H   UNL d   1      27.699 -15.037  -2.949  0.00  0.00     0.190 HD
BRANCH   6   9
ATOM      9  C   UNL d   1      28.412 -14.452  -5.419  0.00  0.00     0.083 C 
ATOM     10  C   UNL d   1      28.345 -13.352  -6.516  0.00  0.00     0.041 C 
ATOM     11  C   UNL d   1      29.734 -12.905  -6.952  0.00  0.00    -0.030 C 
ATOM     12  C   UNL d   1      30.848 -13.610  -6.694  0.00  0.00    -0.031 C 
ATOM     13  C   UNL d   1      30.831 -14.926  -5.988  0.00  0.00     0.027 C 
ATOM     14  C   UNL d   1      29.432 -15.507  -5.869  0.00  0.00     0.018 C 
ENDBRANCH   6   9
ENDBRANCH   3   5
BRANCH   1  15
ATOM     15  C   UNL d   1      24.694 -17.004  -1.089  0.00  0.00     0.066 A 
ATOM     16  C   UNL d   1      23.410 -16.467  -1.270  0.00  0.00     0.020 A 
ATOM     17  C   UNL d   1      22.276 -17.082  -0.715  0.00  0.00     0.008 A 
ATOM     18  C   UNL d   1      22.394 -18.258   0.029  0.00  0.00    -0.059 A 
ATOM     19  C   UNL d   1      21.196 -18.951   0.614  0.00  0.00     0.048 C 
ATOM     20  C   UNL d   1      23.667 -18.798   0.227  0.00  0.00     0.044 A 
ATOM     21  C   UNL d   1      24.802 -18.177  -0.316  0.00  0.00     0.082 A 
BRANCH  21  22
ATOM     22  O   UNL d   1      25.988 -18.804  -0.026  0.00  0.00    -0.360 OA
ATOM     23  H   UNL d   1      26.710 -18.144  -0.094  0.00  0.00     0.217 HD
ENDBRANCH  21  22
ENDBRANCH   1  15
TORSDOF 4
ENDMDL
MODEL 8
REMARK VINA RESULT:    -5.884      6.086      8.629
REMARK INTER + INTRA:          -8.759
REMARK INTER:                  -7.077
REMARK INTRA:                  -1.682
REMARK CONF_INDEPENDENT:        1.193
REMARK UNBOUND:                -1.682
REMARK  4 active torsions:
REMARK  status: ('A' for Active; 'I' for Inactive)
REMARK    1  A    between atoms: C_5  and  C_6 
REMARK       I    between atoms: C_6  and  N_8 
REMARK    2  A    between atoms: N_8  and  N_9 
REMARK       I    between atoms: N_9  and  C_10 
REMARK    3  A    between atoms: C_12  and  C_10 
REMARK    4  A    between atoms: C_18  and  O_19 
ROOT
ATOM      1  C   UNL d   1      27.840 -13.392   3.526  0.00  0.00     0.272 C 
ATOM      2  O   UNL d   1      27.239 -12.368   3.178  0.00  0.00    -0.266 OA
ATOM      3  N   UNL d   1      28.055 -14.462   2.655  0.00  0.00    -0.263 N 
ATOM      4  H   UNL d   1      28.543 -15.320   2.890  0.00  0.00     0.190 HD
ENDROOT
BRANCH   3   5
ATOM      5  N   UNL d   1      27.509 -14.426   1.355  0.00  0.00    -0.267 N 
ATOM      6  C   UNL d   1      27.436 -15.580   0.561  0.00  0.00     0.240 C 
ATOM      7  O   UNL d   1      27.762 -16.694   0.977  0.00  0.00    -0.271 OA
ATOM      8  H   UNL d   1      27.270 -13.495   1.016  0.00  0.00     0.190 HD
BRANCH   6   9
ATOM      9  C   UNL d   1      26.863 -15.315  -0.848  0.00  0.00     0.083 C 
ATOM     10  C   UNL d   1      26.627 -13.849  -1.310  0.00  0.00     0.041 C 
ATOM     11  C   UNL d   1      25.852 -13.789  -2.621  0.00  0.00    -0.030 C 
ATOM     12  C   UNL d   1      25.162 -14.829  -3.115  0.00  0.00    -0.031 C 
ATOM     13  C   UNL d   1      25.048 -16.139  -2.406  0.00  0.00     0.027 C 
ATOM     14  C   UNL d   1      25.531 -16.068  -0.967  0.00  0.00     0.018 C 
ENDBRANCH   6   9
ENDBRANCH   3   5
BRANCH   1  15
ATOM     15  C   UNL d   1      28.353 -13.491   4.939  0.00  0.00     0.066 A 
ATOM     16  C   UNL d   1      27.782 -12.739   5.977  0.00  0.00     0.020 A 
ATOM     17  C   UNL d   1      28.255 -12.837   7.296  0.00  0.00     0.008 A 
ATOM     18  C   UNL d   1      29.307 -13.698   7.615  0.00  0.00    -0.059 A 
ATOM     19  C   UNL d   1      29.818 -13.840   9.020  0.00  0.00     0.048 C 
ATOM     20  C   UNL d   1      29.894 -14.443   6.590  0.00  0.00     0.044 A 
ATOM     21  C   UNL d   1      29.431 -14.337   5.270  0.00  0.00     0.082 A 
BRANCH  21  22
ATOM     22  O   UNL d   1      30.111 -15.110   4.363  0.00  0.00    -0.360 OA
ATOM     23  H   UNL d   1      29.619 -15.950   4.243  0.00  0.00     0.217 HD
ENDBRANCH  21  22
ENDBRANCH   1  15
TORSDOF 4
ENDMDL
MODEL 9
REMARK VINA RESULT:    -5.797      5.185      9.584
REMARK INTER + INTRA:          -8.753
REMARK INTER:                  -6.990
REMARK INTRA:                  -1.763
REMARK CONF_INDEPENDENT:        1.193
REMARK UNBOUND:                -1.763
REMARK  4 active torsions:
REMARK  status: ('A' for Active; 'I' for Inactive)
REMARK    1  A    between atoms: C_5  and  C_6 
REMARK       I    between atoms: C_6  and  N_8 
REMARK    2  A    between atoms: N_8  and  N_9 
REMARK       I    between atoms: N_9  and  C_10 
REMARK    3  A    between atoms: C_12  and  C_10 
REMARK    4  A    between atoms: C_18  and  O_19 
ROOT
ATOM      1  C   UNL d   1      25.152 -14.140  -3.276  0.00  0.00     0.272 C 
ATOM      2  O   UNL d   1      24.416 -14.450  -4.222  0.00  0.00    -0.266 OA
ATOM      3  N   UNL d   1      25.676 -12.854  -3.130  0.00  0.00    -0.263 N 
ATOM      4  H   UNL d   1      26.280 -12.550  -2.374  0.00  0.00     0.190 HD
ENDROOT
BRANCH   3   5
ATOM      5  N   UNL d   1      25.434 -11.884  -4.125  0.00  0.00    -0.267 N 
ATOM      6  C   UNL d   1      25.961 -10.587  -4.024  0.00  0.00     0.240 C 
ATOM      7  O   UNL d   1      26.726 -10.250  -3.117  0.00  0.00    -0.271 OA
ATOM      8  H   UNL d   1      24.780 -12.169  -4.852  0.00  0.00     0.190 HD
BRANCH   6   9
ATOM      9  C   UNL d   1      25.530  -9.663  -5.183  0.00  0.00     0.083 C 
ATOM     10  C   UNL d   1      26.607  -8.830  -5.934  0.00  0.00     0.041 C 
ATOM     11  C   UNL d   1      25.978  -7.817  -6.881  0.00  0.00    -0.030 C 
ATOM     12  C   UNL d   1      24.689  -7.446  -6.810  0.00  0.00    -0.031 C 
ATOM     13  C   UNL d   1      23.752  -7.960  -5.767  0.00  0.00     0.027 C 
ATOM     14  C   UNL d   1      24.472  -8.690  -4.645  0.00  0.00     0.018 C 
ENDBRANCH   6   9
ENDBRANCH   3   5
BRANCH   1  15
ATOM     15  C   UNL d   1      25.498 -15.187  -2.250  0.00  0.00     0.066 A 
ATOM     16  C   UNL d   1      24.660 -16.289  -2.020  0.00  0.00     0.020 A 
ATOM     17  C   UNL d   1      24.987 -17.269  -1.069  0.00  0.00     0.008 A 
ATOM     18  C   UNL d   1      26.166 -17.179  -0.327  0.00  0.00    -0.059 A 
ATOM     19  C   UNL d   1      26.552 -18.225   0.680  0.00  0.00     0.048 C 
ATOM     20  C   UNL d   1      27.004 -16.081  -0.536  0.00  0.00     0.044 A 
ATOM     21  C   UNL d   1      26.673 -15.095  -1.476  0.00  0.00     0.082 A 
BRANCH  21  22
ATOM     22  O   UNL d   1      27.575 -14.065  -1.564  0.00  0.00    -0.360 OA
ATOM     23  H   UNL d   1      28.243 -14.178  -0.855  0.00  0.00     0.217 HD
ENDBRANCH  21  22
ENDBRANCH   1  15
TORSDOF 4
ENDMDL
