MODEL 1
REMARK VINA RESULT:   -10.995      0.000      0.000
REMARK INTER + INTRA:         -16.418
REMARK INTER:                 -14.575
REMARK INTRA:                  -1.843
REMARK CONF_INDEPENDENT:        3.580
REMARK UNBOUND:                -1.843
REMARK  12 active torsions:
REMARK  status: ('A' for Active; 'I' for Inactive)
REMARK    1  A    between atoms: C_2  and  C_4 
REMARK    2  A    between atoms: C_4  and  C_5 
REMARK    3  A    between atoms: C_5  and  N_6 
REMARK       I    between atoms: N_6  and  C_7 
REMARK    4  A    between atoms: N_6  and  C_20 
REMARK    5  A    between atoms: C_7  and  C_9 
REMARK    6  A    between atoms: C_9  and  C_10 
REMARK    7  A    between atoms: C_10  and  C_11 
REMARK    8  A    between atoms: C_11  and  N_12 
REMARK       I    between atoms: N_12  and  C_13 
REMARK    9  A    between atoms: C_13  and  C_15 
REMARK   10  A    between atoms: C_21  and  N_22 
REMARK   11  A    between atoms: N_23  and  C_24 
REMARK   12  A    between atoms: C_24  and  C_25 
ROOT
ATOM      1  N   UNL d   1      26.532 -15.694  -1.818  0.00  0.00    -0.310 N 
ATOM      2  C   UNL d   1      25.380 -16.504  -1.717  0.00  0.00     0.224 C 
ATOM      3  O   UNL d   1      24.885 -17.064  -2.703  0.00  0.00    -0.273 OA
ENDROOT
BRANCH   1   4
ATOM      4  C   UNL d   1      27.286 -15.036  -0.702  0.00  0.00     0.133 C 
BRANCH   4   5
ATOM      5  C   UNL d   1      26.656 -13.796  -0.123  0.00  0.00     0.024 C 
BRANCH   5   6
ATOM      6  C   UNL d   1      26.662 -13.540   1.362  0.00  0.00    -0.021 C 
ATOM      7  C   UNL d   1      27.918 -14.238   1.916  0.00  0.00     0.009 C 
ATOM      8  C   UNL d   1      26.721 -12.044   1.616  0.00  0.00     0.009 C 
ENDBRANCH   5   6
ENDBRANCH   4   5
ENDBRANCH   1   4
BRANCH   1   9
ATOM      9  C   UNL d   1      27.115 -15.521  -3.107  0.00  0.00     0.144 C 
ATOM     10  C   UNL d   1      28.371 -15.951  -3.431  0.00  0.00     0.117 C 
ATOM     11  N   UNL d   1      28.906 -15.685  -4.702  0.00  0.00    -0.284 N 
ATOM     12  C   UNL d   1      28.129 -15.151  -5.721  0.00  0.00     0.331 C 
ATOM     13  O   UNL d   1      28.393 -15.051  -6.919  0.00  0.00    -0.246 OA
ATOM     14  N   UNL d   1      26.913 -14.686  -5.381  0.00  0.00    -0.273 N 
ATOM     15  C   UNL d   1      26.306 -14.852  -4.188  0.00  0.00     0.279 C 
ATOM     16  H   UNL d   1      26.381 -14.288  -6.140  0.00  0.00     0.173 HD
ATOM     17  O   UNL d   1      25.153 -14.453  -4.059  0.00  0.00    -0.265 OA
BRANCH  10  18
ATOM     18  N   UNL d   1      29.101 -16.747  -2.535  0.00  0.00    -0.286 NA
ATOM     19  H   UNL d   1      28.689 -17.671  -2.438  0.00  0.00     0.125 HD
ATOM     20  H   UNL d   1      29.190 -16.355  -1.607  0.00  0.00     0.125 HD
ENDBRANCH  10  18
BRANCH  11  21
ATOM     21  C   UNL d   1      30.322 -16.049  -4.933  0.00  0.00     0.173 C 
BRANCH  21  22
ATOM     22  C   UNL d   1      30.604 -17.369  -5.595  0.00  0.00    -0.040 A 
ATOM     23  C   UNL d   1      30.460 -18.553  -4.863  0.00  0.00     0.009 A 
ATOM     24  C   UNL d   1      30.520 -19.781  -5.512  0.00  0.00     0.001 A 
ATOM     25  C   UNL d   1      30.696 -19.832  -6.895  0.00  0.00     0.000 A 
ATOM     26  C   UNL d   1      30.860 -18.659  -7.628  0.00  0.00     0.001 A 
ATOM     27  C   UNL d   1      30.867 -17.431  -6.975  0.00  0.00     0.009 A 
ENDBRANCH  21  22
ENDBRANCH  11  21
ENDBRANCH   1   9
BRANCH   2  28
ATOM     28  C   UNL d   1      24.657 -16.669  -0.395  0.00  0.00     0.105 C 
BRANCH  28  29
ATOM     29  C   UNL d   1      23.196 -17.044  -0.473  0.00  0.00     0.029 C 
BRANCH  29  30
ATOM     30  C   UNL d   1      23.081 -18.488  -0.953  0.00  0.00     0.123 C 
BRANCH  30  31
ATOM     31  N   UNL d   1      22.079 -19.201  -0.201  0.00  0.00    -0.357 N 
ATOM     32  C   UNL d   1      20.742 -18.950  -0.397  0.00  0.00     0.252 C 
ATOM     33  O   UNL d   1      20.330 -18.124  -1.209  0.00  0.00    -0.268 OA
ATOM     34  H   UNL d   1      22.362 -19.973   0.388  0.00  0.00     0.162 HD
BRANCH  32  35
ATOM     35  C   UNL d   1      19.837 -19.759   0.414  0.00  0.00     0.038 A 
ATOM     36  C   UNL d   1      19.844 -19.923   1.843  0.00  0.00     0.024 A 
ATOM     37  C   UNL d   1      18.787 -20.685   2.295  0.00  0.00     0.050 A 
ATOM     38  S   UNL d   1      17.814 -21.257   1.012  0.00  0.00    -0.113 SA
ATOM     39  C   UNL d   1      18.776 -20.449  -0.146  0.00  0.00     0.066 A 
ENDBRANCH  32  35
ENDBRANCH  30  31
ENDBRANCH  29  30
ENDBRANCH  28  29
ENDBRANCH   2  28
TORSDOF 12
ENDMDL
MODEL 2
REMARK VINA RESULT:    -9.536      1.908      2.812
REMARK INTER + INTRA:         -15.350
REMARK INTER:                 -13.116
REMARK INTRA:                  -2.234
REMARK CONF_INDEPENDENT:        3.580
REMARK UNBOUND:                -2.234
REMARK  12 active torsions:
REMARK  status: ('A' for Active; 'I' for Inactive)
REMARK    1  A    between atoms: C_2  and  C_4 
REMARK    2  A    between atoms: C_4  and  C_5 
REMARK    3  A    between atoms: C_5  and  N_6 
REMARK       I    between atoms: N_6  and  C_7 
REMARK    4  A    between atoms: N_6  and  C_20 
REMARK    5  A    between atoms: C_7  and  C_9 
REMARK    6  A    between atoms: C_9  and  C_10 
REMARK    7  A    between atoms: C_10  and  C_11 
REMARK    8  A    between atoms: C_11  and  N_12 
REMARK       I    between atoms: N_12  and  C_13 
REMARK    9  A    between atoms: C_13  and  C_15 
REMARK   10  A    between atoms: C_21  and  N_22 
REMARK   11  A    between atoms: N_23  and  C_24 
REMARK   12  A    between atoms: C_24  and  C_25 
ROOT
ATOM      1  N   UNL d   1      25.785 -14.971  -2.844  0.00  0.00    -0.310 N 
ATOM      2  C   UNL d   1      25.466 -16.096  -2.054  0.00  0.00     0.224 C 
ATOM      3  O   UNL d   1      26.321 -16.922  -1.713  0.00  0.00    -0.273 OA
ENDROOT
BRANCH   1   4
ATOM      4  C   UNL d   1      24.874 -13.850  -3.248  0.00  0.00     0.133 C 
BRANCH   4   5
ATOM      5  C   UNL d   1      25.233 -13.139  -4.527  0.00  0.00     0.024 C 
BRANCH   5   6
ATOM      6  C   UNL d   1      25.906 -11.791  -4.506  0.00  0.00    -0.021 C 
ATOM      7  C   UNL d   1      26.306 -11.530  -3.042  0.00  0.00     0.009 C 
ATOM      8  C   UNL d   1      27.132 -11.825  -5.401  0.00  0.00     0.009 C 
ENDBRANCH   5   6
ENDBRANCH   4   5
ENDBRANCH   1   4
BRANCH   1   9
ATOM      9  C   UNL d   1      27.139 -14.811  -3.261  0.00  0.00     0.144 C 
ATOM     10  C   UNL d   1      27.595 -15.170  -4.498  0.00  0.00     0.117 C 
ATOM     11  N   UNL d   1      28.958 -15.047  -4.815  0.00  0.00    -0.284 N 
ATOM     12  C   UNL d   1      29.845 -14.394  -3.969  0.00  0.00     0.331 C 
ATOM     13  O   UNL d   1      31.000 -14.035  -4.194  0.00  0.00    -0.246 OA
ATOM     14  N   UNL d   1      29.400 -14.088  -2.737  0.00  0.00    -0.273 N 
ATOM     15  C   UNL d   1      28.126 -14.190  -2.306  0.00  0.00     0.279 C 
ATOM     16  H   UNL d   1      30.073 -13.631  -2.142  0.00  0.00     0.173 HD
ATOM     17  O   UNL d   1      27.855 -13.780  -1.182  0.00  0.00    -0.265 OA
BRANCH  10  18
ATOM     18  N   UNL d   1      26.695 -15.574  -5.495  0.00  0.00    -0.286 NA
ATOM     19  H   UNL d   1      26.723 -14.949  -6.296  0.00  0.00     0.125 HD
ATOM     20  H   UNL d   1      25.732 -15.633  -5.190  0.00  0.00     0.125 HD
ENDBRANCH  10  18
BRANCH  11  21
ATOM     21  C   UNL d   1      29.404 -15.593  -6.116  0.00  0.00     0.173 C 
BRANCH  21  22
ATOM     22  C   UNL d   1      30.044 -16.953  -6.121  0.00  0.00    -0.040 A 
ATOM     23  C   UNL d   1      30.778 -17.366  -7.239  0.00  0.00     0.009 A 
ATOM     24  C   UNL d   1      31.539 -18.528  -7.178  0.00  0.00     0.001 A 
ATOM     25  C   UNL d   1      31.591 -19.267  -5.995  0.00  0.00     0.000 A 
ATOM     26  C   UNL d   1      30.848 -18.873  -4.885  0.00  0.00     0.001 A 
ATOM     27  C   UNL d   1      30.034 -17.748  -4.962  0.00  0.00     0.009 A 
ENDBRANCH  21  22
ENDBRANCH  11  21
ENDBRANCH   1   9
BRANCH   2  28
ATOM     28  C   UNL d   1      24.034 -16.377  -1.641  0.00  0.00     0.105 C 
BRANCH  28  29
ATOM     29  C   UNL d   1      23.845 -17.337  -0.490  0.00  0.00     0.029 C 
BRANCH  29  30
ATOM     30  C   UNL d   1      23.275 -18.647  -1.028  0.00  0.00     0.123 C 
BRANCH  30  31
ATOM     31  N   UNL d   1      22.263 -19.169  -0.143  0.00  0.00    -0.357 N 
ATOM     32  C   UNL d   1      21.008 -19.474  -0.614  0.00  0.00     0.252 C 
ATOM     33  O   UNL d   1      20.683 -19.327  -1.791  0.00  0.00    -0.268 OA
ATOM     34  H   UNL d   1      22.518 -19.421   0.802  0.00  0.00     0.162 HD
BRANCH  32  35
ATOM     35  C   UNL d   1      20.089 -20.014   0.382  0.00  0.00     0.038 A 
ATOM     36  C   UNL d   1      20.177 -19.901   1.813  0.00  0.00     0.024 A 
ATOM     37  C   UNL d   1      19.087 -20.449   2.456  0.00  0.00     0.050 A 
ATOM     38  S   UNL d   1      17.982 -21.154   1.360  0.00  0.00    -0.113 SA
ATOM     39  C   UNL d   1      18.934 -20.686   0.020  0.00  0.00     0.066 A 
ENDBRANCH  32  35
ENDBRANCH  30  31
ENDBRANCH  29  30
ENDBRANCH  28  29
ENDBRANCH   2  28
TORSDOF 12
ENDMDL
MODEL 3
REMARK VINA RESULT:    -9.456      2.575      6.254
REMARK INTER + INTRA:         -15.660
REMARK INTER:                 -13.036
REMARK INTRA:                  -2.624
REMARK CONF_INDEPENDENT:        3.580
REMARK UNBOUND:                -2.624
REMARK  12 active torsions:
REMARK  status: ('A' for Active; 'I' for Inactive)
REMARK    1  A    between atoms: C_2  and  C_4 
REMARK    2  A    between atoms: C_4  and  C_5 
REMARK    3  A    between atoms: C_5  and  N_6 
REMARK       I    between atoms: N_6  and  C_7 
REMARK    4  A    between atoms: N_6  and  C_20 
REMARK    5  A    between atoms: C_7  and  C_9 
REMARK    6  A    between atoms: C_9  and  C_10 
REMARK    7  A    between atoms: C_10  and  C_11 
REMARK    8  A    between atoms: C_11  and  N_12 
REMARK       I    between atoms: N_12  and  C_13 
REMARK    9  A    between atoms: C_13  and  C_15 
REMARK   10  A    between atoms: C_21  and  N_22 
REMARK   11  A    between atoms: N_23  and  C_24 
REMARK   12  A    between atoms: C_24  and  C_25 
ROOT
ATOM      1  N   UNL d   1      25.901 -15.241  -2.453  0.00  0.00    -0.310 N 
ATOM      2  C   UNL d   1      25.803 -15.804  -1.162  0.00  0.00     0.224 C 
ATOM      3  O   UNL d   1      25.833 -15.109  -0.139  0.00  0.00    -0.273 OA
ENDROOT
BRANCH   1   4
ATOM      4  C   UNL d   1      25.786 -15.950  -3.769  0.00  0.00     0.133 C 
BRANCH   4   5
ATOM      5  C   UNL d   1      26.526 -15.321  -4.922  0.00  0.00     0.024 C 
BRANCH   5   6
ATOM      6  C   UNL d   1      27.968 -14.906  -4.787  0.00  0.00    -0.021 C 
ATOM      7  C   UNL d   1      28.630 -15.940  -3.858  0.00  0.00     0.009 C 
ATOM      8  C   UNL d   1      28.625 -14.915  -6.156  0.00  0.00     0.009 C 
ENDBRANCH   5   6
ENDBRANCH   4   5
ENDBRANCH   1   4
BRANCH   1   9
ATOM      9  C   UNL d   1      26.052 -13.827  -2.554  0.00  0.00     0.144 C 
ATOM     10  C   UNL d   1      26.988 -13.117  -1.858  0.00  0.00     0.117 C 
ATOM     11  N   UNL d   1      27.034 -11.716  -1.955  0.00  0.00    -0.284 N 
ATOM     12  C   UNL d   1      26.270 -11.028  -2.888  0.00  0.00     0.331 C 
ATOM     13  O   UNL d   1      26.347  -9.847  -3.226  0.00  0.00    -0.246 OA
ATOM     14  N   UNL d   1      25.319 -11.727  -3.534  0.00  0.00    -0.273 N 
ATOM     15  C   UNL d   1      25.156 -13.065  -3.496  0.00  0.00     0.279 C 
ATOM     16  H   UNL d   1      24.770 -11.195  -4.190  0.00  0.00     0.173 HD
ATOM     17  O   UNL d   1      24.301 -13.570  -4.216  0.00  0.00    -0.265 OA
BRANCH  10  18
ATOM     18  N   UNL d   1      27.975 -13.782  -1.114  0.00  0.00    -0.286 NA
ATOM     19  H   UNL d   1      27.798 -14.782  -1.071  0.00  0.00     0.125 HD
ATOM     20  H   UNL d   1      28.074 -13.451  -0.163  0.00  0.00     0.125 HD
ENDBRANCH  10  18
BRANCH  11  21
ATOM     21  C   UNL d   1      27.974 -11.003  -1.061  0.00  0.00     0.173 C 
BRANCH  21  22
ATOM     22  C   UNL d   1      27.405 -10.333   0.158  0.00  0.00    -0.040 A 
ATOM     23  C   UNL d   1      26.909  -9.027   0.059  0.00  0.00     0.009 A 
ATOM     24  C   UNL d   1      26.201  -8.473   1.119  0.00  0.00     0.001 A 
ATOM     25  C   UNL d   1      25.962  -9.226   2.269  0.00  0.00     0.000 A 
ATOM     26  C   UNL d   1      26.468 -10.519   2.383  0.00  0.00     0.001 A 
ATOM     27  C   UNL d   1      27.233 -11.054   1.352  0.00  0.00     0.009 A 
ENDBRANCH  21  22
ENDBRANCH  11  21
ENDBRANCH   1   9
BRANCH   2  28
ATOM     28  C   UNL d   1      25.723 -17.307  -0.971  0.00  0.00     0.105 C 
BRANCH  28  29
ATOM     29  C   UNL d   1      24.592 -17.812  -0.107  0.00  0.00     0.029 C 
BRANCH  29  30
ATOM     30  C   UNL d   1      23.292 -17.152  -0.558  0.00  0.00     0.123 C 
BRANCH  30  31
ATOM     31  N   UNL d   1      22.150 -17.817   0.019  0.00  0.00    -0.357 N 
ATOM     32  C   UNL d   1      21.530 -18.850  -0.643  0.00  0.00     0.252 C 
ATOM     33  O   UNL d   1      21.905 -19.260  -1.739  0.00  0.00    -0.268 OA
ATOM     34  H   UNL d   1      21.881 -17.599   0.969  0.00  0.00     0.162 HD
BRANCH  32  35
ATOM     35  C   UNL d   1      20.402 -19.448   0.065  0.00  0.00     0.038 A 
ATOM     36  C   UNL d   1      19.239 -20.075  -0.502  0.00  0.00     0.024 A 
ATOM     37  C   UNL d   1      18.410 -20.621   0.455  0.00  0.00     0.050 A 
ATOM     38  S   UNL d   1      18.984 -20.335   2.039  0.00  0.00    -0.113 SA
ATOM     39  C   UNL d   1      20.366 -19.524   1.447  0.00  0.00     0.066 A 
ENDBRANCH  32  35
ENDBRANCH  30  31
ENDBRANCH  29  30
ENDBRANCH  28  29
ENDBRANCH   2  28
TORSDOF 12
ENDMDL
MODEL 4
REMARK VINA RESULT:    -9.455      3.278      6.527
REMARK INTER + INTRA:         -15.449
REMARK INTER:                 -13.034
REMARK INTRA:                  -2.414
REMARK CONF_INDEPENDENT:        3.580
REMARK UNBOUND:                -2.414
REMARK  12 active torsions:
REMARK  status: ('A' for Active; 'I' for Inactive)
REMARK    1  A    between atoms: C_2  and  C_4 
REMARK    2  A    between atoms: C_4  and  C_5 
REMARK    3  A    between atoms: C_5  and  N_6 
REMARK       I    between atoms: N_6  and  C_7 
REMARK    4  A    between atoms: N_6  and  C_20 
REMARK    5  A    between atoms: C_7  and  C_9 
REMARK    6  A    between atoms: C_9  and  C_10 
REMARK    7  A    between atoms: C_10  and  C_11 
REMARK    8  A    between atoms: C_11  and  N_12 
REMARK       I    between atoms: N_12  and  C_13 
REMARK    9  A    between atoms: C_13  and  C_15 
REMARK   10  A    between atoms: C_21  and  N_22 
REMARK   11  A    between atoms: N_23  and  C_24 
REMARK   12  A    between atoms: C_24  and  C_25 
ROOT
ATOM      1  N   UNL d   1      26.998 -15.167  -1.145  0.00  0.00    -0.310 N 
ATOM      2  C   UNL d   1      26.390 -16.229  -0.440  0.00  0.00     0.224 C 
ATOM      3  O   UNL d   1      26.448 -16.316   0.793  0.00  0.00    -0.273 OA
ENDROOT
BRANCH   1   4
ATOM      4  C   UNL d   1      26.928 -14.890  -2.616  0.00  0.00     0.133 C 
BRANCH   4   5
ATOM      5  C   UNL d   1      25.581 -14.467  -3.143  0.00  0.00     0.024 C 
BRANCH   5   6
ATOM      6  C   UNL d   1      25.344 -14.287  -4.620  0.00  0.00    -0.021 C 
ATOM      7  C   UNL d   1      25.639 -12.808  -4.929  0.00  0.00     0.009 C 
ATOM      8  C   UNL d   1      26.282 -15.196  -5.395  0.00  0.00     0.009 C 
ENDBRANCH   5   6
ENDBRANCH   4   5
ENDBRANCH   1   4
BRANCH   1   9
ATOM      9  C   UNL d   1      27.706 -14.186  -0.391  0.00  0.00     0.144 C 
ATOM     10  C   UNL d   1      28.643 -14.492   0.554  0.00  0.00     0.117 C 
ATOM     11  N   UNL d   1      29.251 -13.473   1.307  0.00  0.00    -0.284 N 
ATOM     12  C   UNL d   1      29.067 -12.132   0.997  0.00  0.00     0.331 C 
ATOM     13  O   UNL d   1      29.677 -11.153   1.424  0.00  0.00    -0.246 OA
ATOM     14  N   UNL d   1      28.109 -11.839   0.099  0.00  0.00    -0.273 N 
ATOM     15  C   UNL d   1      27.436 -12.728  -0.660  0.00  0.00     0.279 C 
ATOM     16  H   UNL d   1      27.988 -10.857  -0.091  0.00  0.00     0.173 HD
ATOM     17  O   UNL d   1      26.656 -12.301  -1.505  0.00  0.00    -0.265 OA
BRANCH  10  18
ATOM     18  N   UNL d   1      29.080 -15.815   0.718  0.00  0.00    -0.286 NA
ATOM     19  H   UNL d   1      28.345 -16.405   1.100  0.00  0.00     0.125 HD
ATOM     20  H   UNL d   1      29.890 -15.917   1.315  0.00  0.00     0.125 HD
ENDBRANCH  10  18
BRANCH  11  21
ATOM     21  C   UNL d   1      30.145 -13.886   2.412  0.00  0.00     0.173 C 
BRANCH  21  22
ATOM     22  C   UNL d   1      29.547 -14.000   3.787  0.00  0.00    -0.040 A 
ATOM     23  C   UNL d   1      28.261 -14.530   3.939  0.00  0.00     0.009 A 
ATOM     24  C   UNL d   1      27.779 -14.828   5.209  0.00  0.00     0.001 A 
ATOM     25  C   UNL d   1      28.586 -14.622   6.327  0.00  0.00     0.000 A 
ATOM     26  C   UNL d   1      29.860 -14.076   6.187  0.00  0.00     0.001 A 
ATOM     27  C   UNL d   1      30.322 -13.716   4.925  0.00  0.00     0.009 A 
ENDBRANCH  21  22
ENDBRANCH  11  21
ENDBRANCH   1   9
BRANCH   2  28
ATOM     28  C   UNL d   1      25.689 -17.354  -1.178  0.00  0.00     0.105 C 
BRANCH  28  29
ATOM     29  C   UNL d   1      24.550 -18.025  -0.449  0.00  0.00     0.029 C 
BRANCH  29  30
ATOM     30  C   UNL d   1      23.321 -17.122  -0.513  0.00  0.00     0.123 C 
BRANCH  30  31
ATOM     31  N   UNL d   1      22.166 -17.786   0.037  0.00  0.00    -0.357 N 
ATOM     32  C   UNL d   1      21.606 -18.866  -0.602  0.00  0.00     0.252 C 
ATOM     33  O   UNL d   1      22.049 -19.322  -1.654  0.00  0.00    -0.268 OA
ATOM     34  H   UNL d   1      21.841 -17.526   0.959  0.00  0.00     0.162 HD
BRANCH  32  35
ATOM     35  C   UNL d   1      20.455 -19.456   0.075  0.00  0.00     0.038 A 
ATOM     36  C   UNL d   1      19.251 -19.969  -0.520  0.00  0.00     0.024 A 
ATOM     37  C   UNL d   1      18.405 -20.544   0.405  0.00  0.00     0.050 A 
ATOM     38  S   UNL d   1      19.016 -20.422   1.996  0.00  0.00    -0.113 SA
ATOM     39  C   UNL d   1      20.434 -19.643   1.447  0.00  0.00     0.066 A 
ENDBRANCH  32  35
ENDBRANCH  30  31
ENDBRANCH  29  30
ENDBRANCH  28  29
ENDBRANCH   2  28
TORSDOF 12
ENDMDL
MODEL 5
REMARK VINA RESULT:    -9.405      2.615      4.841
REMARK INTER + INTRA:         -15.845
REMARK INTER:                 -12.985
REMARK INTRA:                  -2.860
REMARK CONF_INDEPENDENT:        3.580
REMARK UNBOUND:                -2.860
REMARK  12 active torsions:
REMARK  status: ('A' for Active; 'I' for Inactive)
REMARK    1  A    between atoms: C_2  and  C_4 
REMARK    2  A    between atoms: C_4  and  C_5 
REMARK    3  A    between atoms: C_5  and  N_6 
REMARK       I    between atoms: N_6  and  C_7 
REMARK    4  A    between atoms: N_6  and  C_20 
REMARK    5  A    between atoms: C_7  and  C_9 
REMARK    6  A    between atoms: C_9  and  C_10 
REMARK    7  A    between atoms: C_10  and  C_11 
REMARK    8  A    between atoms: C_11  and  N_12 
REMARK       I    between atoms: N_12  and  C_13 
REMARK    9  A    between atoms: C_13  and  C_15 
REMARK   10  A    between atoms: C_21  and  N_22 
REMARK   11  A    between atoms: N_23  and  C_24 
REMARK   12  A    between atoms: C_24  and  C_25 
ROOT
ATOM      1  N   UNL d   1      26.450 -15.301  -2.142  0.00  0.00    -0.310 N 
ATOM      2  C   UNL d   1      25.211 -15.930  -1.889  0.00  0.00     0.224 C 
ATOM      3  O   UNL d   1      24.134 -15.337  -2.030  0.00  0.00    -0.273 OA
ENDROOT
BRANCH   1   4
ATOM      4  C   UNL d   1      27.814 -15.922  -2.103  0.00  0.00     0.133 C 
BRANCH   4   5
ATOM      5  C   UNL d   1      28.819 -15.362  -3.075  0.00  0.00     0.024 C 
BRANCH   5   6
ATOM      6  C   UNL d   1      29.052 -16.013  -4.414  0.00  0.00    -0.021 C 
ATOM      7  C   UNL d   1      28.185 -15.243  -5.426  0.00  0.00     0.009 C 
ATOM      8  C   UNL d   1      30.523 -15.908  -4.777  0.00  0.00     0.009 C 
ENDBRANCH   5   6
ENDBRANCH   4   5
ENDBRANCH   1   4
BRANCH   1   9
ATOM      9  C   UNL d   1      26.433 -13.937  -2.558  0.00  0.00     0.144 C 
ATOM     10  C   UNL d   1      25.923 -13.520  -3.755  0.00  0.00     0.117 C 
ATOM     11  N   UNL d   1      26.003 -12.169  -4.128  0.00  0.00    -0.284 N 
ATOM     12  C   UNL d   1      26.423 -11.192  -3.234  0.00  0.00     0.331 C 
ATOM     13  O   UNL d   1      26.356  -9.968  -3.344  0.00  0.00    -0.246 OA
ATOM     14  N   UNL d   1      26.967 -11.615  -2.079  0.00  0.00    -0.273 N 
ATOM     15  C   UNL d   1      26.978 -12.886  -1.627  0.00  0.00     0.279 C 
ATOM     16  H   UNL d   1      27.278 -10.883  -1.460  0.00  0.00     0.173 HD
ATOM     17  O   UNL d   1      27.428 -13.103  -0.506  0.00  0.00    -0.265 OA
BRANCH  10  18
ATOM     18  N   UNL d   1      25.230 -14.417  -4.582  0.00  0.00    -0.286 NA
ATOM     19  H   UNL d   1      24.471 -13.956  -5.076  0.00  0.00     0.125 HD
ATOM     20  H   UNL d   1      24.836 -15.213  -4.097  0.00  0.00     0.125 HD
ENDBRANCH  10  18
BRANCH  11  21
ATOM     21  C   UNL d   1      25.567 -11.814  -5.497  0.00  0.00     0.173 C 
BRANCH  21  22
ATOM     22  C   UNL d   1      26.628 -11.438  -6.493  0.00  0.00    -0.040 A 
ATOM     23  C   UNL d   1      27.948 -11.854  -6.284  0.00  0.00     0.009 A 
ATOM     24  C   UNL d   1      28.894 -11.688  -7.289  0.00  0.00     0.001 A 
ATOM     25  C   UNL d   1      28.522 -11.133  -8.514  0.00  0.00     0.000 A 
ATOM     26  C   UNL d   1      27.215 -10.698  -8.722  0.00  0.00     0.001 A 
ATOM     27  C   UNL d   1      26.280 -10.801  -7.697  0.00  0.00     0.009 A 
ENDBRANCH  21  22
ENDBRANCH  11  21
ENDBRANCH   1   9
BRANCH   2  28
ATOM     28  C   UNL d   1      25.152 -17.352  -1.365  0.00  0.00     0.105 C 
BRANCH  28  29
ATOM     29  C   UNL d   1      23.981 -17.688  -0.472  0.00  0.00     0.029 C 
BRANCH  29  30
ATOM     30  C   UNL d   1      23.012 -18.580  -1.243  0.00  0.00     0.123 C 
BRANCH  30  31
ATOM     31  N   UNL d   1      22.083 -19.224  -0.348  0.00  0.00    -0.357 N 
ATOM     32  C   UNL d   1      20.734 -18.976  -0.437  0.00  0.00     0.252 C 
ATOM     33  O   UNL d   1      20.250 -18.211  -1.268  0.00  0.00    -0.268 OA
ATOM     34  H   UNL d   1      22.419 -19.951   0.270  0.00  0.00     0.162 HD
BRANCH  32  35
ATOM     35  C   UNL d   1      19.907 -19.711   0.515  0.00  0.00     0.038 A 
ATOM     36  C   UNL d   1      19.983 -19.686   1.951  0.00  0.00     0.024 A 
ATOM     37  C   UNL d   1      18.987 -20.429   2.548  0.00  0.00     0.050 A 
ATOM     38  S   UNL d   1      17.991 -21.208   1.400  0.00  0.00    -0.113 SA
ATOM     39  C   UNL d   1      18.860 -20.517   0.101  0.00  0.00     0.066 A 
ENDBRANCH  32  35
ENDBRANCH  30  31
ENDBRANCH  29  30
ENDBRANCH  28  29
ENDBRANCH   2  28
TORSDOF 12
ENDMDL
MODEL 6
REMARK VINA RESULT:    -9.390      3.234      6.218
REMARK INTER + INTRA:         -15.575
REMARK INTER:                 -12.969
REMARK INTRA:                  -2.606
REMARK CONF_INDEPENDENT:        3.580
REMARK UNBOUND:                -2.606
REMARK  12 active torsions:
REMARK  status: ('A' for Active; 'I' for Inactive)
REMARK    1  A    between atoms: C_2  and  C_4 
REMARK    2  A    between atoms: C_4  and  C_5 
REMARK    3  A    between atoms: C_5  and  N_6 
REMARK       I    between atoms: N_6  and  C_7 
REMARK    4  A    between atoms: N_6  and  C_20 
REMARK    5  A    between atoms: C_7  and  C_9 
REMARK    6  A    between atoms: C_9  and  C_10 
REMARK    7  A    between atoms: C_10  and  C_11 
REMARK    8  A    between atoms: C_11  and  N_12 
REMARK       I    between atoms: N_12  and  C_13 
REMARK    9  A    between atoms: C_13  and  C_15 
REMARK   10  A    between atoms: C_21  and  N_22 
REMARK   11  A    between atoms: N_23  and  C_24 
REMARK   12  A    between atoms: C_24  and  C_25 
ROOT
ATOM      1  N   UNL d   1      26.885 -16.245  -1.056  0.00  0.00    -0.310 N 
ATOM      2  C   UNL d   1      26.463 -17.222  -0.127  0.00  0.00     0.224 C 
ATOM      3  O   UNL d   1      26.997 -17.345   0.982  0.00  0.00    -0.273 OA
ENDROOT
BRANCH   1   4
ATOM      4  C   UNL d   1      26.272 -15.926  -2.386  0.00  0.00     0.133 C 
BRANCH   4   5
ATOM      5  C   UNL d   1      25.589 -14.587  -2.491  0.00  0.00     0.024 C 
BRANCH   5   6
ATOM      6  C   UNL d   1      25.363 -13.932  -3.830  0.00  0.00    -0.021 C 
ATOM      7  C   UNL d   1      26.048 -12.555  -3.759  0.00  0.00     0.009 C 
ATOM      8  C   UNL d   1      25.983 -14.787  -4.921  0.00  0.00     0.009 C 
ENDBRANCH   5   6
ENDBRANCH   4   5
ENDBRANCH   1   4
BRANCH   1   9
ATOM      9  C   UNL d   1      27.969 -15.397  -0.685  0.00  0.00     0.144 C 
ATOM     10  C   UNL d   1      27.945 -14.574   0.405  0.00  0.00     0.117 C 
ATOM     11  N   UNL d   1      29.024 -13.714   0.669  0.00  0.00    -0.284 N 
ATOM     12  C   UNL d   1      30.213 -13.800  -0.043  0.00  0.00     0.331 C 
ATOM     13  O   UNL d   1      31.295 -13.268   0.200  0.00  0.00    -0.246 OA
ATOM     14  N   UNL d   1      30.212 -14.577  -1.141  0.00  0.00    -0.273 N 
ATOM     15  C   UNL d   1      29.226 -15.419  -1.516  0.00  0.00     0.279 C 
ATOM     16  H   UNL d   1      31.084 -14.604  -1.646  0.00  0.00     0.173 HD
ATOM     17  O   UNL d   1      29.411 -16.135  -2.494  0.00  0.00    -0.265 OA
BRANCH  10  18
ATOM     18  N   UNL d   1      26.887 -14.645   1.324  0.00  0.00    -0.286 NA
ATOM     19  H   UNL d   1      26.850 -15.554   1.778  0.00  0.00     0.125 HD
ATOM     20  H   UNL d   1      25.974 -14.468   0.925  0.00  0.00     0.125 HD
ENDBRANCH  10  18
BRANCH  11  21
ATOM     21  C   UNL d   1      28.865 -12.747   1.778  0.00  0.00     0.173 C 
BRANCH  21  22
ATOM     22  C   UNL d   1      28.635 -13.298   3.157  0.00  0.00    -0.040 A 
ATOM     23  C   UNL d   1      29.382 -14.398   3.595  0.00  0.00     0.009 A 
ATOM     24  C   UNL d   1      29.326 -14.789   4.928  0.00  0.00     0.001 A 
ATOM     25  C   UNL d   1      28.546 -14.069   5.833  0.00  0.00     0.000 A 
ATOM     26  C   UNL d   1      27.783 -12.986   5.402  0.00  0.00     0.001 A 
ATOM     27  C   UNL d   1      27.786 -12.631   4.057  0.00  0.00     0.009 A 
ENDBRANCH  21  22
ENDBRANCH  11  21
ENDBRANCH   1   9
BRANCH   2  28
ATOM     28  C   UNL d   1      25.371 -18.213  -0.481  0.00  0.00     0.105 C 
BRANCH  28  29
ATOM     29  C   UNL d   1      23.959 -17.676  -0.498  0.00  0.00     0.029 C 
BRANCH  29  30
ATOM     30  C   UNL d   1      23.070 -18.650  -1.266  0.00  0.00     0.123 C 
BRANCH  30  31
ATOM     31  N   UNL d   1      22.125 -19.288  -0.383  0.00  0.00    -0.357 N 
ATOM     32  C   UNL d   1      20.784 -18.996  -0.460  0.00  0.00     0.252 C 
ATOM     33  O   UNL d   1      20.321 -18.196  -1.271  0.00  0.00    -0.268 OA
ATOM     34  H   UNL d   1      22.440 -20.040   0.215  0.00  0.00     0.162 HD
BRANCH  32  35
ATOM     35  C   UNL d   1      19.938 -19.729   0.476  0.00  0.00     0.038 A 
ATOM     36  C   UNL d   1      19.991 -19.709   1.912  0.00  0.00     0.024 A 
ATOM     37  C   UNL d   1      18.981 -20.448   2.492  0.00  0.00     0.050 A 
ATOM     38  S   UNL d   1      17.999 -21.218   1.325  0.00  0.00    -0.113 SA
ATOM     39  C   UNL d   1      18.893 -20.527   0.043  0.00  0.00     0.066 A 
ENDBRANCH  32  35
ENDBRANCH  30  31
ENDBRANCH  29  30
ENDBRANCH  28  29
ENDBRANCH   2  28
TORSDOF 12
ENDMDL
MODEL 7
REMARK VINA RESULT:    -8.996      2.533      5.147
REMARK INTER + INTRA:         -15.539
REMARK INTER:                 -12.575
REMARK INTRA:                  -2.964
REMARK CONF_INDEPENDENT:        3.580
REMARK UNBOUND:                -2.964
REMARK  12 active torsions:
REMARK  status: ('A' for Active; 'I' for Inactive)
REMARK    1  A    between atoms: C_2  and  C_4 
REMARK    2  A    between atoms: C_4  and  C_5 
REMARK    3  A    between atoms: C_5  and  N_6 
REMARK       I    between atoms: N_6  and  C_7 
REMARK    4  A    between atoms: N_6  and  C_20 
REMARK    5  A    between atoms: C_7  and  C_9 
REMARK    6  A    between atoms: C_9  and  C_10 
REMARK    7  A    between atoms: C_10  and  C_11 
REMARK    8  A    between atoms: C_11  and  N_12 
REMARK       I    between atoms: N_12  and  C_13 
REMARK    9  A    between atoms: C_13  and  C_15 
REMARK   10  A    between atoms: C_21  and  N_22 
REMARK   11  A    between atoms: N_23  and  C_24 
REMARK   12  A    between atoms: C_24  and  C_25 
ROOT
ATOM      1  N   UNL d   1      26.542 -15.550  -2.559  0.00  0.00    -0.310 N 
ATOM      2  C   UNL d   1      25.244 -15.861  -2.097  0.00  0.00     0.224 C 
ATOM      3  O   UNL d   1      24.238 -15.289  -2.536  0.00  0.00    -0.273 OA
ENDROOT
BRANCH   1   4
ATOM      4  C   UNL d   1      27.829 -16.223  -2.186  0.00  0.00     0.133 C 
BRANCH   4   5
ATOM      5  C   UNL d   1      28.241 -16.102  -0.742  0.00  0.00     0.024 C 
BRANCH   5   6
ATOM      6  C   UNL d   1      28.310 -14.758  -0.063  0.00  0.00    -0.021 C 
ATOM      7  C   UNL d   1      28.840 -13.768  -1.116  0.00  0.00     0.009 C 
ATOM      8  C   UNL d   1      26.922 -14.356   0.404  0.00  0.00     0.009 C 
ENDBRANCH   5   6
ENDBRANCH   4   5
ENDBRANCH   1   4
BRANCH   1   9
ATOM      9  C   UNL d   1      26.672 -14.533  -3.549  0.00  0.00     0.144 C 
ATOM     10  C   UNL d   1      26.201 -13.260  -3.391  0.00  0.00     0.117 C 
ATOM     11  N   UNL d   1      26.304 -12.330  -4.438  0.00  0.00    -0.284 N 
ATOM     12  C   UNL d   1      27.041 -12.603  -5.583  0.00  0.00     0.331 C 
ATOM     13  O   UNL d   1      27.386 -11.833  -6.478  0.00  0.00    -0.246 OA
ATOM     14  N   UNL d   1      27.459 -13.871  -5.752  0.00  0.00    -0.273 N 
ATOM     15  C   UNL d   1      27.388 -14.857  -4.835  0.00  0.00     0.279 C 
ATOM     16  H   UNL d   1      27.975 -14.040  -6.601  0.00  0.00     0.173 HD
ATOM     17  O   UNL d   1      27.899 -15.940  -5.101  0.00  0.00    -0.265 OA
BRANCH  10  18
ATOM     18  N   UNL d   1      25.698 -12.840  -2.150  0.00  0.00    -0.286 NA
ATOM     19  H   UNL d   1      26.446 -12.553  -1.524  0.00  0.00     0.125 HD
ATOM     20  H   UNL d   1      25.147 -13.536  -1.666  0.00  0.00     0.125 HD
ENDBRANCH  10  18
BRANCH  11  21
ATOM     21  C   UNL d   1      25.642 -11.020  -4.250  0.00  0.00     0.173 C 
BRANCH  21  22
ATOM     22  C   UNL d   1      26.273 -10.050  -3.289  0.00  0.00    -0.040 A 
ATOM     23  C   UNL d   1      25.540  -8.943  -2.846  0.00  0.00     0.009 A 
ATOM     24  C   UNL d   1      26.032  -8.156  -1.810  0.00  0.00     0.001 A 
ATOM     25  C   UNL d   1      27.240  -8.485  -1.197  0.00  0.00     0.000 A 
ATOM     26  C   UNL d   1      27.985  -9.574  -1.645  0.00  0.00     0.001 A 
ATOM     27  C   UNL d   1      27.530 -10.326  -2.723  0.00  0.00     0.009 A 
ENDBRANCH  21  22
ENDBRANCH  11  21
ENDBRANCH   1   9
BRANCH   2  28
ATOM     28  C   UNL d   1      25.033 -16.872  -0.987  0.00  0.00     0.105 C 
BRANCH  28  29
ATOM     29  C   UNL d   1      23.600 -17.213  -0.655  0.00  0.00     0.029 C 
BRANCH  29  30
ATOM     30  C   UNL d   1      23.292 -18.614  -1.175  0.00  0.00     0.123 C 
BRANCH  30  31
ATOM     31  N   UNL d   1      22.303 -19.263  -0.350  0.00  0.00    -0.357 N 
ATOM     32  C   UNL d   1      20.971 -18.945  -0.469  0.00  0.00     0.252 C 
ATOM     33  O   UNL d   1      20.553 -18.111  -1.271  0.00  0.00    -0.268 OA
ATOM     34  H   UNL d   1      22.581 -20.039   0.235  0.00  0.00     0.162 HD
BRANCH  32  35
ATOM     35  C   UNL d   1      20.077 -19.691   0.410  0.00  0.00     0.038 A 
ATOM     36  C   UNL d   1      20.071 -19.713   1.847  0.00  0.00     0.024 A 
ATOM     37  C   UNL d   1      19.028 -20.453   2.363  0.00  0.00     0.050 A 
ATOM     38  S   UNL d   1      18.084 -21.174   1.135  0.00  0.00    -0.113 SA
ATOM     39  C   UNL d   1      19.039 -20.461  -0.089  0.00  0.00     0.066 A 
ENDBRANCH  32  35
ENDBRANCH  30  31
ENDBRANCH  29  30
ENDBRANCH  28  29
ENDBRANCH   2  28
TORSDOF 12
ENDMDL
MODEL 8
REMARK VINA RESULT:    -8.969      2.717      3.934
REMARK INTER + INTRA:         -15.836
REMARK INTER:                 -12.548
REMARK INTRA:                  -3.288
REMARK CONF_INDEPENDENT:        3.580
REMARK UNBOUND:                -3.288
REMARK  12 active torsions:
REMARK  status: ('A' for Active; 'I' for Inactive)
REMARK    1  A    between atoms: C_2  and  C_4 
REMARK    2  A    between atoms: C_4  and  C_5 
REMARK    3  A    between atoms: C_5  and  N_6 
REMARK       I    between atoms: N_6  and  C_7 
REMARK    4  A    between atoms: N_6  and  C_20 
REMARK    5  A    between atoms: C_7  and  C_9 
REMARK    6  A    between atoms: C_9  and  C_10 
REMARK    7  A    between atoms: C_10  and  C_11 
REMARK    8  A    between atoms: C_11  and  N_12 
REMARK       I    between atoms: N_12  and  C_13 
REMARK    9  A    between atoms: C_13  and  C_15 
REMARK   10  A    between atoms: C_21  and  N_22 
REMARK   11  A    between atoms: N_23  and  C_24 
REMARK   12  A    between atoms: C_24  and  C_25 
ROOT
ATOM      1  N   UNL d   1      26.071 -15.914  -0.387  0.00  0.00    -0.310 N 
ATOM      2  C   UNL d   1      24.793 -16.511  -0.434  0.00  0.00     0.224 C 
ATOM      3  O   UNL d   1      23.847 -15.989  -1.038  0.00  0.00    -0.273 OA
ENDROOT
BRANCH   1   4
ATOM      4  C   UNL d   1      27.320 -16.477   0.223  0.00  0.00     0.133 C 
BRANCH   4   5
ATOM      5  C   UNL d   1      28.276 -17.142  -0.732  0.00  0.00     0.024 C 
BRANCH   5   6
ATOM      6  C   UNL d   1      29.544 -16.454  -1.170  0.00  0.00    -0.021 C 
ATOM      7  C   UNL d   1      29.281 -15.929  -2.593  0.00  0.00     0.009 C 
ATOM      8  C   UNL d   1      29.849 -15.308  -0.221  0.00  0.00     0.009 C 
ENDBRANCH   5   6
ENDBRANCH   4   5
ENDBRANCH   1   4
BRANCH   1   9
ATOM      9  C   UNL d   1      26.249 -14.665  -1.051  0.00  0.00     0.144 C 
ATOM     10  C   UNL d   1      25.903 -14.449  -2.355  0.00  0.00     0.117 C 
ATOM     11  N   UNL d   1      26.171 -13.212  -2.964  0.00  0.00    -0.284 N 
ATOM     12  C   UNL d   1      26.616 -12.121  -2.229  0.00  0.00     0.331 C 
ATOM     13  O   UNL d   1      26.699 -10.943  -2.574  0.00  0.00    -0.246 OA
ATOM     14  N   UNL d   1      26.999 -12.355  -0.960  0.00  0.00    -0.273 N 
ATOM     15  C   UNL d   1      26.823 -13.506  -0.280  0.00  0.00     0.279 C 
ATOM     16  H   UNL d   1      27.334 -11.547  -0.460  0.00  0.00     0.173 HD
ATOM     17  O   UNL d   1      27.140 -13.537   0.905  0.00  0.00    -0.265 OA
BRANCH  10  18
ATOM     18  N   UNL d   1      25.190 -15.422  -3.071  0.00  0.00    -0.286 NA
ATOM     19  H   UNL d   1      24.195 -15.218  -3.087  0.00  0.00     0.125 HD
ATOM     20  H   UNL d   1      25.300 -16.364  -2.718  0.00  0.00     0.125 HD
ENDBRANCH  10  18
BRANCH  11  21
ATOM     21  C   UNL d   1      25.905 -13.097  -4.416  0.00  0.00     0.173 C 
BRANCH  21  22
ATOM     22  C   UNL d   1      27.058 -13.316  -5.355  0.00  0.00    -0.040 A 
ATOM     23  C   UNL d   1      27.613 -14.595  -5.481  0.00  0.00     0.009 A 
ATOM     24  C   UNL d   1      28.537 -14.854  -6.487  0.00  0.00     0.001 A 
ATOM     25  C   UNL d   1      28.891 -13.847  -7.386  0.00  0.00     0.000 A 
ATOM     26  C   UNL d   1      28.359 -12.566  -7.255  0.00  0.00     0.001 A 
ATOM     27  C   UNL d   1      27.484 -12.285  -6.211  0.00  0.00     0.009 A 
ENDBRANCH  21  22
ENDBRANCH  11  21
ENDBRANCH   1   9
BRANCH   2  28
ATOM     28  C   UNL d   1      24.506 -17.798   0.316  0.00  0.00     0.105 C 
BRANCH  28  29
ATOM     29  C   UNL d   1      24.099 -18.986  -0.523  0.00  0.00     0.029 C 
BRANCH  29  30
ATOM     30  C   UNL d   1      22.738 -18.704  -1.152  0.00  0.00     0.123 C 
BRANCH  30  31
ATOM     31  N   UNL d   1      21.671 -19.148  -0.289  0.00  0.00    -0.357 N 
ATOM     32  C   UNL d   1      20.493 -19.623  -0.814  0.00  0.00     0.252 C 
ATOM     33  O   UNL d   1      20.285 -19.699  -2.024  0.00  0.00    -0.268 OA
ATOM     34  H   UNL d   1      21.840 -19.220   0.706  0.00  0.00     0.162 HD
BRANCH  32  35
ATOM     35  C   UNL d   1      19.509 -20.060   0.171  0.00  0.00     0.038 A 
ATOM     36  C   UNL d   1      18.335 -20.859  -0.052  0.00  0.00     0.024 A 
ATOM     37  C   UNL d   1      17.673 -21.168   1.118  0.00  0.00     0.050 A 
ATOM     38  S   UNL d   1      18.415 -20.457   2.482  0.00  0.00    -0.113 SA
ATOM     39  C   UNL d   1      19.650 -19.774   1.518  0.00  0.00     0.066 A 
ENDBRANCH  32  35
ENDBRANCH  30  31
ENDBRANCH  29  30
ENDBRANCH  28  29
ENDBRANCH   2  28
TORSDOF 12
ENDMDL
