MODEL 1
REMARK VINA RESULT:   -10.008      0.000      0.000
REMARK INTER + INTRA:         -14.347
REMARK INTER:                 -12.096
REMARK INTRA:                  -2.251
REMARK CONF_INDEPENDENT:        2.088
REMARK UNBOUND:                -2.251
REMARK  7 active torsions:
REMARK  status: ('A' for Active; 'I' for Inactive)
REMARK       I    between atoms: C_2  and  N_3 
REMARK    1  A    between atoms: C_2  and  C_12 
REMARK    2  A    between atoms: N_3  and  C_4 
REMARK    3  A    between atoms: C_10  and  O_11 
REMARK    4  A    between atoms: N_15  and  C_16 
REMARK    5  A    between atoms: C_16  and  C_17 
REMARK    6  A    between atoms: C_20  and  C_21 
REMARK    7  A    between atoms: C_24  and  N_25 
ROOT
ATOM      1  C   UNL d   1      28.591 -12.920   5.752  0.00  0.00     0.081 C 
ATOM      2  C   UNL d   1      29.747 -13.936   5.643  0.00  0.00     0.042 C 
ATOM      3  C   UNL d   1      30.168 -14.134   4.189  0.00  0.00     0.236 C 
ATOM      4  N   UNL d   1      28.966 -14.576   3.333  0.00  0.00    -0.064 N 
ATOM      5  C   UNL d   1      27.704 -13.831   3.624  0.00  0.00     0.236 C 
ATOM      6  C   UNL d   1      27.417 -13.657   5.123  0.00  0.00     0.042 C 
ATOM      7  H   UNL d   1      28.793 -15.576   3.495  0.00  0.00     0.280 HD
ENDROOT
BRANCH   4   8
ATOM      8  C   UNL d   1      29.293 -14.405   1.811  0.00  0.00     0.322 C 
BRANCH   8   9
ATOM      9  C   UNL d   1      28.526 -15.283   0.859  0.00  0.00     0.195 A 
ATOM     10  N   UNL d   1      29.008 -16.003  -0.127  0.00  0.00    -0.125 NA
ATOM     11  N   UNL d   1      27.955 -16.722  -0.646  0.00  0.00    -0.121 NA
ATOM     12  C   UNL d   1      26.879 -16.386   0.032  0.00  0.00     0.202 A 
ATOM     13  O   UNL d   1      27.158 -15.451   1.012  0.00  0.00    -0.271 OA
BRANCH  12  14
ATOM     14  C   UNL d   1      25.504 -16.852  -0.142  0.00  0.00     0.019 A 
ATOM     15  C   UNL d   1      25.177 -18.212   0.029  0.00  0.00     0.018 A 
ATOM     16  C   UNL d   1      23.901 -18.700  -0.302  0.00  0.00     0.037 A 
ATOM     17  C   UNL d   1      22.915 -17.810  -0.746  0.00  0.00     0.102 A 
ATOM     18  C   UNL d   1      23.225 -16.457  -0.928  0.00  0.00     0.037 A 
ATOM     19  C   UNL d   1      24.513 -15.985  -0.626  0.00  0.00     0.018 A 
BRANCH  17  20
ATOM     20  N   UNL d   1      21.539 -18.289  -0.956  0.00  0.00    -0.116 N 
ATOM     21  O   UNL d   1      20.657 -17.450  -1.142  0.00  0.00    -0.532 OA
ATOM     22  O   UNL d   1      21.364 -19.522  -0.975  0.00  0.00    -0.532 OA
ENDBRANCH  17  20
ENDBRANCH  12  14
ENDBRANCH   8   9
ENDBRANCH   4   8
BRANCH   1  23
ATOM     23  C   UNL d   1      28.803 -11.553   5.015  0.00  0.00     0.226 C 
ATOM     24  O   UNL d   1      29.917 -11.108   4.830  0.00  0.00    -0.273 OA
ATOM     25  N   UNL d   1      27.611 -10.962   4.571  0.00  0.00    -0.324 N 
ATOM     26  H   UNL d   1      26.738 -11.169   5.036  0.00  0.00     0.169 HD
BRANCH  25  27
ATOM     27  C   UNL d   1      27.413 -10.145   3.441  0.00  0.00     0.069 C 
ATOM     28  C   UNL d   1      27.752 -10.730   2.214  0.00  0.00     0.056 C 
ATOM     29  C   UNL d   1      27.326 -10.134   1.038  0.00  0.00     0.036 C 
ATOM     30 CL   UNL d   1      27.538 -10.970  -0.446  0.00  0.00    -0.084 Cl
ATOM     31  C   UNL d   1      26.658  -8.913   1.079  0.00  0.00     0.026 C 
ATOM     32  C   UNL d   1      26.518  -8.231   2.292  0.00  0.00     0.040 C 
ATOM     33  C   UNL d   1      26.950  -8.830   3.470  0.00  0.00     0.092 C 
BRANCH  33  34
ATOM     34  O   UNL d   1      27.032  -8.089   4.616  0.00  0.00    -0.358 OA
ATOM     35  H   UNL d   1      27.099  -8.703   5.371  0.00  0.00     0.217 HD
ENDBRANCH  33  34
ENDBRANCH  25  27
ENDBRANCH   1  23
TORSDOF 7
ENDMDL
MODEL 2
REMARK VINA RESULT:    -9.353      3.347      4.515
REMARK INTER + INTRA:         -14.717
REMARK INTER:                 -11.441
REMARK INTRA:                  -3.276
REMARK CONF_INDEPENDENT:        2.088
REMARK UNBOUND:                -3.276
REMARK  7 active torsions:
REMARK  status: ('A' for Active; 'I' for Inactive)
REMARK       I    between atoms: C_2  and  N_3 
REMARK    1  A    between atoms: C_2  and  C_12 
REMARK    2  A    between atoms: N_3  and  C_4 
REMARK    3  A    between atoms: C_10  and  O_11 
REMARK    4  A    between atoms: N_15  and  C_16 
REMARK    5  A    between atoms: C_16  and  C_17 
REMARK    6  A    between atoms: C_20  and  C_21 
REMARK    7  A    between atoms: C_24  and  N_25 
ROOT
ATOM      1  C   UNL d   1      32.673 -14.998   1.866  0.00  0.00     0.081 C 
ATOM      2  C   UNL d   1      33.220 -14.687   0.457  0.00  0.00     0.042 C 
ATOM      3  C   UNL d   1      32.160 -14.941  -0.611  0.00  0.00     0.236 C 
ATOM      4  N   UNL d   1      31.644 -16.389  -0.530  0.00  0.00    -0.064 N 
ATOM      5  C   UNL d   1      31.394 -16.870   0.863  0.00  0.00     0.236 C 
ATOM      6  C   UNL d   1      32.512 -16.511   1.853  0.00  0.00     0.042 C 
ATOM      7  H   UNL d   1      32.335 -17.013  -0.965  0.00  0.00     0.280 HD
ENDROOT
BRANCH   4   8
ATOM      8  C   UNL d   1      30.313 -16.537  -1.342  0.00  0.00     0.322 C 
BRANCH   8   9
ATOM      9  C   UNL d   1      29.035 -16.485  -0.548  0.00  0.00     0.195 A 
ATOM     10  N   UNL d   1      28.843 -15.917   0.620  0.00  0.00    -0.125 NA
ATOM     11  N   UNL d   1      27.500 -16.026   0.899  0.00  0.00    -0.121 NA
ATOM     12  C   UNL d   1      26.944 -16.677  -0.099  0.00  0.00     0.202 A 
ATOM     13  O   UNL d   1      27.868 -17.023  -1.068  0.00  0.00    -0.271 OA
BRANCH  12  14
ATOM     14  C   UNL d   1      25.545 -17.066  -0.273  0.00  0.00     0.019 A 
ATOM     15  C   UNL d   1      25.109 -18.360   0.073  0.00  0.00     0.018 A 
ATOM     16  C   UNL d   1      23.813 -18.801  -0.248  0.00  0.00     0.037 A 
ATOM     17  C   UNL d   1      22.916 -17.918  -0.862  0.00  0.00     0.102 A 
ATOM     18  C   UNL d   1      23.335 -16.631  -1.218  0.00  0.00     0.037 A 
ATOM     19  C   UNL d   1      24.642 -16.212  -0.923  0.00  0.00     0.018 A 
BRANCH  17  20
ATOM     20  N   UNL d   1      21.516 -18.326  -1.069  0.00  0.00    -0.116 N 
ATOM     21  O   UNL d   1      20.638 -17.478  -0.908  0.00  0.00    -0.532 OA
ATOM     22  O   UNL d   1      21.315 -19.498  -1.438  0.00  0.00    -0.532 OA
ENDBRANCH  17  20
ENDBRANCH  12  14
ENDBRANCH   8   9
ENDBRANCH   4   8
BRANCH   1  23
ATOM     23  C   UNL d   1      31.302 -14.331   2.235  0.00  0.00     0.226 C 
ATOM     24  O   UNL d   1      30.480 -14.078   1.380  0.00  0.00    -0.273 OA
ATOM     25  N   UNL d   1      31.131 -14.124   3.612  0.00  0.00    -0.324 N 
ATOM     26  H   UNL d   1      31.936 -14.019   4.213  0.00  0.00     0.169 HD
BRANCH  25  27
ATOM     27  C   UNL d   1      29.931 -14.135   4.350  0.00  0.00     0.069 C 
ATOM     28  C   UNL d   1      30.080 -14.327   5.730  0.00  0.00     0.056 C 
ATOM     29  C   UNL d   1      29.010 -14.064   6.570  0.00  0.00     0.036 C 
ATOM     30 CL   UNL d   1      29.261 -14.074   8.269  0.00  0.00    -0.084 Cl
ATOM     31  C   UNL d   1      27.775 -13.713   6.034  0.00  0.00     0.026 C 
ATOM     32  C   UNL d   1      27.578 -13.737   4.650  0.00  0.00     0.040 C 
ATOM     33  C   UNL d   1      28.653 -14.005   3.809  0.00  0.00     0.092 C 
BRANCH  33  34
ATOM     34  O   UNL d   1      28.429 -14.259   2.484  0.00  0.00    -0.358 OA
ATOM     35  H   UNL d   1      28.793 -15.140   2.277  0.00  0.00     0.217 HD
ENDBRANCH  33  34
ENDBRANCH  25  27
ENDBRANCH   1  23
TORSDOF 7
ENDMDL
MODEL 3
REMARK VINA RESULT:    -9.120      4.429      5.798
REMARK INTER + INTRA:         -14.041
REMARK INTER:                 -11.209
REMARK INTRA:                  -2.832
REMARK CONF_INDEPENDENT:        2.088
REMARK UNBOUND:                -2.832
REMARK  7 active torsions:
REMARK  status: ('A' for Active; 'I' for Inactive)
REMARK       I    between atoms: C_2  and  N_3 
REMARK    1  A    between atoms: C_2  and  C_12 
REMARK    2  A    between atoms: N_3  and  C_4 
REMARK    3  A    between atoms: C_10  and  O_11 
REMARK    4  A    between atoms: N_15  and  C_16 
REMARK    5  A    between atoms: C_16  and  C_17 
REMARK    6  A    between atoms: C_20  and  C_21 
REMARK    7  A    between atoms: C_24  and  N_25 
ROOT
ATOM      1  C   UNL d   1      29.330 -14.823  -0.029  0.00  0.00     0.081 C 
ATOM      2  C   UNL d   1      29.938 -16.210   0.261  0.00  0.00     0.042 C 
ATOM      3  C   UNL d   1      29.052 -17.324  -0.290  0.00  0.00     0.236 C 
ATOM      4  N   UNL d   1      27.628 -17.218   0.286  0.00  0.00    -0.064 N 
ATOM      5  C   UNL d   1      27.091 -15.824   0.331  0.00  0.00     0.236 C 
ATOM      6  C   UNL d   1      28.095 -14.789   0.860  0.00  0.00     0.042 C 
ATOM      7  H   UNL d   1      27.628 -17.593   1.243  0.00  0.00     0.280 HD
ENDROOT
BRANCH   4   8
ATOM      8  C   UNL d   1      26.638 -18.094  -0.553  0.00  0.00     0.322 C 
BRANCH   8   9
ATOM      9  C   UNL d   1      25.186 -17.699  -0.500  0.00  0.00     0.195 A 
ATOM     10  N   UNL d   1      24.669 -16.521  -0.759  0.00  0.00    -0.125 NA
ATOM     11  N   UNL d   1      23.302 -16.662  -0.691  0.00  0.00    -0.121 NA
ATOM     12  C   UNL d   1      23.052 -17.913  -0.370  0.00  0.00     0.202 A 
ATOM     13  O   UNL d   1      24.214 -18.647  -0.214  0.00  0.00    -0.271 OA
BRANCH  12  14
ATOM     14  C   UNL d   1      21.761 -18.564  -0.156  0.00  0.00     0.019 A 
ATOM     15  C   UNL d   1      21.355 -18.950   1.137  0.00  0.00     0.018 A 
ATOM     16  C   UNL d   1      20.200 -19.727   1.334  0.00  0.00     0.037 A 
ATOM     17  C   UNL d   1      19.401 -20.069   0.236  0.00  0.00     0.102 A 
ATOM     18  C   UNL d   1      19.794 -19.699  -1.056  0.00  0.00     0.037 A 
ATOM     19  C   UNL d   1      20.967 -18.951  -1.246  0.00  0.00     0.018 A 
BRANCH  17  20
ATOM     20  N   UNL d   1      18.117 -20.757   0.451  0.00  0.00    -0.116 N 
ATOM     21  O   UNL d   1      17.872 -21.181   1.580  0.00  0.00    -0.532 OA
ATOM     22  O   UNL d   1      17.340 -20.826  -0.520  0.00  0.00    -0.532 OA
ENDBRANCH  17  20
ENDBRANCH  12  14
ENDBRANCH   8   9
ENDBRANCH   4   8
BRANCH   1  23
ATOM     23  C   UNL d   1      28.909 -14.551  -1.515  0.00  0.00     0.226 C 
ATOM     24  O   UNL d   1      29.328 -15.244  -2.420  0.00  0.00    -0.273 OA
ATOM     25  N   UNL d   1      27.995 -13.497  -1.658  0.00  0.00    -0.324 N 
ATOM     26  H   UNL d   1      27.958 -12.761  -0.968  0.00  0.00     0.169 HD
BRANCH  25  27
ATOM     27  C   UNL d   1      26.986 -13.347  -2.629  0.00  0.00     0.069 C 
ATOM     28  C   UNL d   1      26.665 -12.023  -2.957  0.00  0.00     0.056 C 
ATOM     29  C   UNL d   1      25.912 -11.770  -4.093  0.00  0.00     0.036 C 
ATOM     30 CL   UNL d   1      25.717 -10.147  -4.620  0.00  0.00    -0.084 Cl
ATOM     31  C   UNL d   1      25.398 -12.828  -4.837  0.00  0.00     0.026 C 
ATOM     32  C   UNL d   1      25.541 -14.142  -4.380  0.00  0.00     0.040 C 
ATOM     33  C   UNL d   1      26.293 -14.393  -3.238  0.00  0.00     0.092 C 
BRANCH  33  34
ATOM     34  O   UNL d   1      26.248 -15.629  -2.655  0.00  0.00    -0.358 OA
ATOM     35  H   UNL d   1      25.315 -15.842  -2.465  0.00  0.00     0.217 HD
ENDBRANCH  33  34
ENDBRANCH  25  27
ENDBRANCH   1  23
TORSDOF 7
ENDMDL
MODEL 4
REMARK VINA RESULT:    -8.438      3.658      4.537
REMARK INTER + INTRA:         -15.017
REMARK INTER:                 -10.526
REMARK INTRA:                  -4.491
REMARK CONF_INDEPENDENT:        2.088
REMARK UNBOUND:                -4.491
REMARK  7 active torsions:
REMARK  status: ('A' for Active; 'I' for Inactive)
REMARK       I    between atoms: C_2  and  N_3 
REMARK    1  A    between atoms: C_2  and  C_12 
REMARK    2  A    between atoms: N_3  and  C_4 
REMARK    3  A    between atoms: C_10  and  O_11 
REMARK    4  A    between atoms: N_15  and  C_16 
REMARK    5  A    between atoms: C_16  and  C_17 
REMARK    6  A    between atoms: C_20  and  C_21 
REMARK    7  A    between atoms: C_24  and  N_25 
ROOT
ATOM      1  C   UNL d   1      29.784 -12.625   0.404  0.00  0.00     0.081 C 
ATOM      2  C   UNL d   1      31.071 -13.443   0.639  0.00  0.00     0.042 C 
ATOM      3  C   UNL d   1      30.930 -14.858   0.086  0.00  0.00     0.236 C 
ATOM      4  N   UNL d   1      29.710 -15.563   0.707  0.00  0.00    -0.064 N 
ATOM      5  C   UNL d   1      28.493 -14.702   0.805  0.00  0.00     0.236 C 
ATOM      6  C   UNL d   1      28.774 -13.287   1.330  0.00  0.00     0.042 C 
ATOM      7  H   UNL d   1      29.956 -15.881   1.653  0.00  0.00     0.280 HD
ENDROOT
BRANCH   4   8
ATOM      8  C   UNL d   1      29.340 -16.837  -0.124  0.00  0.00     0.322 C 
BRANCH   8   9
ATOM      9  C   UNL d   1      27.995 -16.828  -0.800  0.00  0.00     0.195 A 
ATOM     10  N   UNL d   1      27.727 -16.499  -2.043  0.00  0.00    -0.125 NA
ATOM     11  N   UNL d   1      26.389 -16.750  -2.241  0.00  0.00    -0.121 NA
ATOM     12  C   UNL d   1      25.900 -17.194  -1.104  0.00  0.00     0.202 A 
ATOM     13  O   UNL d   1      26.867 -17.260  -0.118  0.00  0.00    -0.271 OA
BRANCH  12  14
ATOM     14  C   UNL d   1      24.526 -17.582  -0.786  0.00  0.00     0.019 A 
ATOM     15  C   UNL d   1      24.200 -18.927  -0.525  0.00  0.00     0.018 A 
ATOM     16  C   UNL d   1      22.862 -19.336  -0.389  0.00  0.00     0.037 A 
ATOM     17  C   UNL d   1      21.838 -18.383  -0.447  0.00  0.00     0.102 A 
ATOM     18  C   UNL d   1      22.145 -17.043  -0.713  0.00  0.00     0.037 A 
ATOM     19  C   UNL d   1      23.482 -16.649  -0.880  0.00  0.00     0.018 A 
BRANCH  17  20
ATOM     20  N   UNL d   1      20.449 -18.782  -0.163  0.00  0.00    -0.116 N 
ATOM     21  O   UNL d   1      20.247 -19.520   0.801  0.00  0.00    -0.532 OA
ATOM     22  O   UNL d   1      19.560 -18.307  -0.895  0.00  0.00    -0.532 OA
ENDBRANCH  17  20
ENDBRANCH  12  14
ENDBRANCH   8   9
ENDBRANCH   4   8
BRANCH   1  23
ATOM     23  C   UNL d   1      29.226 -12.625  -1.061  0.00  0.00     0.226 C 
ATOM     24  O   UNL d   1      29.894 -13.040  -1.985  0.00  0.00    -0.273 OA
ATOM     25  N   UNL d   1      27.906 -12.159  -1.160  0.00  0.00    -0.324 N 
ATOM     26  H   UNL d   1      27.539 -11.523  -0.467  0.00  0.00     0.169 HD
BRANCH  25  27
ATOM     27  C   UNL d   1      26.916 -12.543  -2.085  0.00  0.00     0.069 C 
ATOM     28  C   UNL d   1      26.707 -11.649  -3.143  0.00  0.00     0.056 C 
ATOM     29  C   UNL d   1      25.981 -12.063  -4.248  0.00  0.00     0.036 C 
ATOM     30 CL   UNL d   1      25.924 -11.053  -5.636  0.00  0.00    -0.084 Cl
ATOM     31  C   UNL d   1      25.382 -13.320  -4.256  0.00  0.00     0.026 C 
ATOM     32  C   UNL d   1      25.413 -14.118  -3.108  0.00  0.00     0.040 C 
ATOM     33  C   UNL d   1      26.139 -13.698  -1.999  0.00  0.00     0.092 C 
BRANCH  33  34
ATOM     34  O   UNL d   1      25.990 -14.348  -0.806  0.00  0.00    -0.358 OA
ATOM     35  H   UNL d   1      26.496 -15.181  -0.846  0.00  0.00     0.217 HD
ENDBRANCH  33  34
ENDBRANCH  25  27
ENDBRANCH   1  23
TORSDOF 7
ENDMDL
MODEL 5
REMARK VINA RESULT:    -8.290      6.171      8.228
REMARK INTER + INTRA:         -14.181
REMARK INTER:                 -10.378
REMARK INTRA:                  -3.803
REMARK CONF_INDEPENDENT:        2.088
REMARK UNBOUND:                -3.803
REMARK  7 active torsions:
REMARK  status: ('A' for Active; 'I' for Inactive)
REMARK       I    between atoms: C_2  and  N_3 
REMARK    1  A    between atoms: C_2  and  C_12 
REMARK    2  A    between atoms: N_3  and  C_4 
REMARK    3  A    between atoms: C_10  and  O_11 
REMARK    4  A    between atoms: N_15  and  C_16 
REMARK    5  A    between atoms: C_16  and  C_17 
REMARK    6  A    between atoms: C_20  and  C_21 
REMARK    7  A    between atoms: C_24  and  N_25 
ROOT
ATOM      1  C   UNL d   1      26.065 -15.693  -0.195  0.00  0.00     0.081 C 
ATOM      2  C   UNL d   1      27.163 -14.930   0.575  0.00  0.00     0.042 C 
ATOM      3  C   UNL d   1      28.549 -15.280   0.043  0.00  0.00     0.236 C 
ATOM      4  N   UNL d   1      28.787 -16.800   0.109  0.00  0.00    -0.064 N 
ATOM      5  C   UNL d   1      27.618 -17.620  -0.330  0.00  0.00     0.236 C 
ATOM      6  C   UNL d   1      26.274 -17.138   0.236  0.00  0.00     0.042 C 
ATOM      7  H   UNL d   1      29.015 -17.059   1.077  0.00  0.00     0.280 HD
ENDROOT
BRANCH   4   8
ATOM      8  C   UNL d   1      30.018 -17.195  -0.776  0.00  0.00     0.322 C 
BRANCH   8   9
ATOM      9  C   UNL d   1      29.849 -17.044  -2.264  0.00  0.00     0.195 A 
ATOM     10  N   UNL d   1      29.274 -16.054  -2.906  0.00  0.00    -0.125 NA
ATOM     11  N   UNL d   1      29.454 -16.292  -4.249  0.00  0.00    -0.121 NA
ATOM     12  C   UNL d   1      30.107 -17.429  -4.361  0.00  0.00     0.202 A 
ATOM     13  O   UNL d   1      30.387 -17.986  -3.127  0.00  0.00    -0.271 OA
BRANCH  12  14
ATOM     14  C   UNL d   1      30.525 -18.130  -5.575  0.00  0.00     0.019 A 
ATOM     15  C   UNL d   1      30.918 -17.413  -6.721  0.00  0.00     0.018 A 
ATOM     16  C   UNL d   1      31.155 -18.068  -7.942  0.00  0.00     0.037 A 
ATOM     17  C   UNL d   1      31.063 -19.464  -8.007  0.00  0.00     0.102 A 
ATOM     18  C   UNL d   1      30.666 -20.190  -6.879  0.00  0.00     0.037 A 
ATOM     19  C   UNL d   1      30.399 -19.524  -5.672  0.00  0.00     0.018 A 
BRANCH  17  20
ATOM     20  N   UNL d   1      31.449 -20.166  -9.242  0.00  0.00    -0.116 N 
ATOM     21  O   UNL d   1      30.811 -19.924 -10.267  0.00  0.00    -0.532 OA
ATOM     22  O   UNL d   1      32.431 -20.930  -9.178  0.00  0.00    -0.532 OA
ENDBRANCH  17  20
ENDBRANCH  12  14
ENDBRANCH   8   9
ENDBRANCH   4   8
BRANCH   1  23
ATOM     23  C   UNL d   1      26.128 -15.601  -1.759  0.00  0.00     0.226 C 
ATOM     24  O   UNL d   1      25.547 -16.406  -2.457  0.00  0.00    -0.273 OA
ATOM     25  N   UNL d   1      26.859 -14.499  -2.228  0.00  0.00    -0.324 N 
ATOM     26  H   UNL d   1      27.584 -14.090  -1.656  0.00  0.00     0.169 HD
BRANCH  25  27
ATOM     27  C   UNL d   1      26.659 -13.765  -3.413  0.00  0.00     0.069 C 
ATOM     28  C   UNL d   1      26.074 -12.503  -3.243  0.00  0.00     0.056 C 
ATOM     29  C   UNL d   1      26.105 -11.595  -4.290  0.00  0.00     0.036 C 
ATOM     30 CL   UNL d   1      25.600  -9.979  -4.006  0.00  0.00    -0.084 Cl
ATOM     31  C   UNL d   1      26.621 -11.975  -5.525  0.00  0.00     0.026 C 
ATOM     32  C   UNL d   1      27.002 -13.302  -5.749  0.00  0.00     0.040 C 
ATOM     33  C   UNL d   1      26.966 -14.212  -4.698  0.00  0.00     0.092 C 
BRANCH  33  34
ATOM     34  O   UNL d   1      27.110 -15.547  -4.954  0.00  0.00    -0.358 OA
ATOM     35  H   UNL d   1      27.361 -15.991  -4.122  0.00  0.00     0.217 HD
ENDBRANCH  33  34
ENDBRANCH  25  27
ENDBRANCH   1  23
TORSDOF 7
ENDMDL
MODEL 6
REMARK VINA RESULT:    -8.218      3.403      8.536
REMARK INTER + INTRA:         -14.279
REMARK INTER:                 -10.307
REMARK INTRA:                  -3.972
REMARK CONF_INDEPENDENT:        2.088
REMARK UNBOUND:                -3.972
REMARK  7 active torsions:
REMARK  status: ('A' for Active; 'I' for Inactive)
REMARK       I    between atoms: C_2  and  N_3 
REMARK    1  A    between atoms: C_2  and  C_12 
REMARK    2  A    between atoms: N_3  and  C_4 
REMARK    3  A    between atoms: C_10  and  O_11 
REMARK    4  A    between atoms: N_15  and  C_16 
REMARK    5  A    between atoms: C_16  and  C_17 
REMARK    6  A    between atoms: C_20  and  C_21 
REMARK    7  A    between atoms: C_24  and  N_25 
ROOT
ATOM      1  C   UNL d   1      25.992 -14.214  -4.349  0.00  0.00     0.081 C 
ATOM      2  C   UNL d   1      27.521 -14.273  -4.152  0.00  0.00     0.042 C 
ATOM      3  C   UNL d   1      27.937 -13.553  -2.873  0.00  0.00     0.236 C 
ATOM      4  N   UNL d   1      27.442 -12.095  -2.887  0.00  0.00    -0.064 N 
ATOM      5  C   UNL d   1      26.043 -11.931  -3.384  0.00  0.00     0.236 C 
ATOM      6  C   UNL d   1      25.735 -12.744  -4.650  0.00  0.00     0.042 C 
ATOM      7  H   UNL d   1      28.063 -11.539  -3.488  0.00  0.00     0.280 HD
ENDROOT
BRANCH   4   8
ATOM      8  C   UNL d   1      27.522 -11.482  -1.448  0.00  0.00     0.322 C 
BRANCH   8   9
ATOM      9  C   UNL d   1      27.293 -12.430  -0.302  0.00  0.00     0.195 A 
ATOM     10  N   UNL d   1      26.862 -13.669  -0.365  0.00  0.00    -0.125 NA
ATOM     11  N   UNL d   1      26.917 -14.175   0.913  0.00  0.00    -0.121 NA
ATOM     12  C   UNL d   1      27.354 -13.213   1.697  0.00  0.00     0.202 A 
ATOM     13  O   UNL d   1      27.606 -12.049   0.994  0.00  0.00    -0.271 OA
BRANCH  12  14
ATOM     14  C   UNL d   1      27.568 -13.236   3.143  0.00  0.00     0.019 A 
ATOM     15  C   UNL d   1      27.716 -12.037   3.868  0.00  0.00     0.018 A 
ATOM     16  C   UNL d   1      28.093 -12.049   5.223  0.00  0.00     0.037 A 
ATOM     17  C   UNL d   1      28.261 -13.273   5.883  0.00  0.00     0.102 A 
ATOM     18  C   UNL d   1      28.125 -14.473   5.175  0.00  0.00     0.037 A 
ATOM     19  C   UNL d   1      27.780 -14.450   3.814  0.00  0.00     0.018 A 
BRANCH  17  20
ATOM     20  N   UNL d   1      28.513 -13.293   7.333  0.00  0.00    -0.116 N 
ATOM     21  O   UNL d   1      28.910 -14.344   7.836  0.00  0.00    -0.532 OA
ATOM     22  O   UNL d   1      28.350 -12.224   7.953  0.00  0.00    -0.532 OA
ENDBRANCH  17  20
ENDBRANCH  12  14
ENDBRANCH   8   9
ENDBRANCH   4   8
BRANCH   1  23
ATOM     23  C   UNL d   1      25.121 -14.654  -3.122  0.00  0.00     0.226 C 
ATOM     24  O   UNL d   1      23.925 -14.450  -3.099  0.00  0.00    -0.273 OA
ATOM     25  N   UNL d   1      25.848 -15.327  -2.129  0.00  0.00    -0.324 N 
ATOM     26  H   UNL d   1      26.839 -15.163  -2.027  0.00  0.00     0.169 HD
BRANCH  25  27
ATOM     27  C   UNL d   1      25.397 -16.336  -1.256  0.00  0.00     0.069 C 
ATOM     28  C   UNL d   1      24.015 -16.564  -1.267  0.00  0.00     0.056 C 
ATOM     29  C   UNL d   1      23.512 -17.713  -0.678  0.00  0.00     0.036 C 
ATOM     30 CL   UNL d   1      21.854 -18.104  -0.895  0.00  0.00    -0.084 Cl
ATOM     31  C   UNL d   1      24.365 -18.575   0.005  0.00  0.00     0.026 C 
ATOM     32  C   UNL d   1      25.706 -18.228   0.198  0.00  0.00     0.040 C 
ATOM     33  C   UNL d   1      26.207 -17.073  -0.391  0.00  0.00     0.092 C 
BRANCH  33  34
ATOM     34  O   UNL d   1      27.438 -16.605  -0.025  0.00  0.00    -0.358 OA
ATOM     35  H   UNL d   1      27.339 -15.677   0.258  0.00  0.00     0.217 HD
ENDBRANCH  33  34
ENDBRANCH  25  27
ENDBRANCH   1  23
TORSDOF 7
ENDMDL
MODEL 7
REMARK VINA RESULT:    -8.067      4.488      5.880
REMARK INTER + INTRA:         -14.550
REMARK INTER:                 -10.155
REMARK INTRA:                  -4.396
REMARK CONF_INDEPENDENT:        2.088
REMARK UNBOUND:                -4.396
REMARK  7 active torsions:
REMARK  status: ('A' for Active; 'I' for Inactive)
REMARK       I    between atoms: C_2  and  N_3 
REMARK    1  A    between atoms: C_2  and  C_12 
REMARK    2  A    between atoms: N_3  and  C_4 
REMARK    3  A    between atoms: C_10  and  O_11 
REMARK    4  A    between atoms: N_15  and  C_16 
REMARK    5  A    between atoms: C_16  and  C_17 
REMARK    6  A    between atoms: C_20  and  C_21 
REMARK    7  A    between atoms: C_24  and  N_25 
ROOT
ATOM      1  C   UNL d   1      31.139 -15.442  -2.756  0.00  0.00     0.081 C 
ATOM      2  C   UNL d   1      31.392 -16.716  -1.924  0.00  0.00     0.042 C 
ATOM      3  C   UNL d   1      30.229 -16.990  -0.974  0.00  0.00     0.236 C 
ATOM      4  N   UNL d   1      29.979 -15.777  -0.059  0.00  0.00    -0.064 N 
ATOM      5  C   UNL d   1      30.041 -14.460  -0.762  0.00  0.00     0.236 C 
ATOM      6  C   UNL d   1      31.230 -14.326  -1.724  0.00  0.00     0.042 C 
ATOM      7  H   UNL d   1      30.683 -15.776   0.690  0.00  0.00     0.280 HD
ENDROOT
BRANCH   4   8
ATOM      8  C   UNL d   1      28.577 -15.897   0.628  0.00  0.00     0.322 C 
BRANCH   8   9
ATOM      9  C   UNL d   1      27.394 -16.054  -0.289  0.00  0.00     0.195 A 
ATOM     10  N   UNL d   1      27.294 -15.663  -1.538  0.00  0.00    -0.125 NA
ATOM     11  N   UNL d   1      26.081 -16.117  -2.002  0.00  0.00    -0.121 NA
ATOM     12  C   UNL d   1      25.488 -16.740  -1.006  0.00  0.00     0.202 A 
ATOM     13  O   UNL d   1      26.262 -16.731   0.140  0.00  0.00    -0.271 OA
BRANCH  12  14
ATOM     14  C   UNL d   1      24.174 -17.382  -0.978  0.00  0.00     0.019 A 
ATOM     15  C   UNL d   1      22.997 -16.617  -1.093  0.00  0.00     0.018 A 
ATOM     16  C   UNL d   1      21.732 -17.197  -0.895  0.00  0.00     0.037 A 
ATOM     17  C   UNL d   1      21.633 -18.572  -0.645  0.00  0.00     0.102 A 
ATOM     18  C   UNL d   1      22.794 -19.344  -0.521  0.00  0.00     0.037 A 
ATOM     19  C   UNL d   1      24.055 -18.749  -0.687  0.00  0.00     0.018 A 
BRANCH  17  20
ATOM     20  N   UNL d   1      20.308 -19.210  -0.581  0.00  0.00    -0.116 N 
ATOM     21  O   UNL d   1      19.705 -19.183   0.492  0.00  0.00    -0.532 OA
ATOM     22  O   UNL d   1      19.862 -19.699  -1.636  0.00  0.00    -0.532 OA
ENDBRANCH  17  20
ENDBRANCH  12  14
ENDBRANCH   8   9
ENDBRANCH   4   8
BRANCH   1  23
ATOM     23  C   UNL d   1      29.756 -15.361  -3.490  0.00  0.00     0.226 C 
ATOM     24  O   UNL d   1      29.141 -16.367  -3.776  0.00  0.00    -0.273 OA
ATOM     25  N   UNL d   1      29.315 -14.049  -3.716  0.00  0.00    -0.324 N 
ATOM     26  H   UNL d   1      29.982 -13.294  -3.786  0.00  0.00     0.169 HD
BRANCH  25  27
ATOM     27  C   UNL d   1      27.990 -13.574  -3.767  0.00  0.00     0.069 C 
ATOM     28  C   UNL d   1      27.770 -12.345  -3.130  0.00  0.00     0.056 C 
ATOM     29  C   UNL d   1      26.592 -11.657  -3.372  0.00  0.00     0.036 C 
ATOM     30 CL   UNL d   1      26.424 -10.055  -2.780  0.00  0.00    -0.084 Cl
ATOM     31  C   UNL d   1      25.598 -12.235  -4.158  0.00  0.00     0.026 C 
ATOM     32  C   UNL d   1      25.737 -13.551  -4.609  0.00  0.00     0.040 C 
ATOM     33  C   UNL d   1      26.919 -14.240  -4.362  0.00  0.00     0.092 C 
BRANCH  33  34
ATOM     34  O   UNL d   1      26.978 -15.587  -4.590  0.00  0.00    -0.358 OA
ATOM     35  H   UNL d   1      27.165 -16.031  -3.741  0.00  0.00     0.217 HD
ENDBRANCH  33  34
ENDBRANCH  25  27
ENDBRANCH   1  23
TORSDOF 7
ENDMDL
