MODEL 1
REMARK VINA RESULT:    -9.695      0.000      0.000
REMARK INTER + INTRA:         -13.611
REMARK INTER:                 -12.379
REMARK INTRA:                  -1.231
REMARK CONF_INDEPENDENT:        2.685
REMARK UNBOUND:                -1.231
REMARK  9 active torsions:
REMARK  status: ('A' for Active; 'I' for Inactive)
REMARK    1  A    between atoms: O_2  and  C_3 
REMARK    2  A    between atoms: C_3  and  C_5 
REMARK    3  A    between atoms: C_8  and  N_9 
REMARK    4  A    between atoms: N_9  and  C_10 
REMARK    5  A    between atoms: C_10  and  C_11 
REMARK       I    between atoms: C_11  and  N_13 
REMARK    6  A    between atoms: N_13  and  C_14 
REMARK    7  A    between atoms: C_17  and  C_18 
REMARK       I    between atoms: C_18  and  N_20 
REMARK    8  A    between atoms: N_20  and  C_21 
REMARK    9  A    between atoms: C_21  and  C_23 
ROOT
ATOM      1  C   UNL d   1      28.281 -14.465   3.518  0.00  0.00     0.034 A 
ATOM      2  C   UNL d   1      27.202 -13.976   4.258  0.00  0.00     0.030 A 
ATOM      3  C   UNL d   1      27.405 -13.493   5.568  0.00  0.00     0.019 A 
ATOM      4  C   UNL d   1      28.680 -13.515   6.167  0.00  0.00     0.032 A 
ATOM      5  C   UNL d   1      29.753 -13.977   5.406  0.00  0.00     0.019 A 
ATOM      6  C   UNL d   1      29.550 -14.450   4.103  0.00  0.00     0.030 A 
ENDROOT
BRANCH   1   7
ATOM      7  N   UNL d   1      28.113 -14.922   2.184  0.00  0.00    -0.326 N 
ATOM      8  C   UNL d   1      27.368 -14.213   1.238  0.00  0.00     0.239 C 
ATOM      9  O   UNL d   1      26.858 -13.110   1.449  0.00  0.00    -0.271 OA
ATOM     10  H   UNL d   1      28.665 -15.720   1.894  0.00  0.00     0.169 HD
BRANCH   8  11
ATOM     11  C   UNL d   1      27.229 -14.882  -0.149  0.00  0.00     0.223 C 
BRANCH  11  12
ATOM     12  N   UNL d   1      26.861 -16.302  -0.003  0.00  0.00    -0.381 N 
ATOM     13  H   UNL d   1      27.656 -16.943  -0.032  0.00  0.00     0.160 HD
BRANCH  12  14
ATOM     14  C   UNL d   1      25.600 -16.804  -0.284  0.00  0.00     0.028 A 
ATOM     15  C   UNL d   1      25.222 -18.078   0.170  0.00  0.00     0.030 A 
ATOM     16  C   UNL d   1      23.946 -18.610  -0.107  0.00  0.00     0.020 A 
ATOM     17  C   UNL d   1      22.988 -17.842  -0.778  0.00  0.00     0.039 A 
ATOM     18  C   UNL d   1      23.333 -16.557  -1.196  0.00  0.00     0.020 A 
ATOM     19  C   UNL d   1      24.619 -16.051  -0.942  0.00  0.00     0.030 A 
BRANCH  17  20
ATOM     20  C   UNL d   1      21.593 -18.337  -0.895  0.00  0.00     0.292 C 
ATOM     21  O   UNL d   1      20.658 -17.603  -1.215  0.00  0.00    -0.259 OA
BRANCH  20  22
ATOM     22  O   UNL d   1      21.496 -19.658  -0.609  0.00  0.00    -0.323 OA
ATOM     23  C   UNL d   1      20.229 -20.048  -0.056  0.00  0.00     0.213 C 
ENDBRANCH  20  22
ENDBRANCH  17  20
ENDBRANCH  12  14
ENDBRANCH  11  12
ENDBRANCH   8  11
ENDBRANCH   1   7
BRANCH   4  24
ATOM     24  C   UNL d   1      28.817 -13.085   7.601  0.00  0.00     0.252 C 
ATOM     25  O   UNL d   1      28.735 -11.890   7.871  0.00  0.00    -0.268 OA
ATOM     26  N   UNL d   1      28.993 -14.057   8.573  0.00  0.00    -0.349 N 
ATOM     27  H   UNL d   1      29.056 -15.034   8.332  0.00  0.00     0.163 HD
BRANCH  26  28
ATOM     28  C   UNL d   1      29.046 -13.747  10.009  0.00  0.00     0.114 C 
ATOM     29  C   UNL d   1      27.782 -14.250  10.722  0.00  0.00     0.037 C 
BRANCH  28  30
ATOM     30  C   UNL d   1      30.313 -14.366  10.607  0.00  0.00    -0.036 A 
ATOM     31  C   UNL d   1      31.571 -13.799  10.349  0.00  0.00     0.009 A 
ATOM     32  C   UNL d   1      32.740 -14.493  10.685  0.00  0.00     0.001 A 
ATOM     33  C   UNL d   1      32.672 -15.709  11.364  0.00  0.00     0.000 A 
ATOM     34  C   UNL d   1      31.437 -16.242  11.702  0.00  0.00     0.001 A 
ATOM     35  C   UNL d   1      30.274 -15.576  11.326  0.00  0.00     0.009 A 
ENDBRANCH  28  30
ENDBRANCH  26  28
ENDBRANCH   4  24
TORSDOF 9
ENDMDL
MODEL 2
REMARK VINA RESULT:    -9.420      1.345      2.068
REMARK INTER + INTRA:         -13.464
REMARK INTER:                 -12.105
REMARK INTRA:                  -1.359
REMARK CONF_INDEPENDENT:        2.685
REMARK UNBOUND:                -1.359
REMARK  9 active torsions:
REMARK  status: ('A' for Active; 'I' for Inactive)
REMARK    1  A    between atoms: O_2  and  C_3 
REMARK    2  A    between atoms: C_3  and  C_5 
REMARK    3  A    between atoms: C_8  and  N_9 
REMARK    4  A    between atoms: N_9  and  C_10 
REMARK    5  A    between atoms: C_10  and  C_11 
REMARK       I    between atoms: C_11  and  N_13 
REMARK    6  A    between atoms: N_13  and  C_14 
REMARK    7  A    between atoms: C_17  and  C_18 
REMARK       I    between atoms: C_18  and  N_20 
REMARK    8  A    between atoms: N_20  and  C_21 
REMARK    9  A    between atoms: C_21  and  C_23 
ROOT
ATOM      1  C   UNL d   1      28.196 -14.479   3.157  0.00  0.00     0.034 A 
ATOM      2  C   UNL d   1      27.259 -14.078   4.113  0.00  0.00     0.030 A 
ATOM      3  C   UNL d   1      27.688 -13.468   5.310  0.00  0.00     0.019 A 
ATOM      4  C   UNL d   1      29.057 -13.275   5.583  0.00  0.00     0.032 A 
ATOM      5  C   UNL d   1      29.979 -13.652   4.608  0.00  0.00     0.019 A 
ATOM      6  C   UNL d   1      29.549 -14.251   3.416  0.00  0.00     0.030 A 
ENDROOT
BRANCH   1   7
ATOM      7  N   UNL d   1      27.790 -15.061   1.927  0.00  0.00    -0.326 N 
ATOM      8  C   UNL d   1      27.046 -14.358   0.975  0.00  0.00     0.239 C 
ATOM      9  O   UNL d   1      26.742 -13.167   1.082  0.00  0.00    -0.271 OA
ATOM     10  H   UNL d   1      28.172 -15.970   1.695  0.00  0.00     0.169 HD
BRANCH   8  11
ATOM     11  C   UNL d   1      26.631 -15.158  -0.280  0.00  0.00     0.223 C 
BRANCH  11  12
ATOM     12  N   UNL d   1      26.254 -16.535   0.085  0.00  0.00    -0.381 N 
ATOM     13  H   UNL d   1      27.050 -17.151   0.262  0.00  0.00     0.160 HD
BRANCH  12  14
ATOM     14  C   UNL d   1      25.034 -17.111  -0.232  0.00  0.00     0.028 A 
ATOM     15  C   UNL d   1      24.870 -18.505  -0.185  0.00  0.00     0.030 A 
ATOM     16  C   UNL d   1      23.639 -19.113  -0.508  0.00  0.00     0.020 A 
ATOM     17  C   UNL d   1      22.519 -18.329  -0.806  0.00  0.00     0.039 A 
ATOM     18  C   UNL d   1      22.654 -16.941  -0.812  0.00  0.00     0.020 A 
ATOM     19  C   UNL d   1      23.895 -16.350  -0.520  0.00  0.00     0.030 A 
BRANCH  17  20
ATOM     20  C   UNL d   1      21.187 -18.970  -0.955  0.00  0.00     0.292 C 
ATOM     21  O   UNL d   1      20.811 -19.467  -2.016  0.00  0.00    -0.259 OA
BRANCH  20  22
ATOM     22  O   UNL d   1      20.471 -18.931   0.195  0.00  0.00    -0.323 OA
ATOM     23  C   UNL d   1      19.530 -20.005   0.338  0.00  0.00     0.213 C 
ENDBRANCH  20  22
ENDBRANCH  17  20
ENDBRANCH  12  14
ENDBRANCH  11  12
ENDBRANCH   8  11
ENDBRANCH   1   7
BRANCH   4  24
ATOM     24  C   UNL d   1      29.460 -12.717   6.919  0.00  0.00     0.252 C 
ATOM     25  O   UNL d   1      28.622 -12.120   7.589  0.00  0.00    -0.268 OA
ATOM     26  N   UNL d   1      30.755 -12.929   7.366  0.00  0.00    -0.349 N 
ATOM     27  H   UNL d   1      31.428 -13.423   6.802  0.00  0.00     0.163 HD
BRANCH  26  28
ATOM     28  C   UNL d   1      31.219 -12.504   8.694  0.00  0.00     0.114 C 
ATOM     29  C   UNL d   1      31.376 -10.978   8.754  0.00  0.00     0.037 C 
BRANCH  28  30
ATOM     30  C   UNL d   1      30.235 -13.011   9.753  0.00  0.00    -0.036 A 
ATOM     31  C   UNL d   1      29.975 -14.384   9.883  0.00  0.00     0.009 A 
ATOM     32  C   UNL d   1      28.907 -14.828  10.672  0.00  0.00     0.001 A 
ATOM     33  C   UNL d   1      28.148 -13.923  11.412  0.00  0.00     0.000 A 
ATOM     34  C   UNL d   1      28.446 -12.570  11.361  0.00  0.00     0.001 A 
ATOM     35  C   UNL d   1      29.478 -12.122  10.540  0.00  0.00     0.009 A 
ENDBRANCH  28  30
ENDBRANCH  26  28
ENDBRANCH   4  24
TORSDOF 9
ENDMDL
MODEL 3
REMARK VINA RESULT:    -9.259      8.567     12.958
REMARK INTER + INTRA:         -13.084
REMARK INTER:                 -11.943
REMARK INTRA:                  -1.141
REMARK CONF_INDEPENDENT:        2.685
REMARK UNBOUND:                -1.141
REMARK  9 active torsions:
REMARK  status: ('A' for Active; 'I' for Inactive)
REMARK    1  A    between atoms: O_2  and  C_3 
REMARK    2  A    between atoms: C_3  and  C_5 
REMARK    3  A    between atoms: C_8  and  N_9 
REMARK    4  A    between atoms: N_9  and  C_10 
REMARK    5  A    between atoms: C_10  and  C_11 
REMARK       I    between atoms: C_11  and  N_13 
REMARK    6  A    between atoms: N_13  and  C_14 
REMARK    7  A    between atoms: C_17  and  C_18 
REMARK       I    between atoms: C_18  and  N_20 
REMARK    8  A    between atoms: N_20  and  C_21 
REMARK    9  A    between atoms: C_21  and  C_23 
ROOT
ATOM      1  C   UNL d   1      26.078 -12.005  -4.008  0.00  0.00     0.034 A 
ATOM      2  C   UNL d   1      25.786 -10.908  -3.192  0.00  0.00     0.030 A 
ATOM      3  C   UNL d   1      25.370  -9.690  -3.769  0.00  0.00     0.019 A 
ATOM      4  C   UNL d   1      25.266  -9.539  -5.166  0.00  0.00     0.032 A 
ATOM      5  C   UNL d   1      25.530 -10.650  -5.966  0.00  0.00     0.019 A 
ATOM      6  C   UNL d   1      25.936 -11.861  -5.390  0.00  0.00     0.030 A 
ENDROOT
BRANCH   1   7
ATOM      7  N   UNL d   1      26.462 -13.254  -3.454  0.00  0.00    -0.326 N 
ATOM      8  C   UNL d   1      25.586 -14.341  -3.377  0.00  0.00     0.239 C 
ATOM      9  O   UNL d   1      24.443 -14.337  -3.841  0.00  0.00    -0.271 OA
ATOM     10  H   UNL d   1      27.442 -13.382  -3.232  0.00  0.00     0.169 HD
BRANCH   8  11
ATOM     11  C   UNL d   1      26.142 -15.606  -2.685  0.00  0.00     0.223 C 
BRANCH  11  12
ATOM     12  N   UNL d   1      25.527 -15.782  -1.357  0.00  0.00    -0.381 N 
ATOM     13  H   UNL d   1      26.139 -15.528  -0.579  0.00  0.00     0.160 HD
BRANCH  12  14
ATOM     14  C   UNL d   1      24.462 -16.632  -1.107  0.00  0.00     0.028 A 
ATOM     15  C   UNL d   1      23.142 -16.153  -1.149  0.00  0.00     0.030 A 
ATOM     16  C   UNL d   1      22.043 -16.998  -0.894  0.00  0.00     0.020 A 
ATOM     17  C   UNL d   1      22.238 -18.365  -0.671  0.00  0.00     0.039 A 
ATOM     18  C   UNL d   1      23.540 -18.865  -0.671  0.00  0.00     0.020 A 
ATOM     19  C   UNL d   1      24.629 -18.006  -0.894  0.00  0.00     0.030 A 
BRANCH  17  20
ATOM     20  C   UNL d   1      21.067 -19.276  -0.594  0.00  0.00     0.292 C 
ATOM     21  O   UNL d   1      20.495 -19.699  -1.598  0.00  0.00    -0.259 OA
BRANCH  20  22
ATOM     22  O   UNL d   1      20.729 -19.564   0.686  0.00  0.00    -0.323 OA
ATOM     23  C   UNL d   1      19.437 -20.175   0.829  0.00  0.00     0.213 C 
ENDBRANCH  20  22
ENDBRANCH  17  20
ENDBRANCH  12  14
ENDBRANCH  11  12
ENDBRANCH   8  11
ENDBRANCH   1   7
BRANCH   4  24
ATOM     24  C   UNL d   1      24.919  -8.189  -5.728  0.00  0.00     0.252 C 
ATOM     25  O   UNL d   1      25.398  -7.857  -6.809  0.00  0.00    -0.268 OA
ATOM     26  N   UNL d   1      24.040  -7.381  -5.025  0.00  0.00    -0.349 N 
ATOM     27  H   UNL d   1      23.656  -7.672  -4.140  0.00  0.00     0.163 HD
BRANCH  26  28
ATOM     28  C   UNL d   1      23.568  -6.086  -5.533  0.00  0.00     0.114 C 
ATOM     29  C   UNL d   1      24.719  -5.301  -6.178  0.00  0.00     0.037 C 
BRANCH  28  30
ATOM     30  C   UNL d   1      22.425  -6.324  -6.525  0.00  0.00    -0.036 A 
ATOM     31  C   UNL d   1      22.698  -6.575  -7.878  0.00  0.00     0.009 A 
ATOM     32  C   UNL d   1      21.665  -6.550  -8.823  0.00  0.00     0.001 A 
ATOM     33  C   UNL d   1      20.342  -6.368  -8.423  0.00  0.00     0.000 A 
ATOM     34  C   UNL d   1      20.045  -6.203  -7.078  0.00  0.00     0.001 A 
ATOM     35  C   UNL d   1      21.077  -6.181  -6.143  0.00  0.00     0.009 A 
ENDBRANCH  28  30
ENDBRANCH  26  28
ENDBRANCH   4  24
TORSDOF 9
ENDMDL
MODEL 4
REMARK VINA RESULT:    -9.241      1.925      2.449
REMARK INTER + INTRA:         -13.309
REMARK INTER:                 -11.926
REMARK INTRA:                  -1.383
REMARK CONF_INDEPENDENT:        2.685
REMARK UNBOUND:                -1.383
REMARK  9 active torsions:
REMARK  status: ('A' for Active; 'I' for Inactive)
REMARK    1  A    between atoms: O_2  and  C_3 
REMARK    2  A    between atoms: C_3  and  C_5 
REMARK    3  A    between atoms: C_8  and  N_9 
REMARK    4  A    between atoms: N_9  and  C_10 
REMARK    5  A    between atoms: C_10  and  C_11 
REMARK       I    between atoms: C_11  and  N_13 
REMARK    6  A    between atoms: N_13  and  C_14 
REMARK    7  A    between atoms: C_17  and  C_18 
REMARK       I    between atoms: C_18  and  N_20 
REMARK    8  A    between atoms: N_20  and  C_21 
REMARK    9  A    between atoms: C_21  and  C_23 
ROOT
ATOM      1  C   UNL d   1      28.161 -14.492   3.070  0.00  0.00     0.034 A 
ATOM      2  C   UNL d   1      27.983 -15.027   4.349  0.00  0.00     0.030 A 
ATOM      3  C   UNL d   1      28.110 -14.200   5.485  0.00  0.00     0.019 A 
ATOM      4  C   UNL d   1      28.445 -12.836   5.364  0.00  0.00     0.032 A 
ATOM      5  C   UNL d   1      28.590 -12.309   4.081  0.00  0.00     0.019 A 
ATOM      6  C   UNL d   1      28.456 -13.131   2.954  0.00  0.00     0.030 A 
ENDROOT
BRANCH   1   7
ATOM      7  N   UNL d   1      28.001 -15.292   1.908  0.00  0.00    -0.326 N 
ATOM      8  C   UNL d   1      27.030 -15.021   0.940  0.00  0.00     0.239 C 
ATOM      9  O   UNL d   1      26.284 -14.040   0.971  0.00  0.00    -0.271 OA
ATOM     10  H   UNL d   1      28.707 -15.996   1.729  0.00  0.00     0.169 HD
BRANCH   8  11
ATOM     11  C   UNL d   1      26.946 -16.028  -0.229  0.00  0.00     0.223 C 
BRANCH  11  12
ATOM     12  N   UNL d   1      25.676 -15.867  -0.961  0.00  0.00    -0.381 N 
ATOM     13  H   UNL d   1      25.511 -14.920  -1.305  0.00  0.00     0.160 HD
BRANCH  12  14
ATOM     14  C   UNL d   1      24.588 -16.712  -0.810  0.00  0.00     0.028 A 
ATOM     15  C   UNL d   1      23.279 -16.218  -0.936  0.00  0.00     0.030 A 
ATOM     16  C   UNL d   1      22.157 -17.057  -0.782  0.00  0.00     0.020 A 
ATOM     17  C   UNL d   1      22.323 -18.432  -0.579  0.00  0.00     0.039 A 
ATOM     18  C   UNL d   1      23.617 -18.945  -0.495  0.00  0.00     0.020 A 
ATOM     19  C   UNL d   1      24.727 -18.092  -0.618  0.00  0.00     0.030 A 
BRANCH  17  20
ATOM     20  C   UNL d   1      21.142 -19.332  -0.609  0.00  0.00     0.292 C 
ATOM     21  O   UNL d   1      20.529 -19.579  -1.647  0.00  0.00    -0.259 OA
BRANCH  20  22
ATOM     22  O   UNL d   1      20.844 -19.823   0.618  0.00  0.00    -0.323 OA
ATOM     23  C   UNL d   1      19.460 -19.699   0.980  0.00  0.00     0.213 C 
ENDBRANCH  20  22
ENDBRANCH  17  20
ENDBRANCH  12  14
ENDBRANCH  11  12
ENDBRANCH   8  11
ENDBRANCH   1   7
BRANCH   4  24
ATOM     24  C   UNL d   1      28.671 -12.029   6.611  0.00  0.00     0.252 C 
ATOM     25  O   UNL d   1      27.780 -11.278   7.000  0.00  0.00    -0.268 OA
ATOM     26  N   UNL d   1      29.861 -12.191   7.302  0.00  0.00    -0.349 N 
ATOM     27  H   UNL d   1      30.579 -12.814   6.968  0.00  0.00     0.163 HD
BRANCH  26  28
ATOM     28  C   UNL d   1      30.138 -11.519   8.579  0.00  0.00     0.114 C 
ATOM     29  C   UNL d   1      29.810 -10.021   8.489  0.00  0.00     0.037 C 
BRANCH  28  30
ATOM     30  C   UNL d   1      29.337 -12.205   9.690  0.00  0.00    -0.036 A 
ATOM     31  C   UNL d   1      29.570 -11.884  11.037  0.00  0.00     0.009 A 
ATOM     32  C   UNL d   1      29.023 -12.674  12.055  0.00  0.00     0.001 A 
ATOM     33  C   UNL d   1      28.167 -13.731  11.750  0.00  0.00     0.000 A 
ATOM     34  C   UNL d   1      27.860 -14.009  10.426  0.00  0.00     0.001 A 
ATOM     35  C   UNL d   1      28.440 -13.254   9.411  0.00  0.00     0.009 A 
ENDBRANCH  28  30
ENDBRANCH  26  28
ENDBRANCH   4  24
TORSDOF 9
ENDMDL
MODEL 5
REMARK VINA RESULT:    -8.564      1.466      2.223
REMARK INTER + INTRA:         -12.399
REMARK INTER:                 -11.249
REMARK INTRA:                  -1.150
REMARK CONF_INDEPENDENT:        2.685
REMARK UNBOUND:                -1.150
REMARK  9 active torsions:
REMARK  status: ('A' for Active; 'I' for Inactive)
REMARK    1  A    between atoms: O_2  and  C_3 
REMARK    2  A    between atoms: C_3  and  C_5 
REMARK    3  A    between atoms: C_8  and  N_9 
REMARK    4  A    between atoms: N_9  and  C_10 
REMARK    5  A    between atoms: C_10  and  C_11 
REMARK       I    between atoms: C_11  and  N_13 
REMARK    6  A    between atoms: N_13  and  C_14 
REMARK    7  A    between atoms: C_17  and  C_18 
REMARK       I    between atoms: C_18  and  N_20 
REMARK    8  A    between atoms: N_20  and  C_21 
REMARK    9  A    between atoms: C_21  and  C_23 
ROOT
ATOM      1  C   UNL d   1      28.303 -14.157   3.868  0.00  0.00     0.034 A 
ATOM      2  C   UNL d   1      28.501 -15.165   4.815  0.00  0.00     0.030 A 
ATOM      3  C   UNL d   1      28.530 -14.846   6.189  0.00  0.00     0.019 A 
ATOM      4  C   UNL d   1      28.391 -13.517   6.636  0.00  0.00     0.032 A 
ATOM      5  C   UNL d   1      28.164 -12.526   5.682  0.00  0.00     0.019 A 
ATOM      6  C   UNL d   1      28.128 -12.846   4.318  0.00  0.00     0.030 A 
ENDROOT
BRANCH   1   7
ATOM      7  N   UNL d   1      28.230 -14.453   2.481  0.00  0.00    -0.326 N 
ATOM      8  C   UNL d   1      27.523 -13.652   1.580  0.00  0.00     0.239 C 
ATOM      9  O   UNL d   1      26.967 -12.596   1.888  0.00  0.00    -0.271 OA
ATOM     10  H   UNL d   1      28.823 -15.197   2.134  0.00  0.00     0.169 HD
BRANCH   8  11
ATOM     11  C   UNL d   1      27.489 -14.152   0.118  0.00  0.00     0.223 C 
BRANCH  11  12
ATOM     12  N   UNL d   1      27.437 -15.625   0.075  0.00  0.00    -0.381 N 
ATOM     13  H   UNL d   1      28.335 -16.066  -0.130  0.00  0.00     0.160 HD
BRANCH  12  14
ATOM     14  C   UNL d   1      26.279 -16.349  -0.157  0.00  0.00     0.028 A 
ATOM     15  C   UNL d   1      25.277 -15.841  -1.000  0.00  0.00     0.030 A 
ATOM     16  C   UNL d   1      24.089 -16.558  -1.247  0.00  0.00     0.020 A 
ATOM     17  C   UNL d   1      23.913 -17.841  -0.718  0.00  0.00     0.039 A 
ATOM     18  C   UNL d   1      24.919 -18.379   0.085  0.00  0.00     0.020 A 
ATOM     19  C   UNL d   1      26.084 -17.640   0.350  0.00  0.00     0.030 A 
BRANCH  17  20
ATOM     20  C   UNL d   1      22.748 -18.661  -1.139  0.00  0.00     0.292 C 
ATOM     21  O   UNL d   1      22.749 -19.325  -2.175  0.00  0.00    -0.259 OA
BRANCH  20  22
ATOM     22  O   UNL d   1      21.722 -18.577  -0.257  0.00  0.00    -0.323 OA
ATOM     23  C   UNL d   1      20.423 -18.726  -0.852  0.00  0.00     0.213 C 
ENDBRANCH  20  22
ENDBRANCH  17  20
ENDBRANCH  12  14
ENDBRANCH  11  12
ENDBRANCH   8  11
ENDBRANCH   1   7
BRANCH   4  24
ATOM     24  C   UNL d   1      28.536 -13.224   8.103  0.00  0.00     0.252 C 
ATOM     25  O   UNL d   1      28.151 -12.140   8.531  0.00  0.00    -0.268 OA
ATOM     26  N   UNL d   1      29.063 -14.204   8.928  0.00  0.00    -0.349 N 
ATOM     27  H   UNL d   1      29.373 -15.089   8.558  0.00  0.00     0.163 HD
BRANCH  26  28
ATOM     28  C   UNL d   1      29.161 -14.050  10.386  0.00  0.00     0.114 C 
ATOM     29  C   UNL d   1      29.897 -15.243  11.013  0.00  0.00     0.037 C 
BRANCH  28  30
ATOM     30  C   UNL d   1      29.862 -12.726  10.703  0.00  0.00    -0.036 A 
ATOM     31  C   UNL d   1      30.972 -12.310   9.950  0.00  0.00     0.009 A 
ATOM     32  C   UNL d   1      31.758 -11.237  10.385  0.00  0.00     0.001 A 
ATOM     33  C   UNL d   1      31.398 -10.508  11.518  0.00  0.00     0.000 A 
ATOM     34  C   UNL d   1      30.257 -10.853  12.226  0.00  0.00     0.001 A 
ATOM     35  C   UNL d   1      29.500 -11.950  11.821  0.00  0.00     0.009 A 
ENDBRANCH  28  30
ENDBRANCH  26  28
ENDBRANCH   4  24
TORSDOF 9
ENDMDL
MODEL 6
REMARK VINA RESULT:    -8.493      7.658     11.492
REMARK INTER + INTRA:         -12.520
REMARK INTER:                 -11.177
REMARK INTRA:                  -1.343
REMARK CONF_INDEPENDENT:        2.685
REMARK UNBOUND:                -1.343
REMARK  9 active torsions:
REMARK  status: ('A' for Active; 'I' for Inactive)
REMARK    1  A    between atoms: O_2  and  C_3 
REMARK    2  A    between atoms: C_3  and  C_5 
REMARK    3  A    between atoms: C_8  and  N_9 
REMARK    4  A    between atoms: N_9  and  C_10 
REMARK    5  A    between atoms: C_10  and  C_11 
REMARK       I    between atoms: C_11  and  N_13 
REMARK    6  A    between atoms: N_13  and  C_14 
REMARK    7  A    between atoms: C_17  and  C_18 
REMARK       I    between atoms: C_18  and  N_20 
REMARK    8  A    between atoms: N_20  and  C_21 
REMARK    9  A    between atoms: C_21  and  C_23 
ROOT
ATOM      1  C   UNL d   1      26.138 -14.016  -2.523  0.00  0.00     0.034 A 
ATOM      2  C   UNL d   1      26.591 -12.723  -2.249  0.00  0.00     0.030 A 
ATOM      3  C   UNL d   1      26.467 -11.710  -3.223  0.00  0.00     0.019 A 
ATOM      4  C   UNL d   1      25.917 -11.978  -4.492  0.00  0.00     0.032 A 
ATOM      5  C   UNL d   1      25.441 -13.265  -4.741  0.00  0.00     0.019 A 
ATOM      6  C   UNL d   1      25.559 -14.267  -3.769  0.00  0.00     0.030 A 
ENDROOT
BRANCH   1   7
ATOM      7  N   UNL d   1      26.216 -15.046  -1.548  0.00  0.00    -0.326 N 
ATOM      8  C   UNL d   1      27.065 -16.147  -1.688  0.00  0.00     0.239 C 
ATOM      9  O   UNL d   1      27.863 -16.287  -2.618  0.00  0.00    -0.271 OA
ATOM     10  H   UNL d   1      25.730 -14.893  -0.673  0.00  0.00     0.169 HD
BRANCH   8  11
ATOM     11  C   UNL d   1      26.979 -17.210  -0.569  0.00  0.00     0.223 C 
BRANCH  11  12
ATOM     12  N   UNL d   1      25.747 -17.030   0.222  0.00  0.00    -0.381 N 
ATOM     13  H   UNL d   1      25.912 -16.855   1.214  0.00  0.00     0.160 HD
BRANCH  12  14
ATOM     14  C   UNL d   1      24.507 -17.511  -0.165  0.00  0.00     0.028 A 
ATOM     15  C   UNL d   1      24.259 -18.893  -0.208  0.00  0.00     0.030 A 
ATOM     16  C   UNL d   1      23.006 -19.405  -0.602  0.00  0.00     0.020 A 
ATOM     17  C   UNL d   1      21.944 -18.539  -0.884  0.00  0.00     0.039 A 
ATOM     18  C   UNL d   1      22.161 -17.164  -0.802  0.00  0.00     0.020 A 
ATOM     19  C   UNL d   1      23.424 -16.667  -0.440  0.00  0.00     0.030 A 
BRANCH  17  20
ATOM     20  C   UNL d   1      20.582 -19.088  -1.111  0.00  0.00     0.292 C 
ATOM     21  O   UNL d   1      20.284 -19.709  -2.131  0.00  0.00    -0.259 OA
BRANCH  20  22
ATOM     22  O   UNL d   1      19.746 -18.818  -0.079  0.00  0.00    -0.323 OA
ATOM     23  C   UNL d   1      19.902 -19.695   1.048  0.00  0.00     0.213 C 
ENDBRANCH  20  22
ENDBRANCH  17  20
ENDBRANCH  12  14
ENDBRANCH  11  12
ENDBRANCH   8  11
ENDBRANCH   1   7
BRANCH   4  24
ATOM     24  C   UNL d   1      25.906 -10.886  -5.525  0.00  0.00     0.252 C 
ATOM     25  O   UNL d   1      25.310 -11.077  -6.582  0.00  0.00    -0.268 OA
ATOM     26  N   UNL d   1      26.536  -9.687  -5.233  0.00  0.00    -0.349 N 
ATOM     27  H   UNL d   1      27.018  -9.549  -4.359  0.00  0.00     0.163 HD
BRANCH  26  28
ATOM     28  C   UNL d   1      26.503  -8.529  -6.137  0.00  0.00     0.114 C 
ATOM     29  C   UNL d   1      26.595  -8.978  -7.602  0.00  0.00     0.037 C 
BRANCH  28  30
ATOM     30  C   UNL d   1      25.225  -7.726  -5.874  0.00  0.00    -0.036 A 
ATOM     31  C   UNL d   1      25.297  -6.363  -5.547  0.00  0.00     0.009 A 
ATOM     32  C   UNL d   1      24.164  -5.691  -5.071  0.00  0.00     0.001 A 
ATOM     33  C   UNL d   1      22.932  -6.339  -5.003  0.00  0.00     0.000 A 
ATOM     34  C   UNL d   1      22.826  -7.663  -5.403  0.00  0.00     0.001 A 
ATOM     35  C   UNL d   1      23.961  -8.345  -5.832  0.00  0.00     0.009 A 
ENDBRANCH  28  30
ENDBRANCH  26  28
ENDBRANCH   4  24
TORSDOF 9
ENDMDL
MODEL 7
REMARK VINA RESULT:    -8.429      8.581     12.547
REMARK INTER + INTRA:         -12.391
REMARK INTER:                 -11.113
REMARK INTRA:                  -1.277
REMARK CONF_INDEPENDENT:        2.685
REMARK UNBOUND:                -1.277
REMARK  9 active torsions:
REMARK  status: ('A' for Active; 'I' for Inactive)
REMARK    1  A    between atoms: O_2  and  C_3 
REMARK    2  A    between atoms: C_3  and  C_5 
REMARK    3  A    between atoms: C_8  and  N_9 
REMARK    4  A    between atoms: N_9  and  C_10 
REMARK    5  A    between atoms: C_10  and  C_11 
REMARK       I    between atoms: C_11  and  N_13 
REMARK    6  A    between atoms: N_13  and  C_14 
REMARK    7  A    between atoms: C_17  and  C_18 
REMARK       I    between atoms: C_18  and  N_20 
REMARK    8  A    between atoms: N_20  and  C_21 
REMARK    9  A    between atoms: C_21  and  C_23 
ROOT
ATOM      1  C   UNL d   1      25.582 -10.136  -4.427  0.00  0.00     0.034 A 
ATOM      2  C   UNL d   1      25.781 -10.636  -3.137  0.00  0.00     0.030 A 
ATOM      3  C   UNL d   1      25.913 -12.026  -2.932  0.00  0.00     0.019 A 
ATOM      4  C   UNL d   1      25.821 -12.937  -4.003  0.00  0.00     0.032 A 
ATOM      5  C   UNL d   1      25.654 -12.422  -5.287  0.00  0.00     0.019 A 
ATOM      6  C   UNL d   1      25.530 -11.041  -5.490  0.00  0.00     0.030 A 
ENDROOT
BRANCH   1   7
ATOM      7  N   UNL d   1      25.484  -8.741  -4.669  0.00  0.00    -0.326 N 
ATOM      8  C   UNL d   1      24.393  -8.170  -5.331  0.00  0.00     0.239 C 
ATOM      9  O   UNL d   1      23.401  -8.805  -5.695  0.00  0.00    -0.271 OA
ATOM     10  H   UNL d   1      26.171  -8.143  -4.226  0.00  0.00     0.169 HD
BRANCH   8  11
ATOM     11  C   UNL d   1      24.473  -6.645  -5.571  0.00  0.00     0.223 C 
BRANCH  11  12
ATOM     12  N   UNL d   1      23.976  -6.306  -6.917  0.00  0.00    -0.381 N 
ATOM     13  H   UNL d   1      24.637  -5.768  -7.480  0.00  0.00     0.160 HD
BRANCH  12  14
ATOM     14  C   UNL d   1      22.633  -6.260  -7.253  0.00  0.00     0.028 A 
ATOM     15  C   UNL d   1      22.215  -6.561  -8.560  0.00  0.00     0.030 A 
ATOM     16  C   UNL d   1      20.854  -6.517  -8.927  0.00  0.00     0.020 A 
ATOM     17  C   UNL d   1      19.871  -6.249  -7.968  0.00  0.00     0.039 A 
ATOM     18  C   UNL d   1      20.267  -5.992  -6.655  0.00  0.00     0.020 A 
ATOM     19  C   UNL d   1      21.629  -6.007  -6.311  0.00  0.00     0.030 A 
BRANCH  17  20
ATOM     20  C   UNL d   1      18.435  -6.393  -8.321  0.00  0.00     0.292 C 
ATOM     21  O   UNL d   1      17.705  -5.422  -8.517  0.00  0.00    -0.259 OA
BRANCH  20  22
ATOM     22  O   UNL d   1      18.056  -7.692  -8.392  0.00  0.00    -0.323 OA
ATOM     23  C   UNL d   1      18.029  -8.367  -7.125  0.00  0.00     0.213 C 
ENDBRANCH  20  22
ENDBRANCH  17  20
ENDBRANCH  12  14
ENDBRANCH  11  12
ENDBRANCH   8  11
ENDBRANCH   1   7
BRANCH   4  24
ATOM     24  C   UNL d   1      25.865 -14.410  -3.710  0.00  0.00     0.252 C 
ATOM     25  O   UNL d   1      25.706 -15.203  -4.634  0.00  0.00    -0.268 OA
ATOM     26  N   UNL d   1      26.122 -14.823  -2.413  0.00  0.00    -0.349 N 
ATOM     27  H   UNL d   1      26.252 -14.157  -1.667  0.00  0.00     0.163 HD
BRANCH  26  28
ATOM     28  C   UNL d   1      26.276 -16.237  -2.043  0.00  0.00     0.114 C 
ATOM     29  C   UNL d   1      27.560 -16.452  -1.229  0.00  0.00     0.037 C 
BRANCH  28  30
ATOM     30  C   UNL d   1      25.035 -16.688  -1.265  0.00  0.00    -0.036 A 
ATOM     31  C   UNL d   1      25.074 -17.846  -0.472  0.00  0.00     0.009 A 
ATOM     32  C   UNL d   1      23.890 -18.392   0.038  0.00  0.00     0.001 A 
ATOM     33  C   UNL d   1      22.671 -17.746  -0.155  0.00  0.00     0.000 A 
ATOM     34  C   UNL d   1      22.626 -16.555  -0.865  0.00  0.00     0.001 A 
ATOM     35  C   UNL d   1      23.796 -16.035  -1.413  0.00  0.00     0.009 A 
ENDBRANCH  28  30
ENDBRANCH  26  28
ENDBRANCH   4  24
TORSDOF 9
ENDMDL
MODEL 8
REMARK VINA RESULT:    -8.424      1.133      1.545
REMARK INTER + INTRA:         -12.424
REMARK INTER:                 -11.109
REMARK INTRA:                  -1.315
REMARK CONF_INDEPENDENT:        2.685
REMARK UNBOUND:                -1.315
REMARK  9 active torsions:
REMARK  status: ('A' for Active; 'I' for Inactive)
REMARK    1  A    between atoms: O_2  and  C_3 
REMARK    2  A    between atoms: C_3  and  C_5 
REMARK    3  A    between atoms: C_8  and  N_9 
REMARK    4  A    between atoms: N_9  and  C_10 
REMARK    5  A    between atoms: C_10  and  C_11 
REMARK       I    between atoms: C_11  and  N_13 
REMARK    6  A    between atoms: N_13  and  C_14 
REMARK    7  A    between atoms: C_17  and  C_18 
REMARK       I    between atoms: C_18  and  N_20 
REMARK    8  A    between atoms: N_20  and  C_21 
REMARK    9  A    between atoms: C_21  and  C_23 
ROOT
ATOM      1  C   UNL d   1      28.386 -14.315   3.471  0.00  0.00     0.034 A 
ATOM      2  C   UNL d   1      28.781 -13.015   3.794  0.00  0.00     0.030 A 
ATOM      3  C   UNL d   1      28.884 -12.623   5.145  0.00  0.00     0.019 A 
ATOM      4  C   UNL d   1      28.568 -13.512   6.192  0.00  0.00     0.032 A 
ATOM      5  C   UNL d   1      28.205 -14.816   5.856  0.00  0.00     0.019 A 
ATOM      6  C   UNL d   1      28.110 -15.204   4.512  0.00  0.00     0.030 A 
ENDROOT
BRANCH   1   7
ATOM      7  N   UNL d   1      28.310 -14.748   2.121  0.00  0.00    -0.326 N 
ATOM      8  C   UNL d   1      27.485 -14.127   1.180  0.00  0.00     0.239 C 
ATOM      9  O   UNL d   1      26.814 -13.119   1.413  0.00  0.00    -0.271 OA
ATOM     10  H   UNL d   1      28.979 -15.447   1.819  0.00  0.00     0.169 HD
BRANCH   8  11
ATOM     11  C   UNL d   1      27.471 -14.763  -0.229  0.00  0.00     0.223 C 
BRANCH  11  12
ATOM     12  N   UNL d   1      27.279 -16.222  -0.136  0.00  0.00    -0.381 N 
ATOM     13  H   UNL d   1      28.143 -16.761  -0.222  0.00  0.00     0.160 HD
BRANCH  12  14
ATOM     14  C   UNL d   1      26.076 -16.859  -0.394  0.00  0.00     0.028 A 
ATOM     15  C   UNL d   1      25.635 -17.909   0.428  0.00  0.00     0.030 A 
ATOM     16  C   UNL d   1      24.417 -18.575   0.182  0.00  0.00     0.020 A 
ATOM     17  C   UNL d   1      23.572 -18.148  -0.848  0.00  0.00     0.039 A 
ATOM     18  C   UNL d   1      23.975 -17.077  -1.645  0.00  0.00     0.020 A 
ATOM     19  C   UNL d   1      25.206 -16.443  -1.409  0.00  0.00     0.030 A 
BRANCH  17  20
ATOM     20  C   UNL d   1      22.211 -18.729  -0.976  0.00  0.00     0.292 C 
ATOM     21  O   UNL d   1      21.842 -19.325  -1.988  0.00  0.00    -0.259 OA
BRANCH  20  22
ATOM     22  O   UNL d   1      21.460 -18.518   0.132  0.00  0.00    -0.323 OA
ATOM     23  C   UNL d   1      20.646 -19.639   0.513  0.00  0.00     0.213 C 
ENDBRANCH  20  22
ENDBRANCH  17  20
ENDBRANCH  12  14
ENDBRANCH  11  12
ENDBRANCH   8  11
ENDBRANCH   1   7
BRANCH   4  24
ATOM     24  C   UNL d   1      28.594 -13.009   7.607  0.00  0.00     0.252 C 
ATOM     25  O   UNL d   1      28.305 -11.835   7.824  0.00  0.00    -0.268 OA
ATOM     26  N   UNL d   1      28.907 -13.897   8.624  0.00  0.00    -0.349 N 
ATOM     27  H   UNL d   1      29.140 -14.857   8.426  0.00  0.00     0.163 HD
BRANCH  26  28
ATOM     28  C   UNL d   1      28.870 -13.526  10.045  0.00  0.00     0.114 C 
ATOM     29  C   UNL d   1      28.525 -14.741  10.917  0.00  0.00     0.037 C 
BRANCH  28  30
ATOM     30  C   UNL d   1      30.220 -12.917  10.438  0.00  0.00    -0.036 A 
ATOM     31  C   UNL d   1      30.509 -11.576  10.141  0.00  0.00     0.009 A 
ATOM     32  C   UNL d   1      31.814 -11.088  10.274  0.00  0.00     0.001 A 
ATOM     33  C   UNL d   1      32.824 -11.899  10.790  0.00  0.00     0.000 A 
ATOM     34  C   UNL d   1      32.536 -13.202  11.168  0.00  0.00     0.001 A 
ATOM     35  C   UNL d   1      31.249 -13.702  10.992  0.00  0.00     0.009 A 
ENDBRANCH  28  30
ENDBRANCH  26  28
ENDBRANCH   4  24
TORSDOF 9
ENDMDL
MODEL 9
REMARK VINA RESULT:    -7.784      2.483     10.928
REMARK INTER + INTRA:         -11.936
REMARK INTER:                 -10.468
REMARK INTRA:                  -1.468
REMARK CONF_INDEPENDENT:        2.685
REMARK UNBOUND:                -1.468
REMARK  9 active torsions:
REMARK  status: ('A' for Active; 'I' for Inactive)
REMARK    1  A    between atoms: O_2  and  C_3 
REMARK    2  A    between atoms: C_3  and  C_5 
REMARK    3  A    between atoms: C_8  and  N_9 
REMARK    4  A    between atoms: N_9  and  C_10 
REMARK    5  A    between atoms: C_10  and  C_11 
REMARK       I    between atoms: C_11  and  N_13 
REMARK    6  A    between atoms: N_13  and  C_14 
REMARK    7  A    between atoms: C_17  and  C_18 
REMARK       I    between atoms: C_18  and  N_20 
REMARK    8  A    between atoms: N_20  and  C_21 
REMARK    9  A    between atoms: C_21  and  C_23 
ROOT
ATOM      1  C   UNL d   1      27.783 -12.109   4.623  0.00  0.00     0.034 A 
ATOM      2  C   UNL d   1      27.633 -13.498   4.620  0.00  0.00     0.030 A 
ATOM      3  C   UNL d   1      27.545 -14.197   3.398  0.00  0.00     0.019 A 
ATOM      4  C   UNL d   1      27.578 -13.519   2.163  0.00  0.00     0.032 A 
ATOM      5  C   UNL d   1      27.759 -12.136   2.179  0.00  0.00     0.019 A 
ATOM      6  C   UNL d   1      27.853 -11.446   3.395  0.00  0.00     0.030 A 
ENDROOT
BRANCH   1   7
ATOM      7  N   UNL d   1      27.912 -11.384   5.837  0.00  0.00    -0.326 N 
ATOM      8  C   UNL d   1      29.141 -10.897   6.291  0.00  0.00     0.239 C 
ATOM      9  O   UNL d   1      30.194 -10.987   5.656  0.00  0.00    -0.271 OA
ATOM     10  H   UNL d   1      27.058 -11.110   6.307  0.00  0.00     0.169 HD
BRANCH   8  11
ATOM     11  C   UNL d   1      29.118 -10.187   7.664  0.00  0.00     0.223 C 
BRANCH  11  12
ATOM     12  N   UNL d   1      28.522 -11.062   8.689  0.00  0.00    -0.381 N 
ATOM     13  H   UNL d   1      27.894 -10.579   9.334  0.00  0.00     0.160 HD
BRANCH  12  14
ATOM     14  C   UNL d   1      29.074 -12.269   9.088  0.00  0.00     0.028 A 
ATOM     15  C   UNL d   1      30.440 -12.528   8.891  0.00  0.00     0.030 A 
ATOM     16  C   UNL d   1      31.023 -13.750   9.284  0.00  0.00     0.020 A 
ATOM     17  C   UNL d   1      30.263 -14.711   9.960  0.00  0.00     0.039 A 
ATOM     18  C   UNL d   1      28.915 -14.451  10.203  0.00  0.00     0.020 A 
ATOM     19  C   UNL d   1      28.340 -13.242   9.777  0.00  0.00     0.030 A 
BRANCH  17  20
ATOM     20  C   UNL d   1      30.929 -15.908  10.536  0.00  0.00     0.292 C 
ATOM     21  O   UNL d   1      30.507 -17.049  10.352  0.00  0.00    -0.259 OA
BRANCH  20  22
ATOM     22  O   UNL d   1      32.022 -15.580  11.268  0.00  0.00    -0.323 OA
ATOM     23  C   UNL d   1      33.249 -15.579  10.522  0.00  0.00     0.213 C 
ENDBRANCH  20  22
ENDBRANCH  17  20
ENDBRANCH  12  14
ENDBRANCH  11  12
ENDBRANCH   8  11
ENDBRANCH   1   7
BRANCH   4  24
ATOM     24  C   UNL d   1      27.375 -14.303   0.897  0.00  0.00     0.252 C 
ATOM     25  O   UNL d   1      26.669 -13.827   0.012  0.00  0.00    -0.268 OA
ATOM     26  N   UNL d   1      28.024 -15.519   0.756  0.00  0.00    -0.349 N 
ATOM     27  H   UNL d   1      28.601 -15.893   1.494  0.00  0.00     0.163 HD
BRANCH  26  28
ATOM     28  C   UNL d   1      27.964 -16.316  -0.477  0.00  0.00     0.114 C 
ATOM     29  C   UNL d   1      29.022 -17.429  -0.459  0.00  0.00     0.037 C 
BRANCH  28  30
ATOM     30  C   UNL d   1      26.551 -16.886  -0.635  0.00  0.00    -0.036 A 
ATOM     31  C   UNL d   1      25.700 -16.408  -1.643  0.00  0.00     0.009 A 
ATOM     32  C   UNL d   1      24.341 -16.745  -1.638  0.00  0.00     0.001 A 
ATOM     33  C   UNL d   1      23.834 -17.632  -0.690  0.00  0.00     0.000 A 
ATOM     34  C   UNL d   1      24.679 -18.180   0.263  0.00  0.00     0.001 A 
ATOM     35  C   UNL d   1      26.021 -17.809   0.288  0.00  0.00     0.009 A 
ENDBRANCH  28  30
ENDBRANCH  26  28
ENDBRANCH   4  24
TORSDOF 9
ENDMDL
