MODEL 1
REMARK VINA RESULT:    -8.233      0.000      0.000
REMARK INTER + INTRA:         -14.060
REMARK INTER:                 -11.813
REMARK INTRA:                  -2.247
REMARK CONF_INDEPENDENT:        3.580
REMARK UNBOUND:                -2.247
REMARK  12 active torsions:
REMARK  status: ('A' for Active; 'I' for Inactive)
REMARK    1  A    between atoms: C_2  and  C_3 
REMARK    2  A    between atoms: C_3  and  N_4 
REMARK    3  A    between atoms: N_4  and  C_5 
REMARK    4  A    between atoms: C_5  and  N_7 
REMARK    5  A    between atoms: N_7  and  N_8 
REMARK       I    between atoms: N_8  and  C_9 
REMARK    6  A    between atoms: C_9  and  C_11 
REMARK    7  A    between atoms: C_11  and  S_12 
REMARK    8  A    between atoms: S_12  and  C_13 
REMARK    9  A    between atoms: C_16  and  C_17 
REMARK   10  A    between atoms: C_20  and  O_21 
REMARK   11  A    between atoms: C_23  and  O_24 
REMARK   12  A    between atoms: N_27  and  C_28 
ROOT
ATOM      1  C   UNL d   1      26.180 -15.511  -3.229  0.00  0.00     0.197 A 
ATOM      2  N   UNL d   1      25.545 -15.327  -4.368  0.00  0.00    -0.122 NA
ATOM      3  N   UNL d   1      26.499 -15.242  -5.389  0.00  0.00    -0.128 NA
ATOM      4  C   UNL d   1      27.705 -15.370  -4.860  0.00  0.00     0.169 A 
ATOM      5  N   UNL d   1      27.548 -15.481  -3.476  0.00  0.00    -0.271 N 
ENDROOT
BRANCH   1   6
ATOM      6  S   UNL d   1      25.528 -15.430  -1.597  0.00  0.00    -0.080 SA
BRANCH   6   7
ATOM      7  C   UNL d   1      23.772 -15.975  -1.583  0.00  0.00     0.186 C 
BRANCH   7   8
ATOM      8  C   UNL d   1      23.620 -17.424  -0.976  0.00  0.00     0.245 C 
ATOM      9  N   UNL d   1      22.323 -17.809  -0.620  0.00  0.00    -0.267 N 
ATOM     10  H   UNL d   1      21.508 -17.207  -0.732  0.00  0.00     0.190 HD
ATOM     11  O   UNL d   1      24.565 -18.210  -0.820  0.00  0.00    -0.271 OA
BRANCH   9  12
ATOM     12  N   UNL d   1      22.041 -19.123  -0.038  0.00  0.00    -0.274 N 
ATOM     13  H   UNL d   1      22.861 -19.665   0.232  0.00  0.00     0.189 HD
BRANCH  12  14
ATOM     14  C   UNL d   1      20.721 -19.559   0.137  0.00  0.00     0.186 C 
ATOM     15  S   UNL d   1      19.488 -19.053  -0.894  0.00  0.00    -0.040 SA
BRANCH  14  16
ATOM     16  N   UNL d   1      20.514 -20.431   1.211  0.00  0.00    -0.363 N 
ATOM     17  H   UNL d   1      21.139 -21.212   1.348  0.00  0.00     0.162 HD
BRANCH  16  18
ATOM     18  C   UNL d   1      19.412 -20.265   2.182  0.00  0.00     0.148 C 
BRANCH  18  19
ATOM     19  C   UNL d   1      18.087 -20.804   1.719  0.00  0.00    -0.018 C 
ATOM     20  C   UNL d   1      17.977 -21.575   0.620  0.00  0.00     0.008 C 
ENDBRANCH  18  19
ENDBRANCH  16  18
ENDBRANCH  14  16
ENDBRANCH  12  14
ENDBRANCH   9  12
ENDBRANCH   7   8
ENDBRANCH   6   7
ENDBRANCH   1   6
BRANCH   5  21
ATOM     21  C   UNL d   1      28.619 -15.658  -2.577  0.00  0.00     0.043 A 
ATOM     22  C   UNL d   1      29.697 -14.764  -2.621  0.00  0.00     0.030 A 
ATOM     23  C   UNL d   1      30.856 -15.058  -1.912  0.00  0.00     0.002 A 
ATOM     24  C   UNL d   1      30.910 -16.207  -1.124  0.00  0.00     0.000 A 
ATOM     25  C   UNL d   1      29.829 -17.091  -1.081  0.00  0.00     0.002 A 
ATOM     26  C   UNL d   1      28.678 -16.826  -1.816  0.00  0.00     0.030 A 
ENDBRANCH   5  21
BRANCH   4  27
ATOM     27  C   UNL d   1      28.997 -15.572  -5.570  0.00  0.00     0.015 A 
ATOM     28  C   UNL d   1      29.615 -14.576  -6.331  0.00  0.00     0.018 A 
ATOM     29  C   UNL d   1      30.854 -14.823  -6.957  0.00  0.00     0.040 A 
ATOM     30  C   UNL d   1      31.537 -16.039  -6.785  0.00  0.00     0.101 A 
ATOM     31  C   UNL d   1      30.928 -17.046  -6.024  0.00  0.00     0.102 A 
ATOM     32  C   UNL d   1      29.675 -16.799  -5.437  0.00  0.00     0.055 A 
BRANCH  30  33
ATOM     33  O   UNL d   1      32.768 -16.087  -7.400  0.00  0.00    -0.353 OA
ATOM     34  C   UNL d   1      32.815 -16.477  -8.773  0.00  0.00     0.210 C 
ENDBRANCH  30  33
BRANCH  31  35
ATOM     35  O   UNL d   1      31.580 -18.241  -5.896  0.00  0.00    -0.353 OA
ATOM     36  C   UNL d   1      31.215 -19.317  -6.741  0.00  0.00     0.210 C 
ENDBRANCH  31  35
ENDBRANCH   4  27
TORSDOF 12
ENDMDL
MODEL 2
REMARK VINA RESULT:    -6.002      5.097      8.691
REMARK INTER + INTRA:         -14.126
REMARK INTER:                  -9.581
REMARK INTRA:                  -4.544
REMARK CONF_INDEPENDENT:        3.580
REMARK UNBOUND:                -4.544
REMARK  12 active torsions:
REMARK  status: ('A' for Active; 'I' for Inactive)
REMARK    1  A    between atoms: C_2  and  C_3 
REMARK    2  A    between atoms: C_3  and  N_4 
REMARK    3  A    between atoms: N_4  and  C_5 
REMARK    4  A    between atoms: C_5  and  N_7 
REMARK    5  A    between atoms: N_7  and  N_8 
REMARK       I    between atoms: N_8  and  C_9 
REMARK    6  A    between atoms: C_9  and  C_11 
REMARK    7  A    between atoms: C_11  and  S_12 
REMARK    8  A    between atoms: S_12  and  C_13 
REMARK    9  A    between atoms: C_16  and  C_17 
REMARK   10  A    between atoms: C_20  and  O_21 
REMARK   11  A    between atoms: C_23  and  O_24 
REMARK   12  A    between atoms: N_27  and  C_28 
ROOT
ATOM      1  C   UNL d   1      30.188 -15.317   0.574  0.00  0.00     0.197 A 
ATOM      2  N   UNL d   1      29.546 -14.827   1.613  0.00  0.00    -0.122 NA
ATOM      3  N   UNL d   1      28.175 -15.020   1.409  0.00  0.00    -0.128 NA
ATOM      4  C   UNL d   1      27.997 -15.622   0.244  0.00  0.00     0.169 A 
ATOM      5  N   UNL d   1      29.253 -15.773  -0.348  0.00  0.00    -0.271 N 
ENDROOT
BRANCH   1   6
ATOM      6  S   UNL d   1      31.887 -15.127   0.159  0.00  0.00    -0.080 SA
BRANCH   6   7
ATOM      7  C   UNL d   1      32.939 -15.368   1.648  0.00  0.00     0.186 C 
BRANCH   7   8
ATOM      8  C   UNL d   1      32.493 -14.425   2.832  0.00  0.00     0.245 C 
ATOM      9  N   UNL d   1      31.307 -14.778   3.486  0.00  0.00    -0.267 N 
ATOM     10  H   UNL d   1      30.745 -15.588   3.230  0.00  0.00     0.190 HD
ATOM     11  O   UNL d   1      33.132 -13.431   3.201  0.00  0.00    -0.271 OA
BRANCH   9  12
ATOM     12  N   UNL d   1      30.775 -13.986   4.597  0.00  0.00    -0.274 N 
ATOM     13  H   UNL d   1      31.392 -13.253   4.945  0.00  0.00     0.189 HD
BRANCH  12  14
ATOM     14  C   UNL d   1      29.492 -14.237   5.103  0.00  0.00     0.186 C 
ATOM     15  S   UNL d   1      29.184 -14.210   6.759  0.00  0.00    -0.040 SA
BRANCH  14  16
ATOM     16  N   UNL d   1      28.510 -14.502   4.143  0.00  0.00    -0.363 N 
ATOM     17  H   UNL d   1      28.625 -15.282   3.511  0.00  0.00     0.162 HD
BRANCH  16  18
ATOM     18  C   UNL d   1      27.282 -13.692   4.002  0.00  0.00     0.148 C 
BRANCH  18  19
ATOM     19  C   UNL d   1      27.488 -12.355   3.346  0.00  0.00    -0.018 C 
ATOM     20  C   UNL d   1      27.469 -12.209   2.007  0.00  0.00     0.008 C 
ENDBRANCH  18  19
ENDBRANCH  16  18
ENDBRANCH  14  16
ENDBRANCH  12  14
ENDBRANCH   9  12
ENDBRANCH   7   8
ENDBRANCH   6   7
ENDBRANCH   1   6
BRANCH   5  21
ATOM     21  C   UNL d   1      29.464 -16.399  -1.594  0.00  0.00     0.043 A 
ATOM     22  C   UNL d   1      30.370 -17.464  -1.673  0.00  0.00     0.030 A 
ATOM     23  C   UNL d   1      30.763 -17.933  -2.921  0.00  0.00     0.002 A 
ATOM     24  C   UNL d   1      30.210 -17.377  -4.074  0.00  0.00     0.000 A 
ATOM     25  C   UNL d   1      29.303 -16.317  -3.986  0.00  0.00     0.002 A 
ATOM     26  C   UNL d   1      28.931 -15.815  -2.743  0.00  0.00     0.030 A 
ENDBRANCH   5  21
BRANCH   4  27
ATOM     27  C   UNL d   1      26.747 -16.230  -0.289  0.00  0.00     0.015 A 
ATOM     28  C   UNL d   1      26.332 -17.526   0.028  0.00  0.00     0.018 A 
ATOM     29  C   UNL d   1      25.122 -18.033  -0.489  0.00  0.00     0.040 A 
ATOM     30  C   UNL d   1      24.267 -17.241  -1.275  0.00  0.00     0.101 A 
ATOM     31  C   UNL d   1      24.673 -15.939  -1.600  0.00  0.00     0.102 A 
ATOM     32  C   UNL d   1      25.899 -15.460  -1.109  0.00  0.00     0.055 A 
BRANCH  30  33
ATOM     33  O   UNL d   1      23.091 -17.862  -1.632  0.00  0.00    -0.353 OA
ATOM     34  C   UNL d   1      22.420 -18.644  -0.642  0.00  0.00     0.210 C 
ENDBRANCH  30  33
BRANCH  31  35
ATOM     35  O   UNL d   1      23.854 -15.190  -2.399  0.00  0.00    -0.353 OA
ATOM     36  C   UNL d   1      24.431 -14.222  -3.257  0.00  0.00     0.210 C 
ENDBRANCH  31  35
ENDBRANCH   4  27
TORSDOF 12
ENDMDL
MODEL 3
REMARK VINA RESULT:    -6.000      6.099      9.412
REMARK INTER + INTRA:         -14.068
REMARK INTER:                  -9.580
REMARK INTRA:                  -4.488
REMARK CONF_INDEPENDENT:        3.580
REMARK UNBOUND:                -4.488
REMARK  12 active torsions:
REMARK  status: ('A' for Active; 'I' for Inactive)
REMARK    1  A    between atoms: C_2  and  C_3 
REMARK    2  A    between atoms: C_3  and  N_4 
REMARK    3  A    between atoms: N_4  and  C_5 
REMARK    4  A    between atoms: C_5  and  N_7 
REMARK    5  A    between atoms: N_7  and  N_8 
REMARK       I    between atoms: N_8  and  C_9 
REMARK    6  A    between atoms: C_9  and  C_11 
REMARK    7  A    between atoms: C_11  and  S_12 
REMARK    8  A    between atoms: S_12  and  C_13 
REMARK    9  A    between atoms: C_16  and  C_17 
REMARK   10  A    between atoms: C_20  and  O_21 
REMARK   11  A    between atoms: C_23  and  O_24 
REMARK   12  A    between atoms: N_27  and  C_28 
ROOT
ATOM      1  C   UNL d   1      27.961 -14.500   0.416  0.00  0.00     0.197 A 
ATOM      2  N   UNL d   1      27.393 -13.911  -0.615  0.00  0.00    -0.122 NA
ATOM      3  N   UNL d   1      26.932 -12.656  -0.200  0.00  0.00    -0.128 NA
ATOM      4  C   UNL d   1      27.220 -12.498   1.082  0.00  0.00     0.169 A 
ATOM      5  N   UNL d   1      27.821 -13.677   1.528  0.00  0.00    -0.271 N 
ENDROOT
BRANCH   1   6
ATOM      6  S   UNL d   1      28.481 -16.175   0.559  0.00  0.00    -0.080 SA
BRANCH   6   7
ATOM      7  C   UNL d   1      27.030 -17.274   0.816  0.00  0.00     0.186 C 
BRANCH   7   8
ATOM      8  C   UNL d   1      25.912 -17.022  -0.269  0.00  0.00     0.245 C 
ATOM      9  N   UNL d   1      26.290 -16.252  -1.374  0.00  0.00    -0.267 N 
ATOM     10  H   UNL d   1      27.224 -15.862  -1.494  0.00  0.00     0.190 HD
ATOM     11  O   UNL d   1      24.761 -17.472  -0.191  0.00  0.00    -0.271 OA
BRANCH   9  12
ATOM     12  N   UNL d   1      25.349 -15.935  -2.451  0.00  0.00    -0.274 N 
ATOM     13  H   UNL d   1      24.481 -16.469  -2.442  0.00  0.00     0.189 HD
BRANCH  12  14
ATOM     14  C   UNL d   1      25.652 -14.945  -3.396  0.00  0.00     0.186 C 
ATOM     15  S   UNL d   1      25.904 -15.330  -5.016  0.00  0.00    -0.040 SA
BRANCH  14  16
ATOM     16  N   UNL d   1      25.722 -13.640  -2.896  0.00  0.00    -0.363 N 
ATOM     17  H   UNL d   1      25.910 -13.490  -1.915  0.00  0.00     0.162 HD
BRANCH  16  18
ATOM     18  C   UNL d   1      25.541 -12.443  -3.743  0.00  0.00     0.148 C 
BRANCH  18  19
ATOM     19  C   UNL d   1      26.411 -11.275  -3.367  0.00  0.00    -0.018 C 
ATOM     20  C   UNL d   1      25.898 -10.049  -3.145  0.00  0.00     0.008 C 
ENDBRANCH  18  19
ENDBRANCH  16  18
ENDBRANCH  14  16
ENDBRANCH  12  14
ENDBRANCH   9  12
ENDBRANCH   7   8
ENDBRANCH   6   7
ENDBRANCH   1   6
BRANCH   5  21
ATOM     21  C   UNL d   1      28.290 -13.871   2.843  0.00  0.00     0.043 A 
ATOM     22  C   UNL d   1      29.662 -14.062   3.053  0.00  0.00     0.030 A 
ATOM     23  C   UNL d   1      30.108 -14.485   4.300  0.00  0.00     0.002 A 
ATOM     24  C   UNL d   1      29.193 -14.658   5.338  0.00  0.00     0.000 A 
ATOM     25  C   UNL d   1      27.827 -14.461   5.122  0.00  0.00     0.002 A 
ATOM     26  C   UNL d   1      27.365 -14.073   3.868  0.00  0.00     0.030 A 
ENDBRANCH   5  21
BRANCH   4  27
ATOM     27  C   UNL d   1      27.132 -11.251   1.890  0.00  0.00     0.015 A 
ATOM     28  C   UNL d   1      27.898 -11.028   3.038  0.00  0.00     0.018 A 
ATOM     29  C   UNL d   1      27.786  -9.812   3.743  0.00  0.00     0.040 A 
ATOM     30  C   UNL d   1      26.964  -8.767   3.287  0.00  0.00     0.101 A 
ATOM     31  C   UNL d   1      26.191  -8.979   2.137  0.00  0.00     0.102 A 
ATOM     32  C   UNL d   1      26.283 -10.210   1.465  0.00  0.00     0.055 A 
BRANCH  30  33
ATOM     33  O   UNL d   1      27.030  -7.622   4.048  0.00  0.00    -0.353 OA
ATOM     34  C   UNL d   1      27.366  -6.400   3.389  0.00  0.00     0.210 C 
ENDBRANCH  30  33
BRANCH  31  35
ATOM     35  O   UNL d   1      25.361  -7.973   1.723  0.00  0.00    -0.353 OA
ATOM     36  C   UNL d   1      25.483  -7.483   0.400  0.00  0.00     0.210 C 
ENDBRANCH  31  35
ENDBRANCH   4  27
TORSDOF 12
ENDMDL
MODEL 4
REMARK VINA RESULT:    -5.835      5.262      9.182
REMARK INTER + INTRA:         -14.742
REMARK INTER:                  -9.415
REMARK INTRA:                  -5.327
REMARK CONF_INDEPENDENT:        3.580
REMARK UNBOUND:                -5.327
REMARK  12 active torsions:
REMARK  status: ('A' for Active; 'I' for Inactive)
REMARK    1  A    between atoms: C_2  and  C_3 
REMARK    2  A    between atoms: C_3  and  N_4 
REMARK    3  A    between atoms: N_4  and  C_5 
REMARK    4  A    between atoms: C_5  and  N_7 
REMARK    5  A    between atoms: N_7  and  N_8 
REMARK       I    between atoms: N_8  and  C_9 
REMARK    6  A    between atoms: C_9  and  C_11 
REMARK    7  A    between atoms: C_11  and  S_12 
REMARK    8  A    between atoms: S_12  and  C_13 
REMARK    9  A    between atoms: C_16  and  C_17 
REMARK   10  A    between atoms: C_20  and  O_21 
REMARK   11  A    between atoms: C_23  and  O_24 
REMARK   12  A    between atoms: N_27  and  C_28 
ROOT
ATOM      1  C   UNL d   1      28.112 -14.528  -3.269  0.00  0.00     0.197 A 
ATOM      2  N   UNL d   1      28.745 -13.374  -3.269  0.00  0.00    -0.122 NA
ATOM      3  N   UNL d   1      28.622 -12.810  -1.994  0.00  0.00    -0.128 NA
ATOM      4  C   UNL d   1      27.909 -13.625  -1.233  0.00  0.00     0.169 A 
ATOM      5  N   UNL d   1      27.512 -14.703  -2.027  0.00  0.00    -0.271 N 
ENDROOT
BRANCH   1   6
ATOM      6  S   UNL d   1      27.711 -15.546  -4.647  0.00  0.00    -0.080 SA
BRANCH   6   7
ATOM      7  C   UNL d   1      25.895 -15.546  -4.934  0.00  0.00     0.186 C 
BRANCH   7   8
ATOM      8  C   UNL d   1      25.234 -14.192  -4.465  0.00  0.00     0.245 C 
ATOM      9  N   UNL d   1      26.081 -13.080  -4.413  0.00  0.00    -0.267 N 
ATOM     10  H   UNL d   1      27.071 -13.116  -4.653  0.00  0.00     0.190 HD
ATOM     11  O   UNL d   1      24.038 -14.075  -4.166  0.00  0.00    -0.271 OA
BRANCH   9  12
ATOM     12  N   UNL d   1      25.600 -11.764  -3.988  0.00  0.00    -0.274 N 
ATOM     13  H   UNL d   1      24.588 -11.679  -3.894  0.00  0.00     0.189 HD
BRANCH  12  14
ATOM     14  C   UNL d   1      26.501 -10.726  -3.718  0.00  0.00     0.186 C 
ATOM     15  S   UNL d   1      26.022  -9.344  -2.882  0.00  0.00    -0.040 SA
BRANCH  14  16
ATOM     16  N   UNL d   1      27.805 -10.926  -4.187  0.00  0.00    -0.363 N 
ATOM     17  H   UNL d   1      28.496 -11.343  -3.579  0.00  0.00     0.162 HD
BRANCH  16  18
ATOM     18  C   UNL d   1      28.235 -10.560  -5.552  0.00  0.00     0.148 C 
BRANCH  18  19
ATOM     19  C   UNL d   1      27.788 -11.515  -6.624  0.00  0.00    -0.018 C 
ATOM     20  C   UNL d   1      28.318 -12.748  -6.743  0.00  0.00     0.008 C 
ENDBRANCH  18  19
ENDBRANCH  16  18
ENDBRANCH  14  16
ENDBRANCH  12  14
ENDBRANCH   9  12
ENDBRANCH   7   8
ENDBRANCH   6   7
ENDBRANCH   1   6
BRANCH   5  21
ATOM     21  C   UNL d   1      26.754 -15.792  -1.550  0.00  0.00     0.043 A 
ATOM     22  C   UNL d   1      25.358 -15.686  -1.521  0.00  0.00     0.030 A 
ATOM     23  C   UNL d   1      24.616 -16.645  -0.842  0.00  0.00     0.002 A 
ATOM     24  C   UNL d   1      25.264 -17.728  -0.249  0.00  0.00     0.000 A 
ATOM     25  C   UNL d   1      26.657 -17.829  -0.286  0.00  0.00     0.002 A 
ATOM     26  C   UNL d   1      27.413 -16.855  -0.931  0.00  0.00     0.030 A 
ENDBRANCH   5  21
BRANCH   4  27
ATOM     27  C   UNL d   1      27.713 -13.560   0.241  0.00  0.00     0.015 A 
ATOM     28  C   UNL d   1      28.097 -14.585   1.110  0.00  0.00     0.018 A 
ATOM     29  C   UNL d   1      27.907 -14.449   2.500  0.00  0.00     0.040 A 
ATOM     30  C   UNL d   1      27.397 -13.266   3.063  0.00  0.00     0.101 A 
ATOM     31  C   UNL d   1      27.008 -12.231   2.202  0.00  0.00     0.102 A 
ATOM     32  C   UNL d   1      27.167 -12.394   0.815  0.00  0.00     0.055 A 
BRANCH  30  33
ATOM     33  O   UNL d   1      27.349 -13.269   4.439  0.00  0.00    -0.353 OA
ATOM     34  C   UNL d   1      27.940 -14.373   5.126  0.00  0.00     0.210 C 
ENDBRANCH  30  33
BRANCH  31  35
ATOM     35  O   UNL d   1      26.473 -11.099   2.754  0.00  0.00    -0.353 OA
ATOM     36  C   UNL d   1      26.493  -9.896   2.009  0.00  0.00     0.210 C 
ENDBRANCH  31  35
ENDBRANCH   4  27
TORSDOF 12
ENDMDL
MODEL 5
REMARK VINA RESULT:    -5.828      5.421      9.206
REMARK INTER + INTRA:         -14.493
REMARK INTER:                  -9.408
REMARK INTRA:                  -5.085
REMARK CONF_INDEPENDENT:        3.580
REMARK UNBOUND:                -5.085
REMARK  12 active torsions:
REMARK  status: ('A' for Active; 'I' for Inactive)
REMARK    1  A    between atoms: C_2  and  C_3 
REMARK    2  A    between atoms: C_3  and  N_4 
REMARK    3  A    between atoms: N_4  and  C_5 
REMARK    4  A    between atoms: C_5  and  N_7 
REMARK    5  A    between atoms: N_7  and  N_8 
REMARK       I    between atoms: N_8  and  C_9 
REMARK    6  A    between atoms: C_9  and  C_11 
REMARK    7  A    between atoms: C_11  and  S_12 
REMARK    8  A    between atoms: S_12  and  C_13 
REMARK    9  A    between atoms: C_16  and  C_17 
REMARK   10  A    between atoms: C_20  and  O_21 
REMARK   11  A    between atoms: C_23  and  O_24 
REMARK   12  A    between atoms: N_27  and  C_28 
ROOT
ATOM      1  C   UNL d   1      28.130 -14.446  -2.962  0.00  0.00     0.197 A 
ATOM      2  N   UNL d   1      28.770 -13.297  -2.932  0.00  0.00    -0.122 NA
ATOM      3  N   UNL d   1      28.644 -12.761  -1.645  0.00  0.00    -0.128 NA
ATOM      4  C   UNL d   1      27.923 -13.589  -0.906  0.00  0.00     0.169 A 
ATOM      5  N   UNL d   1      27.523 -14.646  -1.727  0.00  0.00    -0.271 N 
ENDROOT
BRANCH   1   6
ATOM      6  S   UNL d   1      27.729 -15.431  -4.364  0.00  0.00    -0.080 SA
BRANCH   6   7
ATOM      7  C   UNL d   1      25.905 -15.558  -4.554  0.00  0.00     0.186 C 
BRANCH   7   8
ATOM      8  C   UNL d   1      25.201 -14.160  -4.348  0.00  0.00     0.245 C 
ATOM      9  N   UNL d   1      26.050 -13.050  -4.269  0.00  0.00    -0.267 N 
ATOM     10  H   UNL d   1      27.065 -13.114  -4.333  0.00  0.00     0.190 HD
ATOM     11  O   UNL d   1      23.974 -14.010  -4.270  0.00  0.00    -0.271 OA
BRANCH   9  12
ATOM     12  N   UNL d   1      25.530 -11.696  -4.071  0.00  0.00    -0.274 N 
ATOM     13  H   UNL d   1      24.514 -11.610  -4.099  0.00  0.00     0.189 HD
BRANCH  12  14
ATOM     14  C   UNL d   1      26.401 -10.623  -3.840  0.00  0.00     0.186 C 
ATOM     15  S   UNL d   1      26.501  -9.330  -4.916  0.00  0.00    -0.040 SA
BRANCH  14  16
ATOM     16  N   UNL d   1      27.161 -10.707  -2.668  0.00  0.00    -0.363 N 
ATOM     17  H   UNL d   1      27.559 -11.594  -2.394  0.00  0.00     0.162 HD
BRANCH  16  18
ATOM     18  C   UNL d   1      27.426  -9.546  -1.795  0.00  0.00     0.148 C 
BRANCH  18  19
ATOM     19  C   UNL d   1      26.239  -8.648  -1.574  0.00  0.00    -0.018 C 
ATOM     20  C   UNL d   1      26.030  -8.022  -0.399  0.00  0.00     0.008 C 
ENDBRANCH  18  19
ENDBRANCH  16  18
ENDBRANCH  14  16
ENDBRANCH  12  14
ENDBRANCH   9  12
ENDBRANCH   7   8
ENDBRANCH   6   7
ENDBRANCH   1   6
BRANCH   5  21
ATOM     21  C   UNL d   1      26.756 -15.741  -1.278  0.00  0.00     0.043 A 
ATOM     22  C   UNL d   1      25.364 -15.604  -1.192  0.00  0.00     0.030 A 
ATOM     23  C   UNL d   1      24.624 -16.580  -0.536  0.00  0.00     0.002 A 
ATOM     24  C   UNL d   1      25.266 -17.707  -0.023  0.00  0.00     0.000 A 
ATOM     25  C   UNL d   1      26.654 -17.838  -0.117  0.00  0.00     0.002 A 
ATOM     26  C   UNL d   1      27.410 -16.849  -0.739  0.00  0.00     0.030 A 
ENDBRANCH   5  21
BRANCH   4  27
ATOM     27  C   UNL d   1      27.720 -13.556   0.568  0.00  0.00     0.015 A 
ATOM     28  C   UNL d   1      28.016 -14.636   1.405  0.00  0.00     0.018 A 
ATOM     29  C   UNL d   1      27.826 -14.530   2.798  0.00  0.00     0.040 A 
ATOM     30  C   UNL d   1      27.404 -13.330   3.396  0.00  0.00     0.101 A 
ATOM     31  C   UNL d   1      27.105 -12.240   2.567  0.00  0.00     0.102 A 
ATOM     32  C   UNL d   1      27.262 -12.371   1.177  0.00  0.00     0.055 A 
BRANCH  30  33
ATOM     33  O   UNL d   1      27.345 -13.374   4.771  0.00  0.00    -0.353 OA
ATOM     34  C   UNL d   1      28.200 -14.297   5.448  0.00  0.00     0.210 C 
ENDBRANCH  30  33
BRANCH  31  35
ATOM     35  O   UNL d   1      26.655 -11.089   3.153  0.00  0.00    -0.353 OA
ATOM     36  C   UNL d   1      26.238 -10.016   2.329  0.00  0.00     0.210 C 
ENDBRANCH  31  35
ENDBRANCH   4  27
TORSDOF 12
ENDMDL
MODEL 6
REMARK VINA RESULT:    -5.612      5.490      9.041
REMARK INTER + INTRA:         -14.168
REMARK INTER:                  -9.191
REMARK INTRA:                  -4.976
REMARK CONF_INDEPENDENT:        3.580
REMARK UNBOUND:                -4.976
REMARK  12 active torsions:
REMARK  status: ('A' for Active; 'I' for Inactive)
REMARK    1  A    between atoms: C_2  and  C_3 
REMARK    2  A    between atoms: C_3  and  N_4 
REMARK    3  A    between atoms: N_4  and  C_5 
REMARK    4  A    between atoms: C_5  and  N_7 
REMARK    5  A    between atoms: N_7  and  N_8 
REMARK       I    between atoms: N_8  and  C_9 
REMARK    6  A    between atoms: C_9  and  C_11 
REMARK    7  A    between atoms: C_11  and  S_12 
REMARK    8  A    between atoms: S_12  and  C_13 
REMARK    9  A    between atoms: C_16  and  C_17 
REMARK   10  A    between atoms: C_20  and  O_21 
REMARK   11  A    between atoms: C_23  and  O_24 
REMARK   12  A    between atoms: N_27  and  C_28 
ROOT
ATOM      1  C   UNL d   1      30.353 -16.123  -0.002  0.00  0.00     0.197 A 
ATOM      2  N   UNL d   1      30.503 -17.339  -0.485  0.00  0.00    -0.122 NA
ATOM      3  N   UNL d   1      29.235 -17.915  -0.617  0.00  0.00    -0.128 NA
ATOM      4  C   UNL d   1      28.325 -17.046  -0.208  0.00  0.00     0.169 A 
ATOM      5  N   UNL d   1      29.002 -15.913   0.251  0.00  0.00    -0.271 N 
ENDROOT
BRANCH   1   6
ATOM      6  S   UNL d   1      31.593 -15.036   0.610  0.00  0.00    -0.080 SA
BRANCH   6   7
ATOM      7  C   UNL d   1      32.219 -15.630   2.233  0.00  0.00     0.186 C 
BRANCH   7   8
ATOM      8  C   UNL d   1      33.008 -16.990   2.088  0.00  0.00     0.245 C 
ATOM      9  N   UNL d   1      32.278 -18.074   1.590  0.00  0.00    -0.267 N 
ATOM     10  H   UNL d   1      31.294 -18.018   1.333  0.00  0.00     0.190 HD
ATOM     11  O   UNL d   1      34.205 -17.127   2.375  0.00  0.00    -0.271 OA
BRANCH   9  12
ATOM     12  N   UNL d   1      32.885 -19.396   1.413  0.00  0.00    -0.274 N 
ATOM     13  H   UNL d   1      33.883 -19.447   1.614  0.00  0.00     0.189 HD
BRANCH  12  14
ATOM     14  C   UNL d   1      32.107 -20.491   1.014  0.00  0.00     0.186 C 
ATOM     15  S   UNL d   1      32.212 -21.974   1.807  0.00  0.00    -0.040 SA
BRANCH  14  16
ATOM     16  N   UNL d   1      31.254 -20.259  -0.070  0.00  0.00    -0.363 N 
ATOM     17  H   UNL d   1      30.673 -19.432  -0.081  0.00  0.00     0.162 HD
BRANCH  16  18
ATOM     18  C   UNL d   1      31.157 -21.171  -1.228  0.00  0.00     0.148 C 
BRANCH  18  19
ATOM     19  C   UNL d   1      31.617 -20.576  -2.531  0.00  0.00    -0.018 C 
ATOM     20  C   UNL d   1      31.406 -19.281  -2.835  0.00  0.00     0.008 C 
ENDBRANCH  18  19
ENDBRANCH  16  18
ENDBRANCH  14  16
ENDBRANCH  12  14
ENDBRANCH   9  12
ENDBRANCH   7   8
ENDBRANCH   6   7
ENDBRANCH   1   6
BRANCH   5  21
ATOM     21  C   UNL d   1      28.357 -14.759   0.743  0.00  0.00     0.043 A 
ATOM     22  C   UNL d   1      28.070 -14.675   2.112  0.00  0.00     0.030 A 
ATOM     23  C   UNL d   1      27.235 -13.664   2.572  0.00  0.00     0.002 A 
ATOM     24  C   UNL d   1      26.740 -12.716   1.676  0.00  0.00     0.000 A 
ATOM     25  C   UNL d   1      27.034 -12.805   0.313  0.00  0.00     0.002 A 
ATOM     26  C   UNL d   1      27.839 -13.835  -0.164  0.00  0.00     0.030 A 
ENDBRANCH   5  21
BRANCH   4  27
ATOM     27  C   UNL d   1      26.848 -17.123  -0.373  0.00  0.00     0.015 A 
ATOM     28  C   UNL d   1      26.037 -17.969   0.387  0.00  0.00     0.018 A 
ATOM     29  C   UNL d   1      24.640 -17.975   0.200  0.00  0.00     0.040 A 
ATOM     30  C   UNL d   1      24.012 -17.093  -0.697  0.00  0.00     0.101 A 
ATOM     31  C   UNL d   1      24.816 -16.239  -1.466  0.00  0.00     0.102 A 
ATOM     32  C   UNL d   1      26.210 -16.271  -1.296  0.00  0.00     0.055 A 
BRANCH  30  33
ATOM     33  O   UNL d   1      22.638 -17.174  -0.702  0.00  0.00    -0.353 OA
ATOM     34  C   UNL d   1      22.045 -18.461  -0.885  0.00  0.00     0.210 C 
ENDBRANCH  30  33
BRANCH  31  35
ATOM     35  O   UNL d   1      24.201 -15.413  -2.367  0.00  0.00    -0.353 OA
ATOM     36  C   UNL d   1      24.975 -14.446  -3.051  0.00  0.00     0.210 C 
ENDBRANCH  31  35
ENDBRANCH   4  27
TORSDOF 12
ENDMDL
MODEL 7
REMARK VINA RESULT:    -5.541      4.664      8.951
REMARK INTER + INTRA:         -14.231
REMARK INTER:                  -9.121
REMARK INTRA:                  -5.110
REMARK CONF_INDEPENDENT:        3.580
REMARK UNBOUND:                -5.110
REMARK  12 active torsions:
REMARK  status: ('A' for Active; 'I' for Inactive)
REMARK    1  A    between atoms: C_2  and  C_3 
REMARK    2  A    between atoms: C_3  and  N_4 
REMARK    3  A    between atoms: N_4  and  C_5 
REMARK    4  A    between atoms: C_5  and  N_7 
REMARK    5  A    between atoms: N_7  and  N_8 
REMARK       I    between atoms: N_8  and  C_9 
REMARK    6  A    between atoms: C_9  and  C_11 
REMARK    7  A    between atoms: C_11  and  S_12 
REMARK    8  A    between atoms: S_12  and  C_13 
REMARK    9  A    between atoms: C_16  and  C_17 
REMARK   10  A    between atoms: C_20  and  O_21 
REMARK   11  A    between atoms: C_23  and  O_24 
REMARK   12  A    between atoms: N_27  and  C_28 
ROOT
ATOM      1  C   UNL d   1      28.151 -13.531  -6.510  0.00  0.00     0.197 A 
ATOM      2  N   UNL d   1      28.303 -14.800  -6.827  0.00  0.00    -0.122 NA
ATOM      3  N   UNL d   1      27.783 -15.575  -5.783  0.00  0.00    -0.128 NA
ATOM      4  C   UNL d   1      27.325 -14.768  -4.839  0.00  0.00     0.169 A 
ATOM      5  N   UNL d   1      27.597 -13.457  -5.237  0.00  0.00    -0.271 N 
ENDROOT
BRANCH   1   6
ATOM      6  S   UNL d   1      28.841 -12.123  -7.307  0.00  0.00    -0.080 SA
BRANCH   6   7
ATOM      7  C   UNL d   1      30.563 -12.474  -7.846  0.00  0.00     0.186 C 
BRANCH   7   8
ATOM      8  C   UNL d   1      31.104 -13.818  -7.221  0.00  0.00     0.245 C 
ATOM      9  N   UNL d   1      31.547 -14.785  -8.131  0.00  0.00    -0.267 N 
ATOM     10  H   UNL d   1      31.529 -14.655  -9.141  0.00  0.00     0.190 HD
ATOM     11  O   UNL d   1      31.161 -14.040  -6.004  0.00  0.00    -0.271 OA
BRANCH   9  12
ATOM     12  N   UNL d   1      32.066 -16.080  -7.686  0.00  0.00    -0.274 N 
ATOM     13  H   UNL d   1      33.080 -16.176  -7.711  0.00  0.00     0.189 HD
BRANCH  12  14
ATOM     14  C   UNL d   1      31.194 -17.085  -7.245  0.00  0.00     0.186 C 
ATOM     15  S   UNL d   1      31.149 -18.595  -7.992  0.00  0.00    -0.040 SA
BRANCH  14  16
ATOM     16  N   UNL d   1      30.384 -16.743  -6.157  0.00  0.00    -0.363 N 
ATOM     17  H   UNL d   1      29.935 -15.838  -6.133  0.00  0.00     0.162 HD
BRANCH  16  18
ATOM     18  C   UNL d   1      30.139 -17.652  -5.018  0.00  0.00     0.148 C 
BRANCH  18  19
ATOM     19  C   UNL d   1      30.043 -16.967  -3.682  0.00  0.00    -0.018 C 
ATOM     20  C   UNL d   1      30.342 -15.662  -3.530  0.00  0.00     0.008 C 
ENDBRANCH  18  19
ENDBRANCH  16  18
ENDBRANCH  14  16
ENDBRANCH  12  14
ENDBRANCH   9  12
ENDBRANCH   7   8
ENDBRANCH   6   7
ENDBRANCH   1   6
BRANCH   5  21
ATOM     21  C   UNL d   1      27.229 -12.319  -4.491  0.00  0.00     0.043 A 
ATOM     22  C   UNL d   1      27.781 -12.136  -3.216  0.00  0.00     0.030 A 
ATOM     23  C   UNL d   1      27.256 -11.156  -2.381  0.00  0.00     0.002 A 
ATOM     24  C   UNL d   1      26.229 -10.334  -2.842  0.00  0.00     0.000 A 
ATOM     25  C   UNL d   1      25.687 -10.520  -4.116  0.00  0.00     0.002 A 
ATOM     26  C   UNL d   1      26.179 -11.521  -4.947  0.00  0.00     0.030 A 
ENDBRANCH   5  21
BRANCH   4  27
ATOM     27  C   UNL d   1      26.488 -15.125  -3.661  0.00  0.00     0.015 A 
ATOM     28  C   UNL d   1      25.154 -14.731  -3.524  0.00  0.00     0.018 A 
ATOM     29  C   UNL d   1      24.408 -15.125  -2.394  0.00  0.00     0.040 A 
ATOM     30  C   UNL d   1      24.948 -15.974  -1.413  0.00  0.00     0.101 A 
ATOM     31  C   UNL d   1      26.285 -16.376  -1.540  0.00  0.00     0.102 A 
ATOM     32  C   UNL d   1      27.029 -15.944  -2.652  0.00  0.00     0.055 A 
BRANCH  30  33
ATOM     33  O   UNL d   1      24.063 -16.326  -0.419  0.00  0.00    -0.353 OA
ATOM     34  C   UNL d   1      23.284 -17.509  -0.605  0.00  0.00     0.210 C 
ENDBRANCH  30  33
BRANCH  31  35
ATOM     35  O   UNL d   1      26.817 -17.168  -0.559  0.00  0.00    -0.353 OA
ATOM     36  C   UNL d   1      28.222 -17.317  -0.483  0.00  0.00     0.210 C 
ENDBRANCH  31  35
ENDBRANCH   4  27
TORSDOF 12
ENDMDL
MODEL 8
REMARK VINA RESULT:    -5.427      5.490      8.865
REMARK INTER + INTRA:         -14.440
REMARK INTER:                  -9.007
REMARK INTRA:                  -5.433
REMARK CONF_INDEPENDENT:        3.580
REMARK UNBOUND:                -5.433
REMARK  12 active torsions:
REMARK  status: ('A' for Active; 'I' for Inactive)
REMARK    1  A    between atoms: C_2  and  C_3 
REMARK    2  A    between atoms: C_3  and  N_4 
REMARK    3  A    between atoms: N_4  and  C_5 
REMARK    4  A    between atoms: C_5  and  N_7 
REMARK    5  A    between atoms: N_7  and  N_8 
REMARK       I    between atoms: N_8  and  C_9 
REMARK    6  A    between atoms: C_9  and  C_11 
REMARK    7  A    between atoms: C_11  and  S_12 
REMARK    8  A    between atoms: S_12  and  C_13 
REMARK    9  A    between atoms: C_16  and  C_17 
REMARK   10  A    between atoms: C_20  and  O_21 
REMARK   11  A    between atoms: C_23  and  O_24 
REMARK   12  A    between atoms: N_27  and  C_28 
ROOT
ATOM      1  C   UNL d   1      28.252 -14.298  -2.930  0.00  0.00     0.197 A 
ATOM      2  N   UNL d   1      28.876 -13.139  -2.891  0.00  0.00    -0.122 NA
ATOM      3  N   UNL d   1      28.794 -12.644  -1.584  0.00  0.00    -0.128 NA
ATOM      4  C   UNL d   1      28.117 -13.506  -0.842  0.00  0.00     0.169 A 
ATOM      5  N   UNL d   1      27.700 -14.545  -1.678  0.00  0.00    -0.271 N 
ENDROOT
BRANCH   1   6
ATOM      6  S   UNL d   1      27.810 -15.247  -4.344  0.00  0.00    -0.080 SA
BRANCH   6   7
ATOM      7  C   UNL d   1      25.983 -15.431  -4.443  0.00  0.00     0.186 C 
BRANCH   7   8
ATOM      8  C   UNL d   1      25.250 -14.043  -4.278  0.00  0.00     0.245 C 
ATOM      9  N   UNL d   1      26.078 -12.922  -4.149  0.00  0.00    -0.267 N 
ATOM     10  H   UNL d   1      27.095 -12.972  -4.155  0.00  0.00     0.190 HD
ATOM     11  O   UNL d   1      24.019 -13.909  -4.270  0.00  0.00    -0.271 OA
BRANCH   9  12
ATOM     12  N   UNL d   1      25.529 -11.574  -3.982  0.00  0.00    -0.274 N 
ATOM     13  H   UNL d   1      24.519 -11.498  -4.092  0.00  0.00     0.189 HD
BRANCH  12  14
ATOM     14  C   UNL d   1      26.367 -10.496  -3.669  0.00  0.00     0.186 C 
ATOM     15  S   UNL d   1      26.447  -9.134  -4.659  0.00  0.00    -0.040 SA
BRANCH  14  16
ATOM     16  N   UNL d   1      27.114 -10.635  -2.494  0.00  0.00    -0.363 N 
ATOM     17  H   UNL d   1      27.674 -11.464  -2.354  0.00  0.00     0.162 HD
BRANCH  16  18
ATOM     18  C   UNL d   1      27.134  -9.614  -1.427  0.00  0.00     0.148 C 
BRANCH  18  19
ATOM     19  C   UNL d   1      27.616 -10.115  -0.093  0.00  0.00    -0.018 C 
ATOM     20  C   UNL d   1      27.030  -9.739   1.061  0.00  0.00     0.008 C 
ENDBRANCH  18  19
ENDBRANCH  16  18
ENDBRANCH  14  16
ENDBRANCH  12  14
ENDBRANCH   9  12
ENDBRANCH   7   8
ENDBRANCH   6   7
ENDBRANCH   1   6
BRANCH   5  21
ATOM     21  C   UNL d   1      26.969 -15.665  -1.232  0.00  0.00     0.043 A 
ATOM     22  C   UNL d   1      25.570 -15.609  -1.240  0.00  0.00     0.030 A 
ATOM     23  C   UNL d   1      24.844 -16.602  -0.592  0.00  0.00     0.002 A 
ATOM     24  C   UNL d   1      25.515 -17.666   0.009  0.00  0.00     0.000 A 
ATOM     25  C   UNL d   1      26.911 -17.717   0.010  0.00  0.00     0.002 A 
ATOM     26  C   UNL d   1      27.649 -16.710  -0.605  0.00  0.00     0.030 A 
ENDBRANCH   5  21
BRANCH   4  27
ATOM     27  C   UNL d   1      27.974 -13.521   0.639  0.00  0.00     0.015 A 
ATOM     28  C   UNL d   1      26.765 -13.269   1.293  0.00  0.00     0.018 A 
ATOM     29  C   UNL d   1      26.691 -13.325   2.700  0.00  0.00     0.040 A 
ATOM     30  C   UNL d   1      27.797 -13.699   3.483  0.00  0.00     0.101 A 
ATOM     31  C   UNL d   1      29.016 -13.955   2.838  0.00  0.00     0.102 A 
ATOM     32  C   UNL d   1      29.085 -13.858   1.437  0.00  0.00     0.055 A 
BRANCH  30  33
ATOM     33  O   UNL d   1      27.534 -13.781   4.832  0.00  0.00    -0.353 OA
ATOM     34  C   UNL d   1      28.155 -14.833   5.572  0.00  0.00     0.210 C 
ENDBRANCH  30  33
BRANCH  31  35
ATOM     35  O   UNL d   1      30.098 -14.277   3.610  0.00  0.00    -0.353 OA
ATOM     36  C   UNL d   1      31.247 -14.824   2.988  0.00  0.00     0.210 C 
ENDBRANCH  31  35
ENDBRANCH   4  27
TORSDOF 12
ENDMDL
