MODEL 1
REMARK VINA RESULT:    -8.923      0.000      0.000
REMARK INTER + INTRA:         -12.573
REMARK INTER:                 -11.608
REMARK INTRA:                  -0.966
REMARK CONF_INDEPENDENT:        2.685
REMARK UNBOUND:                -0.966
REMARK  9 active torsions:
REMARK  status: ('A' for Active; 'I' for Inactive)
REMARK    1  A    between atoms: C_2  and  O_3 
REMARK    2  A    between atoms: O_3  and  C_4 
REMARK    3  A    between atoms: C_6  and  N_7 
REMARK       I    between atoms: N_7  and  C_8 
REMARK       I    between atoms: C_8  and  N_10 
REMARK    4  A    between atoms: N_10  and  C_11 
REMARK    5  A    between atoms: C_11  and  C_12 
REMARK    6  A    between atoms: C_12  and  N_13 
REMARK    7  A    between atoms: N_13  and  C_14 
REMARK    8  A    between atoms: C_17  and  N_18 
REMARK    9  A    between atoms: C_25  and  O_26 
ROOT
ATOM      1  N   UNL d   1      28.496 -14.781   3.693  0.00  0.00    -0.309 N 
ATOM      2  C   UNL d   1      27.842 -14.403   2.510  0.00  0.00     0.320 C 
ATOM      3  O   UNL d   1      27.070 -13.476   2.371  0.00  0.00    -0.247 OA
ATOM      4  N   UNL d   1      28.106 -15.192   1.406  0.00  0.00    -0.341 N 
ATOM      5  H   UNL d   1      29.192 -15.509   3.650  0.00  0.00     0.170 HD
ATOM      6  H   UNL d   1      28.796 -15.924   1.430  0.00  0.00     0.164 HD
ENDROOT
BRANCH   1   7
ATOM      7  C   UNL d   1      28.388 -14.048   4.932  0.00  0.00     0.039 C 
ATOM      8  C   UNL d   1      28.784 -14.572   6.194  0.00  0.00     0.069 C 
ATOM      9  C   UNL d   1      28.873 -13.751   7.382  0.00  0.00     0.104 C 
ATOM     10  C   UNL d   1      28.530 -12.382   7.257  0.00  0.00     0.101 C 
ATOM     11  C   UNL d   1      28.043 -11.921   6.032  0.00  0.00     0.042 C 
ATOM     12  C   UNL d   1      27.945 -12.734   4.918  0.00  0.00     0.032 C 
BRANCH   9  13
ATOM     13  O   UNL d   1      29.508 -14.391   8.448  0.00  0.00    -0.349 OA
BRANCH  13  14
ATOM     14  C   UNL d   1      28.785 -14.664   9.651  0.00  0.00     0.171 C 
ATOM     15  C   UNL d   1      28.345 -13.463  10.474  0.00  0.00     0.034 C 
ENDBRANCH  13  14
ENDBRANCH   9  13
BRANCH  10  16
ATOM     16  O   UNL d   1      28.621 -11.274   8.061  0.00  0.00    -0.353 OA
ATOM     17  C   UNL d   1      29.760 -10.492   7.932  0.00  0.00     0.210 C 
ENDBRANCH  10  16
ENDBRANCH   1   7
BRANCH   4  18
ATOM     18  C   UNL d   1      27.414 -14.854   0.146  0.00  0.00     0.144 C 
BRANCH  18  19
ATOM     19  C   UNL d   1      26.929 -16.066  -0.659  0.00  0.00     0.139 C 
BRANCH  19  20
ATOM     20  N   UNL d   1      26.219 -17.047   0.159  0.00  0.00    -0.388 N 
ATOM     21  H   UNL d   1      26.672 -17.449   0.974  0.00  0.00     0.159 HD
BRANCH  20  22
ATOM     22  C   UNL d   1      24.924 -17.444  -0.126  0.00  0.00     0.028 A 
ATOM     23  C   UNL d   1      23.926 -16.482  -0.344  0.00  0.00     0.031 A 
ATOM     24  C   UNL d   1      22.604 -16.852  -0.633  0.00  0.00     0.038 A 
ATOM     25  C   UNL d   1      22.285 -18.206  -0.776  0.00  0.00     0.103 A 
ATOM     26  C   UNL d   1      23.261 -19.181  -0.563  0.00  0.00     0.038 A 
ATOM     27  C   UNL d   1      24.569 -18.793  -0.252  0.00  0.00     0.031 A 
BRANCH  25  28
ATOM     28  N   UNL d   1      20.941 -18.601  -1.219  0.00  0.00    -0.116 N 
ATOM     29  O   UNL d   1      20.831 -19.660  -1.854  0.00  0.00    -0.532 OA
ATOM     30  O   UNL d   1      19.992 -17.866  -0.911  0.00  0.00    -0.532 OA
ENDBRANCH  25  28
ENDBRANCH  20  22
ENDBRANCH  19  20
ENDBRANCH  18  19
ENDBRANCH   4  18
TORSDOF 9
ENDMDL
MODEL 2
REMARK VINA RESULT:    -7.951      1.383      2.072
REMARK INTER + INTRA:         -12.262
REMARK INTER:                 -10.636
REMARK INTRA:                  -1.626
REMARK CONF_INDEPENDENT:        2.685
REMARK UNBOUND:                -1.626
REMARK  9 active torsions:
REMARK  status: ('A' for Active; 'I' for Inactive)
REMARK    1  A    between atoms: C_2  and  O_3 
REMARK    2  A    between atoms: O_3  and  C_4 
REMARK    3  A    between atoms: C_6  and  N_7 
REMARK       I    between atoms: N_7  and  C_8 
REMARK       I    between atoms: C_8  and  N_10 
REMARK    4  A    between atoms: N_10  and  C_11 
REMARK    5  A    between atoms: C_11  and  C_12 
REMARK    6  A    between atoms: C_12  and  N_13 
REMARK    7  A    between atoms: N_13  and  C_14 
REMARK    8  A    between atoms: C_17  and  N_18 
REMARK    9  A    between atoms: C_25  and  O_26 
ROOT
ATOM      1  N   UNL d   1      28.637 -14.826   2.583  0.00  0.00    -0.309 N 
ATOM      2  C   UNL d   1      28.055 -15.122   1.342  0.00  0.00     0.320 C 
ATOM      3  O   UNL d   1      27.108 -14.559   0.830  0.00  0.00    -0.247 OA
ATOM      4  N   UNL d   1      28.624 -16.178   0.655  0.00  0.00    -0.341 N 
ATOM      5  H   UNL d   1      29.485 -15.303   2.847  0.00  0.00     0.170 HD
ATOM      6  H   UNL d   1      29.460 -16.635   0.981  0.00  0.00     0.164 HD
ENDROOT
BRANCH   1   7
ATOM      7  C   UNL d   1      28.217 -13.725   3.418  0.00  0.00     0.039 C 
ATOM      8  C   UNL d   1      28.013 -13.834   4.822  0.00  0.00     0.069 C 
ATOM      9  C   UNL d   1      27.806 -12.679   5.668  0.00  0.00     0.104 C 
ATOM     10  C   UNL d   1      27.794 -11.407   5.045  0.00  0.00     0.101 C 
ATOM     11  C   UNL d   1      27.890 -11.340   3.654  0.00  0.00     0.042 C 
ATOM     12  C   UNL d   1      28.062 -12.463   2.866  0.00  0.00     0.032 C 
BRANCH   9  13
ATOM     13  O   UNL d   1      27.872 -12.976   7.031  0.00  0.00    -0.349 OA
BRANCH  13  14
ATOM     14  C   UNL d   1      28.695 -12.187   7.895  0.00  0.00     0.171 C 
ATOM     15  C   UNL d   1      28.616 -12.491   9.382  0.00  0.00     0.034 C 
ENDBRANCH  13  14
ENDBRANCH   9  13
BRANCH  10  16
ATOM     16  O   UNL d   1      27.784 -10.105   5.480  0.00  0.00    -0.353 OA
ATOM     17  C   UNL d   1      28.751  -9.258   4.957  0.00  0.00     0.210 C 
ENDBRANCH  10  16
ENDBRANCH   1   7
BRANCH   4  18
ATOM     18  C   UNL d   1      28.024 -16.551  -0.642  0.00  0.00     0.144 C 
BRANCH  18  19
ATOM     19  C   UNL d   1      26.870 -17.557  -0.544  0.00  0.00     0.139 C 
BRANCH  19  20
ATOM     20  N   UNL d   1      25.657 -16.978   0.029  0.00  0.00    -0.388 N 
ATOM     21  H   UNL d   1      25.726 -16.200   0.678  0.00  0.00     0.159 HD
BRANCH  20  22
ATOM     22  C   UNL d   1      24.394 -17.444  -0.296  0.00  0.00     0.028 A 
ATOM     23  C   UNL d   1      24.131 -18.822  -0.293  0.00  0.00     0.031 A 
ATOM     24  C   UNL d   1      22.863 -19.325  -0.619  0.00  0.00     0.038 A 
ATOM     25  C   UNL d   1      21.818 -18.435  -0.886  0.00  0.00     0.103 A 
ATOM     26  C   UNL d   1      22.056 -17.059  -0.895  0.00  0.00     0.038 A 
ATOM     27  C   UNL d   1      23.334 -16.577  -0.591  0.00  0.00     0.031 A 
BRANCH  25  28
ATOM     28  N   UNL d   1      20.454 -18.942  -1.086  0.00  0.00    -0.116 N 
ATOM     29  O   UNL d   1      19.558 -18.494  -0.356  0.00  0.00    -0.532 OA
ATOM     30  O   UNL d   1      20.273 -19.769  -1.991  0.00  0.00    -0.532 OA
ENDBRANCH  25  28
ENDBRANCH  20  22
ENDBRANCH  19  20
ENDBRANCH  18  19
ENDBRANCH   4  18
TORSDOF 9
ENDMDL
MODEL 3
REMARK VINA RESULT:    -7.868      3.886      9.485
REMARK INTER + INTRA:         -12.121
REMARK INTER:                 -10.552
REMARK INTRA:                  -1.569
REMARK CONF_INDEPENDENT:        2.685
REMARK UNBOUND:                -1.569
REMARK  9 active torsions:
REMARK  status: ('A' for Active; 'I' for Inactive)
REMARK    1  A    between atoms: C_2  and  O_3 
REMARK    2  A    between atoms: O_3  and  C_4 
REMARK    3  A    between atoms: C_6  and  N_7 
REMARK       I    between atoms: N_7  and  C_8 
REMARK       I    between atoms: C_8  and  N_10 
REMARK    4  A    between atoms: N_10  and  C_11 
REMARK    5  A    between atoms: C_11  and  C_12 
REMARK    6  A    between atoms: C_12  and  N_13 
REMARK    7  A    between atoms: N_13  and  C_14 
REMARK    8  A    between atoms: C_17  and  N_18 
REMARK    9  A    between atoms: C_25  and  O_26 
ROOT
ATOM      1  N   UNL d   1      28.078 -16.815   0.336  0.00  0.00    -0.309 N 
ATOM      2  C   UNL d   1      28.635 -15.546   0.555  0.00  0.00     0.320 C 
ATOM      3  O   UNL d   1      28.086 -14.474   0.397  0.00  0.00    -0.247 OA
ATOM      4  N   UNL d   1      29.951 -15.540   0.978  0.00  0.00    -0.341 N 
ATOM      5  H   UNL d   1      28.608 -17.630   0.603  0.00  0.00     0.170 HD
ATOM      6  H   UNL d   1      30.439 -16.390   1.207  0.00  0.00     0.164 HD
ENDROOT
BRANCH   1   7
ATOM      7  C   UNL d   1      26.703 -17.025  -0.054  0.00  0.00     0.039 C 
ATOM      8  C   UNL d   1      25.966 -16.115  -0.861  0.00  0.00     0.069 C 
ATOM      9  C   UNL d   1      24.672 -16.445  -1.418  0.00  0.00     0.104 C 
ATOM     10  C   UNL d   1      24.137 -17.721  -1.117  0.00  0.00     0.101 C 
ATOM     11  C   UNL d   1      24.834 -18.550  -0.235  0.00  0.00     0.042 C 
ATOM     12  C   UNL d   1      26.059 -18.199   0.302  0.00  0.00     0.032 C 
BRANCH   9  13
ATOM     13  O   UNL d   1      24.231 -15.524  -2.371  0.00  0.00    -0.349 OA
BRANCH  13  14
ATOM     14  C   UNL d   1      25.180 -14.729  -3.088  0.00  0.00     0.171 C 
ATOM     15  C   UNL d   1      25.913 -15.405  -4.236  0.00  0.00     0.034 C 
ENDBRANCH  13  14
ENDBRANCH   9  13
BRANCH  10  16
ATOM     16  O   UNL d   1      23.062 -18.458  -1.547  0.00  0.00    -0.353 OA
ATOM     17  C   UNL d   1      22.161 -18.882  -0.582  0.00  0.00     0.210 C 
ENDBRANCH  10  16
ENDBRANCH   1   7
BRANCH   4  18
ATOM     18  C   UNL d   1      30.592 -14.226   1.189  0.00  0.00     0.144 C 
BRANCH  18  19
ATOM     19  C   UNL d   1      30.126 -13.483   2.447  0.00  0.00     0.139 C 
BRANCH  19  20
ATOM     20  N   UNL d   1      28.677 -13.299   2.496  0.00  0.00    -0.388 N 
ATOM     21  H   UNL d   1      28.066 -14.109   2.538  0.00  0.00     0.159 HD
BRANCH  20  22
ATOM     22  C   UNL d   1      28.094 -12.044   2.505  0.00  0.00     0.028 A 
ATOM     23  C   UNL d   1      27.797 -11.398   1.296  0.00  0.00     0.031 A 
ATOM     24  C   UNL d   1      27.207 -10.126   1.272  0.00  0.00     0.038 A 
ATOM     25  C   UNL d   1      26.844  -9.513   2.475  0.00  0.00     0.103 A 
ATOM     26  C   UNL d   1      27.130 -10.137   3.692  0.00  0.00     0.038 A 
ATOM     27  C   UNL d   1      27.740 -11.396   3.695  0.00  0.00     0.031 A 
BRANCH  25  28
ATOM     28  N   UNL d   1      26.096  -8.249   2.461  0.00  0.00    -0.116 N 
ATOM     29  O   UNL d   1      26.465  -7.350   3.230  0.00  0.00    -0.532 OA
ATOM     30  O   UNL d   1      25.155  -8.144   1.661  0.00  0.00    -0.532 OA
ENDBRANCH  25  28
ENDBRANCH  20  22
ENDBRANCH  19  20
ENDBRANCH  18  19
ENDBRANCH   4  18
TORSDOF 9
ENDMDL
MODEL 4
REMARK VINA RESULT:    -7.796      1.408      2.971
REMARK INTER + INTRA:         -11.472
REMARK INTER:                 -10.481
REMARK INTRA:                  -0.992
REMARK CONF_INDEPENDENT:        2.685
REMARK UNBOUND:                -0.992
REMARK  9 active torsions:
REMARK  status: ('A' for Active; 'I' for Inactive)
REMARK    1  A    between atoms: C_2  and  O_3 
REMARK    2  A    between atoms: O_3  and  C_4 
REMARK    3  A    between atoms: C_6  and  N_7 
REMARK       I    between atoms: N_7  and  C_8 
REMARK       I    between atoms: C_8  and  N_10 
REMARK    4  A    between atoms: N_10  and  C_11 
REMARK    5  A    between atoms: C_11  and  C_12 
REMARK    6  A    between atoms: C_12  and  N_13 
REMARK    7  A    between atoms: N_13  and  C_14 
REMARK    8  A    between atoms: C_17  and  N_18 
REMARK    9  A    between atoms: C_25  and  O_26 
ROOT
ATOM      1  N   UNL d   1      28.493 -14.785   2.511  0.00  0.00    -0.309 N 
ATOM      2  C   UNL d   1      27.756 -14.308   1.416  0.00  0.00     0.320 C 
ATOM      3  O   UNL d   1      27.035 -13.331   1.396  0.00  0.00    -0.247 OA
ATOM      4  N   UNL d   1      27.867 -15.051   0.256  0.00  0.00    -0.341 N 
ATOM      5  H   UNL d   1      29.135 -15.549   2.367  0.00  0.00     0.170 HD
ATOM      6  H   UNL d   1      28.509 -15.822   0.179  0.00  0.00     0.164 HD
ENDROOT
BRANCH   1   7
ATOM      7  C   UNL d   1      28.547 -14.113   3.788  0.00  0.00     0.039 C 
ATOM      8  C   UNL d   1      28.163 -12.757   3.982  0.00  0.00     0.069 C 
ATOM      9  C   UNL d   1      28.018 -12.172   5.297  0.00  0.00     0.104 C 
ATOM     10  C   UNL d   1      28.292 -12.999   6.414  0.00  0.00     0.101 C 
ATOM     11  C   UNL d   1      28.771 -14.292   6.190  0.00  0.00     0.042 C 
ATOM     12  C   UNL d   1      28.923 -14.818   4.921  0.00  0.00     0.032 C 
BRANCH   9  13
ATOM     13  O   UNL d   1      27.402 -10.919   5.278  0.00  0.00    -0.349 OA
BRANCH  13  14
ATOM     14  C   UNL d   1      27.805  -9.940   4.316  0.00  0.00     0.171 C 
ATOM     15  C   UNL d   1      26.729  -9.419   3.376  0.00  0.00     0.034 C 
ENDBRANCH  13  14
ENDBRANCH   9  13
BRANCH  10  16
ATOM     16  O   UNL d   1      28.136 -12.892   7.773  0.00  0.00    -0.353 OA
ATOM     17  C   UNL d   1      28.904 -13.733   8.565  0.00  0.00     0.210 C 
ENDBRANCH  10  16
ENDBRANCH   1   7
BRANCH   4  18
ATOM     18  C   UNL d   1      27.083 -14.608  -0.914  0.00  0.00     0.144 C 
BRANCH  18  19
ATOM     19  C   UNL d   1      26.171 -15.684  -1.515  0.00  0.00     0.139 C 
BRANCH  19  20
ATOM     20  N   UNL d   1      25.590 -16.567  -0.506  0.00  0.00    -0.388 N 
ATOM     21  H   UNL d   1      26.110 -16.778   0.341  0.00  0.00     0.159 HD
BRANCH  20  22
ATOM     22  C   UNL d   1      24.330 -17.123  -0.650  0.00  0.00     0.028 A 
ATOM     23  C   UNL d   1      24.171 -18.517  -0.631  0.00  0.00     0.031 A 
ATOM     24  C   UNL d   1      22.910 -19.111  -0.776  0.00  0.00     0.038 A 
ATOM     25  C   UNL d   1      21.775 -18.300  -0.873  0.00  0.00     0.103 A 
ATOM     26  C   UNL d   1      21.908 -16.910  -0.894  0.00  0.00     0.038 A 
ATOM     27  C   UNL d   1      23.178 -16.337  -0.773  0.00  0.00     0.031 A 
BRANCH  25  28
ATOM     28  N   UNL d   1      20.436 -18.906  -0.879  0.00  0.00    -0.116 N 
ATOM     29  O   UNL d   1      19.481 -18.201  -0.524  0.00  0.00    -0.532 OA
ATOM     30  O   UNL d   1      20.336 -20.080  -1.265  0.00  0.00    -0.532 OA
ENDBRANCH  25  28
ENDBRANCH  20  22
ENDBRANCH  19  20
ENDBRANCH  18  19
ENDBRANCH   4  18
TORSDOF 9
ENDMDL
MODEL 5
REMARK VINA RESULT:    -7.739      3.409      9.131
REMARK INTER + INTRA:         -11.811
REMARK INTER:                 -10.424
REMARK INTRA:                  -1.387
REMARK CONF_INDEPENDENT:        2.685
REMARK UNBOUND:                -1.387
REMARK  9 active torsions:
REMARK  status: ('A' for Active; 'I' for Inactive)
REMARK    1  A    between atoms: C_2  and  O_3 
REMARK    2  A    between atoms: O_3  and  C_4 
REMARK    3  A    between atoms: C_6  and  N_7 
REMARK       I    between atoms: N_7  and  C_8 
REMARK       I    between atoms: C_8  and  N_10 
REMARK    4  A    between atoms: N_10  and  C_11 
REMARK    5  A    between atoms: C_11  and  C_12 
REMARK    6  A    between atoms: C_12  and  N_13 
REMARK    7  A    between atoms: N_13  and  C_14 
REMARK    8  A    between atoms: C_17  and  N_18 
REMARK    9  A    between atoms: C_25  and  O_26 
ROOT
ATOM      1  N   UNL d   1      28.070 -15.483   1.330  0.00  0.00    -0.309 N 
ATOM      2  C   UNL d   1      27.779 -14.644   2.415  0.00  0.00     0.320 C 
ATOM      3  O   UNL d   1      26.923 -13.782   2.459  0.00  0.00    -0.247 OA
ATOM      4  N   UNL d   1      28.569 -14.823   3.535  0.00  0.00    -0.341 N 
ATOM      5  H   UNL d   1      28.737 -16.228   1.458  0.00  0.00     0.170 HD
ATOM      6  H   UNL d   1      29.240 -15.571   3.597  0.00  0.00     0.164 HD
ENDROOT
BRANCH   1   7
ATOM      7  C   UNL d   1      27.318 -15.482   0.097  0.00  0.00     0.039 C 
ATOM      8  C   UNL d   1      26.439 -16.532  -0.290  0.00  0.00     0.069 C 
ATOM      9  C   UNL d   1      25.535 -16.413  -1.414  0.00  0.00     0.104 C 
ATOM     10  C   UNL d   1      25.562 -15.201  -2.147  0.00  0.00     0.101 C 
ATOM     11  C   UNL d   1      26.509 -14.232  -1.809  0.00  0.00     0.042 C 
ATOM     12  C   UNL d   1      27.378 -14.383  -0.745  0.00  0.00     0.032 C 
BRANCH   9  13
ATOM     13  O   UNL d   1      24.595 -17.443  -1.476  0.00  0.00    -0.349 OA
BRANCH  13  14
ATOM     14  C   UNL d   1      24.149 -18.076  -0.274  0.00  0.00     0.171 C 
ATOM     15  C   UNL d   1      22.777 -18.730  -0.312  0.00  0.00     0.034 C 
ENDBRANCH  13  14
ENDBRANCH   9  13
BRANCH  10  16
ATOM     16  O   UNL d   1      24.797 -14.642  -3.140  0.00  0.00    -0.353 OA
ATOM     17  C   UNL d   1      25.471 -14.042  -4.194  0.00  0.00     0.210 C 
ENDBRANCH  10  16
ENDBRANCH   1   7
BRANCH   4  18
ATOM     18  C   UNL d   1      28.323 -13.938   4.691  0.00  0.00     0.144 C 
BRANCH  18  19
ATOM     19  C   UNL d   1      29.280 -12.744   4.796  0.00  0.00     0.139 C 
BRANCH  19  20
ATOM     20  N   UNL d   1      29.398 -11.998   3.545  0.00  0.00    -0.388 N 
ATOM     21  H   UNL d   1      30.206 -12.141   2.945  0.00  0.00     0.159 HD
BRANCH  20  22
ATOM     22  C   UNL d   1      28.429 -11.102   3.127  0.00  0.00     0.028 A 
ATOM     23  C   UNL d   1      27.751 -10.312   4.067  0.00  0.00     0.031 A 
ATOM     24  C   UNL d   1      26.763  -9.397   3.676  0.00  0.00     0.038 A 
ATOM     25  C   UNL d   1      26.493  -9.216   2.316  0.00  0.00     0.103 A 
ATOM     26  C   UNL d   1      27.155  -9.991   1.362  0.00  0.00     0.038 A 
ATOM     27  C   UNL d   1      28.121 -10.917   1.774  0.00  0.00     0.031 A 
BRANCH  25  28
ATOM     28  N   UNL d   1      25.567  -8.160   1.884  0.00  0.00    -0.116 N 
ATOM     29  O   UNL d   1      25.695  -7.036   2.390  0.00  0.00    -0.532 OA
ATOM     30  O   UNL d   1      24.728  -8.448   1.018  0.00  0.00    -0.532 OA
ENDBRANCH  25  28
ENDBRANCH  20  22
ENDBRANCH  19  20
ENDBRANCH  18  19
ENDBRANCH   4  18
TORSDOF 9
ENDMDL
MODEL 6
REMARK VINA RESULT:    -7.501      6.597     10.005
REMARK INTER + INTRA:         -11.898
REMARK INTER:                 -10.186
REMARK INTRA:                  -1.712
REMARK CONF_INDEPENDENT:        2.685
REMARK UNBOUND:                -1.712
REMARK  9 active torsions:
REMARK  status: ('A' for Active; 'I' for Inactive)
REMARK    1  A    between atoms: C_2  and  O_3 
REMARK    2  A    between atoms: O_3  and  C_4 
REMARK    3  A    between atoms: C_6  and  N_7 
REMARK       I    between atoms: N_7  and  C_8 
REMARK       I    between atoms: C_8  and  N_10 
REMARK    4  A    between atoms: N_10  and  C_11 
REMARK    5  A    between atoms: C_11  and  C_12 
REMARK    6  A    between atoms: C_12  and  N_13 
REMARK    7  A    between atoms: N_13  and  C_14 
REMARK    8  A    between atoms: C_17  and  N_18 
REMARK    9  A    between atoms: C_25  and  O_26 
ROOT
ATOM      1  N   UNL d   1      27.795 -17.803  -0.139  0.00  0.00    -0.309 N 
ATOM      2  C   UNL d   1      28.774 -17.446  -1.078  0.00  0.00     0.320 C 
ATOM      3  O   UNL d   1      28.595 -16.855  -2.124  0.00  0.00    -0.247 OA
ATOM      4  N   UNL d   1      30.065 -17.828  -0.767  0.00  0.00    -0.341 N 
ATOM      5  H   UNL d   1      28.089 -18.202   0.739  0.00  0.00     0.170 HD
ATOM      6  H   UNL d   1      30.296 -18.247   0.119  0.00  0.00     0.164 HD
ENDROOT
BRANCH   1   7
ATOM      7  C   UNL d   1      26.402 -17.443  -0.262  0.00  0.00     0.039 C 
ATOM      8  C   UNL d   1      25.934 -16.376  -1.079  0.00  0.00     0.069 C 
ATOM      9  C   UNL d   1      24.530 -16.170  -1.358  0.00  0.00     0.104 C 
ATOM     10  C   UNL d   1      23.609 -17.071  -0.769  0.00  0.00     0.101 C 
ATOM     11  C   UNL d   1      24.089 -18.042   0.112  0.00  0.00     0.042 C 
ATOM     12  C   UNL d   1      25.435 -18.200   0.381  0.00  0.00     0.032 C 
BRANCH   9  13
ATOM     13  O   UNL d   1      24.300 -15.231  -2.366  0.00  0.00    -0.349 OA
BRANCH  13  14
ATOM     14  C   UNL d   1      25.400 -14.693  -3.105  0.00  0.00     0.171 C 
ATOM     15  C   UNL d   1      25.904 -15.514  -4.280  0.00  0.00     0.034 C 
ENDBRANCH  13  14
ENDBRANCH   9  13
BRANCH  10  16
ATOM     16  O   UNL d   1      22.264 -17.316  -0.895  0.00  0.00    -0.353 OA
ATOM     17  C   UNL d   1      21.862 -18.644  -0.894  0.00  0.00     0.210 C 
ENDBRANCH  10  16
ENDBRANCH   1   7
BRANCH   4  18
ATOM     18  C   UNL d   1      31.125 -17.504  -1.742  0.00  0.00     0.144 C 
BRANCH  18  19
ATOM     19  C   UNL d   1      31.187 -18.443  -2.953  0.00  0.00     0.139 C 
BRANCH  19  20
ATOM     20  N   UNL d   1      30.305 -18.026  -4.042  0.00  0.00    -0.388 N 
ATOM     21  H   UNL d   1      29.484 -17.463  -3.840  0.00  0.00     0.159 HD
BRANCH  20  22
ATOM     22  C   UNL d   1      30.558 -18.357  -5.363  0.00  0.00     0.028 A 
ATOM     23  C   UNL d   1      30.405 -19.683  -5.796  0.00  0.00     0.031 A 
ATOM     24  C   UNL d   1      30.655 -20.050  -7.126  0.00  0.00     0.038 A 
ATOM     25  C   UNL d   1      30.997 -19.066  -8.059  0.00  0.00     0.103 A 
ATOM     26  C   UNL d   1      31.155 -17.740  -7.650  0.00  0.00     0.038 A 
ATOM     27  C   UNL d   1      30.925 -17.397  -6.313  0.00  0.00     0.031 A 
BRANCH  25  28
ATOM     28  N   UNL d   1      31.119 -19.412  -9.481  0.00  0.00    -0.116 N 
ATOM     29  O   UNL d   1      30.088 -19.734 -10.088  0.00  0.00    -0.532 OA
ATOM     30  O   UNL d   1      32.243 -19.336  -9.998  0.00  0.00    -0.532 OA
ENDBRANCH  25  28
ENDBRANCH  20  22
ENDBRANCH  19  20
ENDBRANCH  18  19
ENDBRANCH   4  18
TORSDOF 9
ENDMDL
MODEL 7
REMARK VINA RESULT:    -7.407      5.743      9.625
REMARK INTER + INTRA:         -11.645
REMARK INTER:                 -10.092
REMARK INTRA:                  -1.553
REMARK CONF_INDEPENDENT:        2.685
REMARK UNBOUND:                -1.553
REMARK  9 active torsions:
REMARK  status: ('A' for Active; 'I' for Inactive)
REMARK    1  A    between atoms: C_2  and  O_3 
REMARK    2  A    between atoms: O_3  and  C_4 
REMARK    3  A    between atoms: C_6  and  N_7 
REMARK       I    between atoms: N_7  and  C_8 
REMARK       I    between atoms: C_8  and  N_10 
REMARK    4  A    between atoms: N_10  and  C_11 
REMARK    5  A    between atoms: C_11  and  C_12 
REMARK    6  A    between atoms: C_12  and  N_13 
REMARK    7  A    between atoms: N_13  and  C_14 
REMARK    8  A    between atoms: C_17  and  N_18 
REMARK    9  A    between atoms: C_25  and  O_26 
ROOT
ATOM      1  N   UNL d   1      30.131 -17.620  -2.387  0.00  0.00    -0.309 N 
ATOM      2  C   UNL d   1      29.058 -17.024  -1.707  0.00  0.00     0.320 C 
ATOM      3  O   UNL d   1      28.093 -16.480  -2.206  0.00  0.00    -0.247 OA
ATOM      4  N   UNL d   1      29.136 -17.057  -0.328  0.00  0.00    -0.341 N 
ATOM      5  H   UNL d   1      30.819 -18.129  -1.854  0.00  0.00     0.170 HD
ATOM      6  H   UNL d   1      29.863 -17.562   0.151  0.00  0.00     0.164 HD
ENDROOT
BRANCH   1   7
ATOM      7  C   UNL d   1      30.200 -17.732  -3.825  0.00  0.00     0.039 C 
ATOM      8  C   UNL d   1      29.802 -16.696  -4.716  0.00  0.00     0.069 C 
ATOM      9  C   UNL d   1      30.081 -16.742  -6.134  0.00  0.00     0.104 C 
ATOM     10  C   UNL d   1      30.761 -17.882  -6.629  0.00  0.00     0.101 C 
ATOM     11  C   UNL d   1      31.043 -18.930  -5.749  0.00  0.00     0.042 C 
ATOM     12  C   UNL d   1      30.743 -18.869  -4.402  0.00  0.00     0.032 C 
BRANCH   9  13
ATOM     13  O   UNL d   1      29.832 -15.533  -6.785  0.00  0.00    -0.349 OA
BRANCH  13  14
ATOM     14  C   UNL d   1      29.086 -14.507  -6.124  0.00  0.00     0.171 C 
ATOM     15  C   UNL d   1      27.664 -14.851  -5.710  0.00  0.00     0.034 C 
ENDBRANCH  13  14
ENDBRANCH   9  13
BRANCH  10  16
ATOM     16  O   UNL d   1      31.331 -18.239  -7.825  0.00  0.00    -0.353 OA
ATOM     17  C   UNL d   1      31.022 -19.497  -8.321  0.00  0.00     0.210 C 
ENDBRANCH  10  16
ENDBRANCH   1   7
BRANCH   4  18
ATOM     18  C   UNL d   1      28.046 -16.411   0.432  0.00  0.00     0.144 C 
BRANCH  18  19
ATOM     19  C   UNL d   1      26.763 -17.245   0.541  0.00  0.00     0.139 C 
BRANCH  19  20
ATOM     20  N   UNL d   1      25.946 -17.193  -0.669  0.00  0.00    -0.388 N 
ATOM     21  H   UNL d   1      26.356 -16.876  -1.543  0.00  0.00     0.159 HD
BRANCH  20  22
ATOM     22  C   UNL d   1      24.617 -17.582  -0.678  0.00  0.00     0.028 A 
ATOM     23  C   UNL d   1      23.606 -16.622  -0.834  0.00  0.00     0.031 A 
ATOM     24  C   UNL d   1      22.251 -16.983  -0.846  0.00  0.00     0.038 A 
ATOM     25  C   UNL d   1      21.898 -18.334  -0.770  0.00  0.00     0.103 A 
ATOM     26  C   UNL d   1      22.888 -19.307  -0.614  0.00  0.00     0.038 A 
ATOM     27  C   UNL d   1      24.233 -18.925  -0.580  0.00  0.00     0.031 A 
BRANCH  25  28
ATOM     28  N   UNL d   1      20.495 -18.738  -0.926  0.00  0.00    -0.116 N 
ATOM     29  O   UNL d   1      19.631 -17.851  -0.892  0.00  0.00    -0.532 OA
ATOM     30  O   UNL d   1      20.258 -19.941  -1.111  0.00  0.00    -0.532 OA
ENDBRANCH  25  28
ENDBRANCH  20  22
ENDBRANCH  19  20
ENDBRANCH  18  19
ENDBRANCH   4  18
TORSDOF 9
ENDMDL
MODEL 8
REMARK VINA RESULT:    -7.341      2.776      3.805
REMARK INTER + INTRA:         -11.577
REMARK INTER:                 -10.026
REMARK INTRA:                  -1.551
REMARK CONF_INDEPENDENT:        2.685
REMARK UNBOUND:                -1.551
REMARK  9 active torsions:
REMARK  status: ('A' for Active; 'I' for Inactive)
REMARK    1  A    between atoms: C_2  and  O_3 
REMARK    2  A    between atoms: O_3  and  C_4 
REMARK    3  A    between atoms: C_6  and  N_7 
REMARK       I    between atoms: N_7  and  C_8 
REMARK       I    between atoms: C_8  and  N_10 
REMARK    4  A    between atoms: N_10  and  C_11 
REMARK    5  A    between atoms: C_11  and  C_12 
REMARK    6  A    between atoms: C_12  and  N_13 
REMARK    7  A    between atoms: N_13  and  C_14 
REMARK    8  A    between atoms: C_17  and  N_18 
REMARK    9  A    between atoms: C_25  and  O_26 
ROOT
ATOM      1  N   UNL d   1      28.104 -13.878   2.378  0.00  0.00    -0.309 N 
ATOM      2  C   UNL d   1      27.722 -14.578   1.223  0.00  0.00     0.320 C 
ATOM      3  O   UNL d   1      26.858 -14.257   0.432  0.00  0.00    -0.247 OA
ATOM      4  N   UNL d   1      28.402 -15.758   0.990  0.00  0.00    -0.341 N 
ATOM      5  H   UNL d   1      28.907 -14.200   2.895  0.00  0.00     0.170 HD
ATOM      6  H   UNL d   1      29.183 -16.042   1.558  0.00  0.00     0.164 HD
ENDROOT
BRANCH   1   7
ATOM      7  C   UNL d   1      27.548 -12.601   2.757  0.00  0.00     0.039 C 
ATOM      8  C   UNL d   1      27.901 -11.911   3.950  0.00  0.00     0.069 C 
ATOM      9  C   UNL d   1      27.503 -10.543   4.202  0.00  0.00     0.104 C 
ATOM     10  C   UNL d   1      26.717  -9.899   3.215  0.00  0.00     0.101 C 
ATOM     11  C   UNL d   1      26.297 -10.635   2.105  0.00  0.00     0.042 C 
ATOM     12  C   UNL d   1      26.673 -11.950   1.901  0.00  0.00     0.032 C 
BRANCH   9  13
ATOM     13  O   UNL d   1      28.149  -9.975   5.302  0.00  0.00    -0.349 OA
BRANCH  13  14
ATOM     14  C   UNL d   1      28.910  -8.774   5.141  0.00  0.00     0.171 C 
ATOM     15  C   UNL d   1      28.438  -7.555   5.916  0.00  0.00     0.034 C 
ENDBRANCH  13  14
ENDBRANCH   9  13
BRANCH  10  16
ATOM     16  O   UNL d   1      26.278  -8.617   2.997  0.00  0.00    -0.353 OA
ATOM     17  C   UNL d   1      26.035  -8.248   1.682  0.00  0.00     0.210 C 
ENDBRANCH  10  16
ENDBRANCH   1   7
BRANCH   4  18
ATOM     18  C   UNL d   1      28.011 -16.547  -0.195  0.00  0.00     0.144 C 
BRANCH  18  19
ATOM     19  C   UNL d   1      26.709 -17.341  -0.031  0.00  0.00     0.139 C 
BRANCH  19  20
ATOM     20  N   UNL d   1      25.515 -16.538  -0.289  0.00  0.00    -0.388 N 
ATOM     21  H   UNL d   1      25.585 -15.525  -0.321  0.00  0.00     0.159 HD
BRANCH  20  22
ATOM     22  C   UNL d   1      24.275 -17.111  -0.513  0.00  0.00     0.028 A 
ATOM     23  C   UNL d   1      24.139 -18.508  -0.523  0.00  0.00     0.031 A 
ATOM     24  C   UNL d   1      22.897 -19.119  -0.749  0.00  0.00     0.038 A 
ATOM     25  C   UNL d   1      21.757 -18.325  -0.901  0.00  0.00     0.103 A 
ATOM     26  C   UNL d   1      21.868 -16.933  -0.895  0.00  0.00     0.038 A 
ATOM     27  C   UNL d   1      23.120 -16.341  -0.692  0.00  0.00     0.031 A 
BRANCH  25  28
ATOM     28  N   UNL d   1      20.431 -18.951  -0.993  0.00  0.00    -0.116 N 
ATOM     29  O   UNL d   1      19.466 -18.334  -0.520  0.00  0.00    -0.532 OA
ATOM     30  O   UNL d   1      20.350 -20.049  -1.563  0.00  0.00    -0.532 OA
ENDBRANCH  25  28
ENDBRANCH  20  22
ENDBRANCH  19  20
ENDBRANCH  18  19
ENDBRANCH   4  18
TORSDOF 9
ENDMDL
MODEL 9
REMARK VINA RESULT:    -7.176      6.147     10.161
REMARK INTER + INTRA:         -11.490
REMARK INTER:                  -9.861
REMARK INTRA:                  -1.629
REMARK CONF_INDEPENDENT:        2.685
REMARK UNBOUND:                -1.629
REMARK  9 active torsions:
REMARK  status: ('A' for Active; 'I' for Inactive)
REMARK    1  A    between atoms: C_2  and  O_3 
REMARK    2  A    between atoms: O_3  and  C_4 
REMARK    3  A    between atoms: C_6  and  N_7 
REMARK       I    between atoms: N_7  and  C_8 
REMARK       I    between atoms: C_8  and  N_10 
REMARK    4  A    between atoms: N_10  and  C_11 
REMARK    5  A    between atoms: C_11  and  C_12 
REMARK    6  A    between atoms: C_12  and  N_13 
REMARK    7  A    between atoms: N_13  and  C_14 
REMARK    8  A    between atoms: C_17  and  N_18 
REMARK    9  A    between atoms: C_25  and  O_26 
ROOT
ATOM      1  N   UNL d   1      24.976 -13.393  -4.239  0.00  0.00    -0.309 N 
ATOM      2  C   UNL d   1      25.873 -12.341  -4.479  0.00  0.00     0.320 C 
ATOM      3  O   UNL d   1      26.883 -12.089  -3.853  0.00  0.00    -0.247 OA
ATOM      4  N   UNL d   1      25.546 -11.509  -5.533  0.00  0.00    -0.341 N 
ATOM      5  H   UNL d   1      24.230 -13.553  -4.897  0.00  0.00     0.170 HD
ATOM      6  H   UNL d   1      24.771 -11.706  -6.144  0.00  0.00     0.164 HD
ENDROOT
BRANCH   1   7
ATOM      7  C   UNL d   1      25.179 -14.395  -3.219  0.00  0.00     0.039 C 
ATOM      8  C   UNL d   1      24.135 -14.902  -2.395  0.00  0.00     0.069 C 
ATOM      9  C   UNL d   1      24.314 -16.054  -1.537  0.00  0.00     0.104 C 
ATOM     10  C   UNL d   1      25.591 -16.667  -1.525  0.00  0.00     0.101 C 
ATOM     11  C   UNL d   1      26.623 -16.083  -2.262  0.00  0.00     0.042 C 
ATOM     12  C   UNL d   1      26.431 -14.967  -3.055  0.00  0.00     0.032 C 
BRANCH   9  13
ATOM     13  O   UNL d   1      23.116 -16.535  -1.005  0.00  0.00    -0.349 OA
BRANCH  13  14
ATOM     14  C   UNL d   1      23.076 -17.826  -0.390  0.00  0.00     0.171 C 
ATOM     15  C   UNL d   1      22.450 -18.951  -1.198  0.00  0.00     0.034 C 
ENDBRANCH  13  14
ENDBRANCH   9  13
BRANCH  10  16
ATOM     16  O   UNL d   1      26.117 -17.819  -0.997  0.00  0.00    -0.353 OA
ATOM     17  C   UNL d   1      26.847 -17.698   0.177  0.00  0.00     0.210 C 
ENDBRANCH  10  16
ENDBRANCH   1   7
BRANCH   4  18
ATOM     18  C   UNL d   1      26.442 -10.367  -5.804  0.00  0.00     0.144 C 
BRANCH  18  19
ATOM     19  C   UNL d   1      26.398  -9.257  -4.745  0.00  0.00     0.139 C 
BRANCH  19  20
ATOM     20  N   UNL d   1      27.119  -9.608  -3.523  0.00  0.00    -0.388 N 
ATOM     21  H   UNL d   1      27.943 -10.199  -3.574  0.00  0.00     0.159 HD
BRANCH  20  22
ATOM     22  C   UNL d   1      26.729  -9.142  -2.279  0.00  0.00     0.028 A 
ATOM     23  C   UNL d   1      27.324  -9.659  -1.118  0.00  0.00     0.031 A 
ATOM     24  C   UNL d   1      26.951  -9.210   0.157  0.00  0.00     0.038 A 
ATOM     25  C   UNL d   1      26.015  -8.178   0.276  0.00  0.00     0.103 A 
ATOM     26  C   UNL d   1      25.409  -7.648  -0.866  0.00  0.00     0.038 A 
ATOM     27  C   UNL d   1      25.778  -8.126  -2.128  0.00  0.00     0.031 A 
BRANCH  25  28
ATOM     28  N   UNL d   1      25.722  -7.599   1.594  0.00  0.00    -0.116 N 
ATOM     29  O   UNL d   1      25.154  -6.498   1.628  0.00  0.00    -0.532 OA
ATOM     30  O   UNL d   1      26.036  -8.257   2.596  0.00  0.00    -0.532 OA
ENDBRANCH  25  28
ENDBRANCH  20  22
ENDBRANCH  19  20
ENDBRANCH  18  19
ENDBRANCH   4  18
TORSDOF 9
ENDMDL
