MODEL 1
REMARK VINA RESULT:   -32.073      0.000      0.000
REMARK INTER + INTRA:         -37.288
REMARK INTER:                 -35.652
REMARK INTRA:                  -1.635
REMARK CONF_INDEPENDENT:        3.580
REMARK UNBOUND:                -1.635
REMARK  12 active torsions:
REMARK  status: ('A' for Active; 'I' for Inactive)
REMARK    1  A    between atoms: C_2  and  O_3 
REMARK    2  A    between atoms: O_3  and  C_4 
REMARK    3  A    between atoms: C_6  and  C_7 
REMARK    4  A    between atoms: C_7  and  N_8 
REMARK    5  A    between atoms: N_8  and  C_9 
REMARK    6  A    between atoms: C_9  and  C_10 
REMARK    7  A    between atoms: C_10  and  N_11 
REMARK       I    between atoms: N_11  and  C_12 
REMARK    8  A    between atoms: C_12  and  C_14 
REMARK    9  A    between atoms: C_18  and  N_19 
REMARK   10  A    between atoms: C_22  and  O_23 
REMARK   11  A    between atoms: O_23  and  C_24 
REMARK   12  A    between atoms: C_24  and  C_25 
ROOT
ATOM      1  C   UNL d   1      27.685 -13.726   1.300  0.00  0.00     0.102 A 
ATOM      2  C   UNL d   1      27.007 -14.688   0.521  0.00  0.00     0.048 A 
ATOM      3  C   UNL d   1      27.673 -15.815  -0.015  0.00  0.00    -0.030 A 
ATOM      4  C   UNL d   1      29.062 -15.905   0.108  0.00  0.00     0.012 A 
ATOM      5  C   UNL d   1      29.745 -14.985   0.863  0.00  0.00     0.040 A 
ATOM      6  C   UNL d   1      29.084 -13.926   1.484  0.00  0.00     0.102 A 
ENDROOT
BRANCH   3   7
ATOM      7  C   UNL d   1      26.888 -16.959  -0.590  0.00  0.00     0.271 C 
BRANCH   7   8
ATOM      8  N   UNL d   1      26.626 -18.038   0.420  0.00  0.00    -0.070 N 
ATOM      9  H   UNL d   1      27.154 -17.805   1.276  0.00  0.00     0.277 HD
ATOM     10  H   UNL d   1      27.021 -18.916   0.055  0.00  0.00     0.277 HD
BRANCH   8  11
ATOM     11  C   UNL d   1      25.197 -18.227   0.748  0.00  0.00     0.252 C 
BRANCH  11  12
ATOM     12  C   UNL d   1      24.347 -18.301  -0.520  0.00  0.00     0.150 C 
BRANCH  12  13
ATOM     13  N   UNL d   1      23.097 -19.006  -0.295  0.00  0.00    -0.354 N 
ATOM     14  C   UNL d   1      21.891 -18.315  -0.440  0.00  0.00     0.276 C 
ATOM     15  O   UNL d   1      21.898 -17.131  -0.723  0.00  0.00    -0.266 OA
ATOM     16  H   UNL d   1      23.056 -20.018  -0.248  0.00  0.00     0.162 HD
BRANCH  14  17
ATOM     17  C   UNL d   1      20.670 -19.095  -0.241  0.00  0.00     0.201 A 
ATOM     18  N   UNL d   1      19.841 -19.325  -1.270  0.00  0.00    -0.096 NA
ATOM     19  O   UNL d   1      18.766 -20.013  -0.728  0.00  0.00    -0.104 OA
ATOM     20  N   UNL d   1      18.941 -20.226   0.630  0.00  0.00    -0.085 NA
ATOM     21  C   UNL d   1      20.119 -19.681   0.925  0.00  0.00     0.188 A 
BRANCH  21  22
ATOM     22  N   UNL d   1      20.655 -19.710   2.164  0.00  0.00    -0.380 N 
ATOM     23  H   UNL d   1      21.271 -18.938   2.419  0.00  0.00     0.158 HD
ATOM     24  H   UNL d   1      20.819 -20.555   2.694  0.00  0.00     0.158 HD
ENDBRANCH  21  22
ENDBRANCH  14  17
ENDBRANCH  12  13
ENDBRANCH  11  12
ENDBRANCH   8  11
ENDBRANCH   7   8
ENDBRANCH   3   7
BRANCH   1  25
ATOM     25  O   UNL d   1      26.811 -12.871   1.971  0.00  0.00    -0.349 OA
BRANCH  25  26
ATOM     26  C   UNL d   1      27.065 -11.462   2.029  0.00  0.00     0.171 C 
ATOM     27  C   UNL d   1      27.732 -10.822   0.829  0.00  0.00     0.034 C 
ENDBRANCH  25  26
ENDBRANCH   1  25
BRANCH   6  28
ATOM     28  O   UNL d   1      30.029 -13.280   2.250  0.00  0.00    -0.344 OA
BRANCH  28  29
ATOM     29  C   UNL d   1      30.111 -13.879   3.497  0.00  0.00     0.216 C 
BRANCH  29  30
ATOM     30  C   UNL d   1      29.608 -13.193   4.700  0.00  0.00    -0.012 C 
ATOM     31  C   UNL d   1      30.109 -11.915   5.021  0.00  0.00     0.013 C 
ATOM     32  C   UNL d   1      29.855 -11.406   6.278  0.00  0.00     0.024 C 
ATOM     33  C   UNL d   1      28.988 -12.103   7.117  0.00  0.00     0.035 C 
ATOM     34 CL   UNL d   1      28.662 -11.487   8.684  0.00  0.00    -0.084 Cl
ATOM     35  C   UNL d   1      28.355 -13.279   6.709  0.00  0.00     0.048 C 
ATOM     36  C   UNL d   1      28.642 -13.812   5.475  0.00  0.00     0.044 C 
ATOM     37 CL   UNL d   1      27.789 -15.207   4.919  0.00  0.00    -0.084 Cl
ENDBRANCH  29  30
ENDBRANCH  28  29
ENDBRANCH   6  28
TORSDOF 12
ENDMDL
MODEL 2
REMARK VINA RESULT:   -31.874      6.084      8.374
REMARK INTER + INTRA:         -37.535
REMARK INTER:                 -35.453
REMARK INTRA:                  -2.082
REMARK CONF_INDEPENDENT:        3.580
REMARK UNBOUND:                -2.082
REMARK  12 active torsions:
REMARK  status: ('A' for Active; 'I' for Inactive)
REMARK    1  A    between atoms: C_2  and  O_3 
REMARK    2  A    between atoms: O_3  and  C_4 
REMARK    3  A    between atoms: C_6  and  C_7 
REMARK    4  A    between atoms: C_7  and  N_8 
REMARK    5  A    between atoms: N_8  and  C_9 
REMARK    6  A    between atoms: C_9  and  C_10 
REMARK    7  A    between atoms: C_10  and  N_11 
REMARK       I    between atoms: N_11  and  C_12 
REMARK    8  A    between atoms: C_12  and  C_14 
REMARK    9  A    between atoms: C_18  and  N_19 
REMARK   10  A    between atoms: C_22  and  O_23 
REMARK   11  A    between atoms: O_23  and  C_24 
REMARK   12  A    between atoms: C_24  and  C_25 
ROOT
ATOM      1  C   UNL d   1      28.367 -15.050  -3.628  0.00  0.00     0.102 A 
ATOM      2  C   UNL d   1      27.607 -15.023  -2.439  0.00  0.00     0.048 A 
ATOM      3  C   UNL d   1      26.203 -15.195  -2.449  0.00  0.00    -0.030 A 
ATOM      4  C   UNL d   1      25.534 -15.250  -3.674  0.00  0.00     0.012 A 
ATOM      5  C   UNL d   1      26.249 -15.282  -4.845  0.00  0.00     0.040 A 
ATOM      6  C   UNL d   1      27.642 -15.218  -4.844  0.00  0.00     0.102 A 
ENDROOT
BRANCH   3   7
ATOM      7  C   UNL d   1      25.459 -15.445  -1.168  0.00  0.00     0.271 C 
BRANCH   7   8
ATOM      8  N   UNL d   1      24.234 -16.288  -1.374  0.00  0.00    -0.070 N 
ATOM      9  H   UNL d   1      23.857 -16.075  -2.310  0.00  0.00     0.277 HD
ATOM     10  H   UNL d   1      23.526 -15.989  -0.690  0.00  0.00     0.277 HD
BRANCH   8  11
ATOM     11  C   UNL d   1      24.472 -17.742  -1.248  0.00  0.00     0.252 C 
BRANCH  11  12
ATOM     12  C   UNL d   1      24.186 -18.225   0.174  0.00  0.00     0.150 C 
BRANCH  12  13
ATOM     13  N   UNL d   1      22.939 -18.966   0.255  0.00  0.00    -0.354 N 
ATOM     14  C   UNL d   1      21.785 -18.418  -0.310  0.00  0.00     0.276 C 
ATOM     15  O   UNL d   1      21.827 -17.321  -0.837  0.00  0.00    -0.266 OA
ATOM     16  H   UNL d   1      22.917 -19.946   0.514  0.00  0.00     0.162 HD
BRANCH  14  17
ATOM     17  C   UNL d   1      20.575 -19.235  -0.229  0.00  0.00     0.201 A 
ATOM     18  N   UNL d   1      19.730 -19.294  -1.270  0.00  0.00    -0.096 NA
ATOM     19  O   UNL d   1      18.671 -20.078  -0.838  0.00  0.00    -0.104 OA
ATOM     20  N   UNL d   1      18.870 -20.517   0.461  0.00  0.00    -0.085 NA
ATOM     21  C   UNL d   1      20.048 -20.018   0.828  0.00  0.00     0.188 A 
BRANCH  21  22
ATOM     22  N   UNL d   1      20.605 -20.252   2.035  0.00  0.00    -0.380 N 
ATOM     23  H   UNL d   1      21.155 -19.496   2.444  0.00  0.00     0.158 HD
ATOM     24  H   UNL d   1      20.851 -21.169   2.380  0.00  0.00     0.158 HD
ENDBRANCH  21  22
ENDBRANCH  14  17
ENDBRANCH  12  13
ENDBRANCH  11  12
ENDBRANCH   8  11
ENDBRANCH   7   8
ENDBRANCH   3   7
BRANCH   1  25
ATOM     25  O   UNL d   1      29.735 -15.161  -3.384  0.00  0.00    -0.349 OA
BRANCH  25  26
ATOM     26  C   UNL d   1      30.401 -16.424  -3.507  0.00  0.00     0.171 C 
ATOM     27  C   UNL d   1      29.887 -17.385  -4.560  0.00  0.00     0.034 C 
ENDBRANCH  25  26
ENDBRANCH   1  25
BRANCH   6  28
ATOM     28  O   UNL d   1      28.036 -15.400  -6.151  0.00  0.00    -0.344 OA
BRANCH  28  29
ATOM     29  C   UNL d   1      29.128 -14.594  -6.429  0.00  0.00     0.216 C 
BRANCH  29  30
ATOM     30  C   UNL d   1      28.959 -13.306  -7.125  0.00  0.00    -0.012 C 
ATOM     31  C   UNL d   1      27.787 -12.554  -6.903  0.00  0.00     0.013 C 
ATOM     32  C   UNL d   1      27.506 -11.509  -7.757  0.00  0.00     0.024 C 
ATOM     33  C   UNL d   1      28.463 -11.143  -8.702  0.00  0.00     0.035 C 
ATOM     34 CL   UNL d   1      28.130  -9.847  -9.773  0.00  0.00    -0.084 Cl
ATOM     35  C   UNL d   1      29.700 -11.786  -8.784  0.00  0.00     0.048 C 
ATOM     36  C   UNL d   1      29.964 -12.857  -7.965  0.00  0.00     0.044 C 
ATOM     37 CL   UNL d   1      31.526 -13.594  -7.987  0.00  0.00    -0.084 Cl
ENDBRANCH  29  30
ENDBRANCH  28  29
ENDBRANCH   6  28
TORSDOF 12
ENDMDL
MODEL 3
REMARK VINA RESULT:   -31.662      5.290      8.067
REMARK INTER + INTRA:         -37.475
REMARK INTER:                 -35.242
REMARK INTRA:                  -2.234
REMARK CONF_INDEPENDENT:        3.580
REMARK UNBOUND:                -2.234
REMARK  12 active torsions:
REMARK  status: ('A' for Active; 'I' for Inactive)
REMARK    1  A    between atoms: C_2  and  O_3 
REMARK    2  A    between atoms: O_3  and  C_4 
REMARK    3  A    between atoms: C_6  and  C_7 
REMARK    4  A    between atoms: C_7  and  N_8 
REMARK    5  A    between atoms: N_8  and  C_9 
REMARK    6  A    between atoms: C_9  and  C_10 
REMARK    7  A    between atoms: C_10  and  N_11 
REMARK       I    between atoms: N_11  and  C_12 
REMARK    8  A    between atoms: C_12  and  C_14 
REMARK    9  A    between atoms: C_18  and  N_19 
REMARK   10  A    between atoms: C_22  and  O_23 
REMARK   11  A    between atoms: O_23  and  C_24 
REMARK   12  A    between atoms: C_24  and  C_25 
ROOT
ATOM      1  C   UNL d   1      28.450 -14.873  -3.539  0.00  0.00     0.102 A 
ATOM      2  C   UNL d   1      27.565 -14.835  -2.441  0.00  0.00     0.048 A 
ATOM      3  C   UNL d   1      26.197 -15.170  -2.575  0.00  0.00    -0.030 A 
ATOM      4  C   UNL d   1      25.678 -15.406  -3.850  0.00  0.00     0.012 A 
ATOM      5  C   UNL d   1      26.518 -15.452  -4.935  0.00  0.00     0.040 A 
ATOM      6  C   UNL d   1      27.887 -15.227  -4.800  0.00  0.00     0.102 A 
ENDROOT
BRANCH   3   7
ATOM      7  C   UNL d   1      25.347 -15.397  -1.358  0.00  0.00     0.271 C 
BRANCH   7   8
ATOM      8  N   UNL d   1      24.185 -16.306  -1.633  0.00  0.00    -0.070 N 
ATOM      9  H   UNL d   1      23.804 -16.060  -2.560  0.00  0.00     0.277 HD
ATOM     10  H   UNL d   1      23.450 -16.097  -0.943  0.00  0.00     0.277 HD
BRANCH   8  11
ATOM     11  C   UNL d   1      24.518 -17.746  -1.593  0.00  0.00     0.252 C 
BRANCH  11  12
ATOM     12  C   UNL d   1      24.316 -18.318  -0.190  0.00  0.00     0.150 C 
BRANCH  12  13
ATOM     13  N   UNL d   1      23.049 -19.016  -0.066  0.00  0.00    -0.354 N 
ATOM     14  C   UNL d   1      21.860 -18.310  -0.273  0.00  0.00     0.276 C 
ATOM     15  O   UNL d   1      21.896 -17.120  -0.527  0.00  0.00    -0.266 OA
ATOM     16  H   UNL d   1      22.997 -20.028  -0.045  0.00  0.00     0.162 HD
BRANCH  14  17
ATOM     17  C   UNL d   1      20.623 -19.083  -0.174  0.00  0.00     0.201 A 
ATOM     18  N   UNL d   1      19.883 -19.314  -1.269  0.00  0.00    -0.096 NA
ATOM     19  O   UNL d   1      18.762 -19.994  -0.817  0.00  0.00    -0.104 OA
ATOM     20  N   UNL d   1      18.820 -20.199   0.553  0.00  0.00    -0.085 NA
ATOM     21  C   UNL d   1      19.971 -19.659   0.944  0.00  0.00     0.188 A 
BRANCH  21  22
ATOM     22  N   UNL d   1      20.400 -19.683   2.224  0.00  0.00    -0.380 N 
ATOM     23  H   UNL d   1      19.713 -19.461   2.946  0.00  0.00     0.158 HD
ATOM     24  H   UNL d   1      21.356 -19.519   2.507  0.00  0.00     0.158 HD
ENDBRANCH  21  22
ENDBRANCH  14  17
ENDBRANCH  12  13
ENDBRANCH  11  12
ENDBRANCH   8  11
ENDBRANCH   7   8
ENDBRANCH   3   7
BRANCH   1  25
ATOM     25  O   UNL d   1      29.787 -14.803  -3.149  0.00  0.00    -0.349 OA
BRANCH  25  26
ATOM     26  C   UNL d   1      30.281 -13.667  -2.428  0.00  0.00     0.171 C 
ATOM     27  C   UNL d   1      31.440 -13.893  -1.478  0.00  0.00     0.034 C 
ENDBRANCH  25  26
ENDBRANCH   1  25
BRANCH   6  28
ATOM     28  O   UNL d   1      28.440 -15.471  -6.037  0.00  0.00    -0.344 OA
BRANCH  28  29
ATOM     29  C   UNL d   1      29.802 -15.690  -5.907  0.00  0.00     0.216 C 
BRANCH  29  30
ATOM     30  C   UNL d   1      30.399 -16.982  -6.289  0.00  0.00    -0.012 C 
ATOM     31  C   UNL d   1      30.959 -17.126  -7.575  0.00  0.00     0.013 C 
ATOM     32  C   UNL d   1      31.254 -18.396  -8.025  0.00  0.00     0.024 C 
ATOM     33  C   UNL d   1      31.135 -19.463  -7.137  0.00  0.00     0.035 C 
ATOM     34 CL   UNL d   1      31.497 -21.049  -7.678  0.00  0.00    -0.084 Cl
ATOM     35  C   UNL d   1      30.755 -19.274  -5.806  0.00  0.00     0.048 C 
ATOM     36  C   UNL d   1      30.415 -18.016  -5.369  0.00  0.00     0.044 C 
ATOM     37 CL   UNL d   1      30.042 -17.755  -3.702  0.00  0.00    -0.084 Cl
ENDBRANCH  29  30
ENDBRANCH  28  29
ENDBRANCH   6  28
TORSDOF 12
ENDMDL
MODEL 4
REMARK VINA RESULT:   -31.395      5.774      8.042
REMARK INTER + INTRA:         -37.426
REMARK INTER:                 -34.974
REMARK INTRA:                  -2.452
REMARK CONF_INDEPENDENT:        3.580
REMARK UNBOUND:                -2.452
REMARK  12 active torsions:
REMARK  status: ('A' for Active; 'I' for Inactive)
REMARK    1  A    between atoms: C_2  and  O_3 
REMARK    2  A    between atoms: O_3  and  C_4 
REMARK    3  A    between atoms: C_6  and  C_7 
REMARK    4  A    between atoms: C_7  and  N_8 
REMARK    5  A    between atoms: N_8  and  C_9 
REMARK    6  A    between atoms: C_9  and  C_10 
REMARK    7  A    between atoms: C_10  and  N_11 
REMARK       I    between atoms: N_11  and  C_12 
REMARK    8  A    between atoms: C_12  and  C_14 
REMARK    9  A    between atoms: C_18  and  N_19 
REMARK   10  A    between atoms: C_22  and  O_23 
REMARK   11  A    between atoms: O_23  and  C_24 
REMARK   12  A    between atoms: C_24  and  C_25 
ROOT
ATOM      1  C   UNL d   1      28.360 -15.045  -3.636  0.00  0.00     0.102 A 
ATOM      2  C   UNL d   1      27.598 -15.020  -2.448  0.00  0.00     0.048 A 
ATOM      3  C   UNL d   1      26.193 -15.187  -2.462  0.00  0.00    -0.030 A 
ATOM      4  C   UNL d   1      25.527 -15.233  -3.689  0.00  0.00     0.012 A 
ATOM      5  C   UNL d   1      26.244 -15.263  -4.858  0.00  0.00     0.040 A 
ATOM      6  C   UNL d   1      27.637 -15.205  -4.854  0.00  0.00     0.102 A 
ENDROOT
BRANCH   3   7
ATOM      7  C   UNL d   1      25.446 -15.440  -1.184  0.00  0.00     0.271 C 
BRANCH   7   8
ATOM      8  N   UNL d   1      24.222 -16.283  -1.394  0.00  0.00    -0.070 N 
ATOM      9  H   UNL d   1      23.851 -16.074  -2.335  0.00  0.00     0.277 HD
ATOM     10  H   UNL d   1      23.508 -15.979  -0.718  0.00  0.00     0.277 HD
BRANCH   8  11
ATOM     11  C   UNL d   1      24.456 -17.736  -1.260  0.00  0.00     0.252 C 
BRANCH  11  12
ATOM     12  C   UNL d   1      24.177 -18.209   0.167  0.00  0.00     0.150 C 
BRANCH  12  13
ATOM     13  N   UNL d   1      22.931 -18.948   0.260  0.00  0.00    -0.354 N 
ATOM     14  C   UNL d   1      21.776 -18.410  -0.314  0.00  0.00     0.276 C 
ATOM     15  O   UNL d   1      21.817 -17.323  -0.859  0.00  0.00    -0.266 OA
ATOM     16  H   UNL d   1      22.909 -19.924   0.534  0.00  0.00     0.162 HD
BRANCH  14  17
ATOM     17  C   UNL d   1      20.567 -19.227  -0.221  0.00  0.00     0.201 A 
ATOM     18  N   UNL d   1      19.736 -19.325  -1.270  0.00  0.00    -0.096 NA
ATOM     19  O   UNL d   1      18.672 -20.095  -0.825  0.00  0.00    -0.104 OA
ATOM     20  N   UNL d   1      18.855 -20.489   0.492  0.00  0.00    -0.085 NA
ATOM     21  C   UNL d   1      20.027 -19.974   0.856  0.00  0.00     0.188 A 
BRANCH  21  22
ATOM     22  N   UNL d   1      20.569 -20.164   2.078  0.00  0.00    -0.380 N 
ATOM     23  H   UNL d   1      21.112 -19.393   2.467  0.00  0.00     0.158 HD
ATOM     24  H   UNL d   1      20.812 -21.068   2.458  0.00  0.00     0.158 HD
ENDBRANCH  21  22
ENDBRANCH  14  17
ENDBRANCH  12  13
ENDBRANCH  11  12
ENDBRANCH   8  11
ENDBRANCH   7   8
ENDBRANCH   3   7
BRANCH   1  25
ATOM     25  O   UNL d   1      29.727 -15.163  -3.390  0.00  0.00    -0.349 OA
BRANCH  25  26
ATOM     26  C   UNL d   1      30.373 -16.441  -3.440  0.00  0.00     0.171 C 
ATOM     27  C   UNL d   1      29.822 -17.465  -4.411  0.00  0.00     0.034 C 
ENDBRANCH  25  26
ENDBRANCH   1  25
BRANCH   6  28
ATOM     28  O   UNL d   1      28.033 -15.383  -6.161  0.00  0.00    -0.344 OA
BRANCH  28  29
ATOM     29  C   UNL d   1      29.105 -14.553  -6.443  0.00  0.00     0.216 C 
BRANCH  29  30
ATOM     30  C   UNL d   1      30.451 -15.108  -6.674  0.00  0.00    -0.012 C 
ATOM     31  C   UNL d   1      30.577 -16.358  -7.314  0.00  0.00     0.013 C 
ATOM     32  C   UNL d   1      31.798 -16.997  -7.273  0.00  0.00     0.024 C 
ATOM     33  C   UNL d   1      32.891 -16.315  -6.739  0.00  0.00     0.035 C 
ATOM     34 CL   UNL d   1      34.417 -17.094  -6.678  0.00  0.00    -0.084 Cl
ATOM     35  C   UNL d   1      32.784 -15.002  -6.276  0.00  0.00     0.048 C 
ATOM     36  C   UNL d   1      31.559 -14.380  -6.274  0.00  0.00     0.044 C 
ATOM     37 CL   UNL d   1      31.434 -12.724  -5.799  0.00  0.00    -0.084 Cl
ENDBRANCH  29  30
ENDBRANCH  28  29
ENDBRANCH   6  28
TORSDOF 12
ENDMDL
MODEL 5
REMARK VINA RESULT:   -31.206      5.474      8.269
REMARK INTER + INTRA:         -37.222
REMARK INTER:                 -34.786
REMARK INTRA:                  -2.436
REMARK CONF_INDEPENDENT:        3.580
REMARK UNBOUND:                -2.436
REMARK  12 active torsions:
REMARK  status: ('A' for Active; 'I' for Inactive)
REMARK    1  A    between atoms: C_2  and  O_3 
REMARK    2  A    between atoms: O_3  and  C_4 
REMARK    3  A    between atoms: C_6  and  C_7 
REMARK    4  A    between atoms: C_7  and  N_8 
REMARK    5  A    between atoms: N_8  and  C_9 
REMARK    6  A    between atoms: C_9  and  C_10 
REMARK    7  A    between atoms: C_10  and  N_11 
REMARK       I    between atoms: N_11  and  C_12 
REMARK    8  A    between atoms: C_12  and  C_14 
REMARK    9  A    between atoms: C_18  and  N_19 
REMARK   10  A    between atoms: C_22  and  O_23 
REMARK   11  A    between atoms: O_23  and  C_24 
REMARK   12  A    between atoms: C_24  and  C_25 
ROOT
ATOM      1  C   UNL d   1      29.142 -16.281  -1.798  0.00  0.00     0.102 A 
ATOM      2  C   UNL d   1      28.227 -16.247  -0.725  0.00  0.00     0.048 A 
ATOM      3  C   UNL d   1      26.847 -16.009  -0.931  0.00  0.00    -0.030 A 
ATOM      4  C   UNL d   1      26.402 -15.658  -2.207  0.00  0.00     0.012 A 
ATOM      5  C   UNL d   1      27.270 -15.688  -3.269  0.00  0.00     0.040 A 
ATOM      6  C   UNL d   1      28.613 -16.023  -3.096  0.00  0.00     0.102 A 
ENDROOT
BRANCH   3   7
ATOM      7  C   UNL d   1      25.860 -16.256   0.175  0.00  0.00     0.271 C 
BRANCH   7   8
ATOM      8  N   UNL d   1      25.489 -17.706   0.295  0.00  0.00    -0.070 N 
ATOM      9  H   UNL d   1      24.896 -17.812   1.134  0.00  0.00     0.277 HD
ATOM     10  H   UNL d   1      26.352 -18.240   0.469  0.00  0.00     0.277 HD
BRANCH   8  11
ATOM     11  C   UNL d   1      24.788 -18.252  -0.886  0.00  0.00     0.252 C 
BRANCH  11  12
ATOM     12  C   UNL d   1      23.614 -17.360  -1.290  0.00  0.00     0.150 C 
BRANCH  12  13
ATOM     13  N   UNL d   1      22.353 -18.079  -1.264  0.00  0.00    -0.354 N 
ATOM     14  C   UNL d   1      21.924 -18.659  -0.067  0.00  0.00     0.276 C 
ATOM     15  O   UNL d   1      22.619 -18.581   0.929  0.00  0.00    -0.266 OA
ATOM     16  H   UNL d   1      21.676 -17.996  -2.015  0.00  0.00     0.162 HD
BRANCH  14  17
ATOM     17  C   UNL d   1      20.625 -19.330  -0.102  0.00  0.00     0.201 A 
ATOM     18  N   UNL d   1      19.894 -19.325  -1.226  0.00  0.00    -0.096 NA
ATOM     19  O   UNL d   1      18.711 -19.969  -0.897  0.00  0.00    -0.104 OA
ATOM     20  N   UNL d   1      18.720 -20.388   0.424  0.00  0.00    -0.085 NA
ATOM     21  C   UNL d   1      19.902 -20.015   0.906  0.00  0.00     0.188 A 
BRANCH  21  22
ATOM     22  N   UNL d   1      20.299 -20.273   2.171  0.00  0.00    -0.380 N 
ATOM     23  H   UNL d   1      21.012 -19.660   2.566  0.00  0.00     0.158 HD
ATOM     24  H   UNL d   1      20.259 -21.185   2.604  0.00  0.00     0.158 HD
ENDBRANCH  21  22
ENDBRANCH  14  17
ENDBRANCH  12  13
ENDBRANCH  11  12
ENDBRANCH   8  11
ENDBRANCH   7   8
ENDBRANCH   3   7
BRANCH   1  25
ATOM     25  O   UNL d   1      30.375 -16.816  -1.430  0.00  0.00    -0.349 OA
BRANCH  25  26
ATOM     26  C   UNL d   1      30.469 -18.144  -0.899  0.00  0.00     0.171 C 
ATOM     27  C   UNL d   1      31.356 -19.129  -1.633  0.00  0.00     0.034 C 
ENDBRANCH  25  26
ENDBRANCH   1  25
BRANCH   6  28
ATOM     28  O   UNL d   1      29.160 -16.080  -4.358  0.00  0.00    -0.344 OA
BRANCH  28  29
ATOM     29  C   UNL d   1      30.171 -17.025  -4.389  0.00  0.00     0.216 C 
BRANCH  29  30
ATOM     30  C   UNL d   1      30.432 -17.815  -5.606  0.00  0.00    -0.012 C 
ATOM     31  C   UNL d   1      30.365 -19.222  -5.538  0.00  0.00     0.013 C 
ATOM     32  C   UNL d   1      30.880 -19.956  -6.586  0.00  0.00     0.024 C 
ATOM     33  C   UNL d   1      31.299 -19.280  -7.731  0.00  0.00     0.035 C 
ATOM     34 CL   UNL d   1      31.943 -20.175  -9.044  0.00  0.00    -0.084 Cl
ATOM     35  C   UNL d   1      31.184 -17.894  -7.851  0.00  0.00     0.048 C 
ATOM     36  C   UNL d   1      30.715 -17.157  -6.790  0.00  0.00     0.044 C 
ATOM     37 CL   UNL d   1      30.473 -15.455  -6.963  0.00  0.00    -0.084 Cl
ENDBRANCH  29  30
ENDBRANCH  28  29
ENDBRANCH   6  28
TORSDOF 12
ENDMDL
MODEL 6
REMARK VINA RESULT:   -30.766      5.371      7.141
REMARK INTER + INTRA:         -37.201
REMARK INTER:                 -34.346
REMARK INTRA:                  -2.855
REMARK CONF_INDEPENDENT:        3.580
REMARK UNBOUND:                -2.855
REMARK  12 active torsions:
REMARK  status: ('A' for Active; 'I' for Inactive)
REMARK    1  A    between atoms: C_2  and  O_3 
REMARK    2  A    between atoms: O_3  and  C_4 
REMARK    3  A    between atoms: C_6  and  C_7 
REMARK    4  A    between atoms: C_7  and  N_8 
REMARK    5  A    between atoms: N_8  and  C_9 
REMARK    6  A    between atoms: C_9  and  C_10 
REMARK    7  A    between atoms: C_10  and  N_11 
REMARK       I    between atoms: N_11  and  C_12 
REMARK    8  A    between atoms: C_12  and  C_14 
REMARK    9  A    between atoms: C_18  and  N_19 
REMARK   10  A    between atoms: C_22  and  O_23 
REMARK   11  A    between atoms: O_23  and  C_24 
REMARK   12  A    between atoms: C_24  and  C_25 
ROOT
ATOM      1  C   UNL d   1      27.383 -15.675  -2.636  0.00  0.00     0.102 A 
ATOM      2  C   UNL d   1      26.766 -16.702  -1.890  0.00  0.00     0.048 A 
ATOM      3  C   UNL d   1      27.347 -17.211  -0.704  0.00  0.00    -0.030 A 
ATOM      4  C   UNL d   1      28.628 -16.790  -0.341  0.00  0.00     0.012 A 
ATOM      5  C   UNL d   1      29.248 -15.791  -1.047  0.00  0.00     0.040 A 
ATOM      6  C   UNL d   1      28.641 -15.206  -2.158  0.00  0.00     0.102 A 
ENDROOT
BRANCH   3   7
ATOM      7  C   UNL d   1      26.548 -18.089   0.216  0.00  0.00     0.271 C 
BRANCH   7   8
ATOM      8  N   UNL d   1      25.092 -18.125  -0.149  0.00  0.00    -0.070 N 
ATOM      9  H   UNL d   1      24.630 -18.818   0.460  0.00  0.00     0.277 HD
ATOM     10  H   UNL d   1      25.017 -18.478  -1.113  0.00  0.00     0.277 HD
BRANCH   8  11
ATOM     11  C   UNL d   1      24.406 -16.821  -0.035  0.00  0.00     0.252 C 
BRANCH  11  12
ATOM     12  C   UNL d   1      23.415 -16.618  -1.181  0.00  0.00     0.150 C 
BRANCH  12  13
ATOM     13  N   UNL d   1      22.115 -17.191  -0.882  0.00  0.00    -0.354 N 
ATOM     14  C   UNL d   1      22.016 -18.564  -0.636  0.00  0.00     0.276 C 
ATOM     15  O   UNL d   1      23.007 -19.266  -0.703  0.00  0.00    -0.266 OA
ATOM     16  H   UNL d   1      21.320 -16.611  -0.635  0.00  0.00     0.162 HD
BRANCH  14  17
ATOM     17  C   UNL d   1      20.684 -19.066  -0.299  0.00  0.00     0.201 A 
ATOM     18  N   UNL d   1      19.796 -19.325  -1.270  0.00  0.00    -0.096 NA
ATOM     19  O   UNL d   1      18.634 -19.703  -0.613  0.00  0.00    -0.104 OA
ATOM     20  N   UNL d   1      18.812 -19.695   0.762  0.00  0.00    -0.085 NA
ATOM     21  C   UNL d   1      20.075 -19.325   0.954  0.00  0.00     0.188 A 
BRANCH  21  22
ATOM     22  N   UNL d   1      20.637 -19.225   2.178  0.00  0.00    -0.380 N 
ATOM     23  H   UNL d   1      20.442 -18.376   2.708  0.00  0.00     0.158 HD
ATOM     24  H   UNL d   1      21.492 -19.690   2.450  0.00  0.00     0.158 HD
ENDBRANCH  21  22
ENDBRANCH  14  17
ENDBRANCH  12  13
ENDBRANCH  11  12
ENDBRANCH   8  11
ENDBRANCH   7   8
ENDBRANCH   3   7
BRANCH   1  25
ATOM     25  O   UNL d   1      26.526 -15.117  -3.583  0.00  0.00    -0.349 OA
BRANCH  25  26
ATOM     26  C   UNL d   1      25.678 -14.012  -3.243  0.00  0.00     0.171 C 
ATOM     27  C   UNL d   1      24.538 -13.690  -4.187  0.00  0.00     0.034 C 
ENDBRANCH  25  26
ENDBRANCH   1  25
BRANCH   6  28
ATOM     28  O   UNL d   1      29.462 -14.171  -2.545  0.00  0.00    -0.344 OA
BRANCH  28  29
ATOM     29  C   UNL d   1      29.421 -14.029  -3.922  0.00  0.00     0.216 C 
BRANCH  29  30
ATOM     30  C   UNL d   1      29.994 -15.059  -4.807  0.00  0.00    -0.012 C 
ATOM     31  C   UNL d   1      30.954 -15.951  -4.288  0.00  0.00     0.013 C 
ATOM     32  C   UNL d   1      31.687 -16.715  -5.173  0.00  0.00     0.024 C 
ATOM     33  C   UNL d   1      31.340 -16.688  -6.523  0.00  0.00     0.035 C 
ATOM     34 CL   UNL d   1      32.240 -17.630  -7.638  0.00  0.00    -0.084 Cl
ATOM     35  C   UNL d   1      30.262 -15.935  -6.991  0.00  0.00     0.048 C 
ATOM     36  C   UNL d   1      29.560 -15.138  -6.119  0.00  0.00     0.044 C 
ATOM     37 CL   UNL d   1      28.163 -14.282  -6.667  0.00  0.00    -0.084 Cl
ENDBRANCH  29  30
ENDBRANCH  28  29
ENDBRANCH   6  28
TORSDOF 12
ENDMDL
MODEL 7
REMARK VINA RESULT:   -30.742      2.139      2.877
REMARK INTER + INTRA:         -37.196
REMARK INTER:                 -34.322
REMARK INTRA:                  -2.874
REMARK CONF_INDEPENDENT:        3.580
REMARK UNBOUND:                -2.874
REMARK  12 active torsions:
REMARK  status: ('A' for Active; 'I' for Inactive)
REMARK    1  A    between atoms: C_2  and  O_3 
REMARK    2  A    between atoms: O_3  and  C_4 
REMARK    3  A    between atoms: C_6  and  C_7 
REMARK    4  A    between atoms: C_7  and  N_8 
REMARK    5  A    between atoms: N_8  and  C_9 
REMARK    6  A    between atoms: C_9  and  C_10 
REMARK    7  A    between atoms: C_10  and  N_11 
REMARK       I    between atoms: N_11  and  C_12 
REMARK    8  A    between atoms: C_12  and  C_14 
REMARK    9  A    between atoms: C_18  and  N_19 
REMARK   10  A    between atoms: C_22  and  O_23 
REMARK   11  A    between atoms: O_23  and  C_24 
REMARK   12  A    between atoms: C_24  and  C_25 
ROOT
ATOM      1  C   UNL d   1      28.209 -15.293  -1.500  0.00  0.00     0.102 A 
ATOM      2  C   UNL d   1      27.727 -16.619  -1.455  0.00  0.00     0.048 A 
ATOM      3  C   UNL d   1      27.132 -17.155  -0.288  0.00  0.00    -0.030 A 
ATOM      4  C   UNL d   1      27.151 -16.405   0.890  0.00  0.00     0.012 A 
ATOM      5  C   UNL d   1      27.610 -15.112   0.872  0.00  0.00     0.040 A 
ATOM      6  C   UNL d   1      28.103 -14.535  -0.298  0.00  0.00     0.102 A 
ENDROOT
BRANCH   3   7
ATOM      7  C   UNL d   1      26.379 -18.453  -0.347  0.00  0.00     0.271 C 
BRANCH   7   8
ATOM      8  N   UNL d   1      24.891 -18.253  -0.304  0.00  0.00    -0.070 N 
ATOM      9  H   UNL d   1      24.649 -17.885   0.629  0.00  0.00     0.277 HD
ATOM     10  H   UNL d   1      24.445 -19.177  -0.385  0.00  0.00     0.277 HD
BRANCH   8  11
ATOM     11  C   UNL d   1      24.371 -17.348  -1.351  0.00  0.00     0.252 C 
BRANCH  11  12
ATOM     12  C   UNL d   1      23.132 -16.597  -0.862  0.00  0.00     0.150 C 
BRANCH  12  13
ATOM     13  N   UNL d   1      21.940 -17.424  -0.916  0.00  0.00    -0.354 N 
ATOM     14  C   UNL d   1      21.827 -18.513  -0.047  0.00  0.00     0.276 C 
ATOM     15  O   UNL d   1      22.733 -18.774   0.722  0.00  0.00    -0.266 OA
ATOM     16  H   UNL d   1      21.103 -17.123  -1.403  0.00  0.00     0.162 HD
BRANCH  14  17
ATOM     17  C   UNL d   1      20.582 -19.277  -0.125  0.00  0.00     0.201 A 
ATOM     18  N   UNL d   1      19.884 -19.313  -1.270  0.00  0.00    -0.096 NA
ATOM     19  O   UNL d   1      18.743 -20.045  -0.981  0.00  0.00    -0.104 OA
ATOM     20  N   UNL d   1      18.745 -20.477   0.337  0.00  0.00    -0.085 NA
ATOM     21  C   UNL d   1      19.883 -20.024   0.856  0.00  0.00     0.188 A 
BRANCH  21  22
ATOM     22  N   UNL d   1      20.261 -20.266   2.129  0.00  0.00    -0.380 N 
ATOM     23  H   UNL d   1      21.262 -20.239   2.327  0.00  0.00     0.158 HD
ATOM     24  H   UNL d   1      19.731 -20.823   2.784  0.00  0.00     0.158 HD
ENDBRANCH  21  22
ENDBRANCH  14  17
ENDBRANCH  12  13
ENDBRANCH  11  12
ENDBRANCH   8  11
ENDBRANCH   7   8
ENDBRANCH   3   7
BRANCH   1  25
ATOM     25  O   UNL d   1      28.477 -14.869  -2.801  0.00  0.00    -0.349 OA
BRANCH  25  26
ATOM     26  C   UNL d   1      27.447 -14.286  -3.609  0.00  0.00     0.171 C 
ATOM     27  C   UNL d   1      26.158 -13.891  -2.919  0.00  0.00     0.034 C 
ENDBRANCH  25  26
ENDBRANCH   1  25
BRANCH   6  28
ATOM     28  O   UNL d   1      28.355 -13.215   0.001  0.00  0.00    -0.344 OA
BRANCH  28  29
ATOM     29  C   UNL d   1      27.509 -12.793   1.013  0.00  0.00     0.216 C 
BRANCH  29  30
ATOM     30  C   UNL d   1      28.014 -12.580   2.381  0.00  0.00    -0.012 C 
ATOM     31  C   UNL d   1      29.057 -13.398   2.863  0.00  0.00     0.013 C 
ATOM     32  C   UNL d   1      29.328 -13.389   4.215  0.00  0.00     0.024 C 
ATOM     33  C   UNL d   1      28.670 -12.462   5.021  0.00  0.00     0.035 C 
ATOM     34 CL   UNL d   1      28.994 -12.436   6.705  0.00  0.00    -0.084 Cl
ATOM     35  C   UNL d   1      27.772 -11.532   4.492  0.00  0.00     0.048 C 
ATOM     36  C   UNL d   1      27.466 -11.570   3.153  0.00  0.00     0.044 C 
ATOM     37 CL   UNL d   1      26.437 -10.362   2.470  0.00  0.00    -0.084 Cl
ENDBRANCH  29  30
ENDBRANCH  28  29
ENDBRANCH   6  28
TORSDOF 12
ENDMDL
MODEL 8
REMARK VINA RESULT:   -30.650      4.458      6.174
REMARK INTER + INTRA:         -37.648
REMARK INTER:                 -34.230
REMARK INTRA:                  -3.418
REMARK CONF_INDEPENDENT:        3.580
REMARK UNBOUND:                -3.418
REMARK  12 active torsions:
REMARK  status: ('A' for Active; 'I' for Inactive)
REMARK    1  A    between atoms: C_2  and  O_3 
REMARK    2  A    between atoms: O_3  and  C_4 
REMARK    3  A    between atoms: C_6  and  C_7 
REMARK    4  A    between atoms: C_7  and  N_8 
REMARK    5  A    between atoms: N_8  and  C_9 
REMARK    6  A    between atoms: C_9  and  C_10 
REMARK    7  A    between atoms: C_10  and  N_11 
REMARK       I    between atoms: N_11  and  C_12 
REMARK    8  A    between atoms: C_12  and  C_14 
REMARK    9  A    between atoms: C_18  and  N_19 
REMARK   10  A    between atoms: C_22  and  O_23 
REMARK   11  A    between atoms: O_23  and  C_24 
REMARK   12  A    between atoms: C_24  and  C_25 
ROOT
ATOM      1  C   UNL d   1      29.153 -15.997  -0.653  0.00  0.00     0.102 A 
ATOM      2  C   UNL d   1      28.494 -17.143  -0.158  0.00  0.00     0.048 A 
ATOM      3  C   UNL d   1      27.130 -17.113   0.218  0.00  0.00    -0.030 A 
ATOM      4  C   UNL d   1      26.457 -15.890   0.234  0.00  0.00     0.012 A 
ATOM      5  C   UNL d   1      27.073 -14.762  -0.246  0.00  0.00     0.040 A 
ATOM      6  C   UNL d   1      28.385 -14.799  -0.718  0.00  0.00     0.102 A 
ENDROOT
BRANCH   3   7
ATOM      7  C   UNL d   1      26.384 -18.392   0.468  0.00  0.00     0.271 C 
BRANCH   7   8
ATOM      8  N   UNL d   1      24.906 -18.244   0.250  0.00  0.00    -0.070 N 
ATOM      9  H   UNL d   1      24.544 -17.594   0.965  0.00  0.00     0.277 HD
ATOM     10  H   UNL d   1      24.467 -19.158   0.426  0.00  0.00     0.277 HD
BRANCH   8  11
ATOM     11  C   UNL d   1      24.539 -17.761  -1.099  0.00  0.00     0.252 C 
BRANCH  11  12
ATOM     12  C   UNL d   1      23.279 -16.896  -1.048  0.00  0.00     0.150 C 
BRANCH  12  13
ATOM     13  N   UNL d   1      22.069 -17.697  -1.069  0.00  0.00    -0.354 N 
ATOM     14  C   UNL d   1      21.777 -18.517   0.025  0.00  0.00     0.276 C 
ATOM     15  O   UNL d   1      22.547 -18.573   0.965  0.00  0.00    -0.266 OA
ATOM     16  H   UNL d   1      21.328 -17.528  -1.741  0.00  0.00     0.162 HD
BRANCH  14  17
ATOM     17  C   UNL d   1      20.521 -19.264  -0.044  0.00  0.00     0.201 A 
ATOM     18  N   UNL d   1      19.823 -19.306  -1.188  0.00  0.00    -0.096 NA
ATOM     19  O   UNL d   1      18.671 -20.018  -0.890  0.00  0.00    -0.104 OA
ATOM     20  N   UNL d   1      18.667 -20.431   0.433  0.00  0.00    -0.085 NA
ATOM     21  C   UNL d   1      19.812 -19.987   0.947  0.00  0.00     0.188 A 
BRANCH  21  22
ATOM     22  N   UNL d   1      20.186 -20.218   2.223  0.00  0.00    -0.380 N 
ATOM     23  H   UNL d   1      21.188 -20.223   2.417  0.00  0.00     0.158 HD
ATOM     24  H   UNL d   1      19.639 -20.743   2.891  0.00  0.00     0.158 HD
ENDBRANCH  21  22
ENDBRANCH  14  17
ENDBRANCH  12  13
ENDBRANCH  11  12
ENDBRANCH   8  11
ENDBRANCH   7   8
ENDBRANCH   3   7
BRANCH   1  25
ATOM     25  O   UNL d   1      30.382 -16.300  -1.237  0.00  0.00    -0.349 OA
BRANCH  25  26
ATOM     26  C   UNL d   1      30.555 -16.230  -2.658  0.00  0.00     0.171 C 
ATOM     27  C   UNL d   1      29.327 -16.433  -3.522  0.00  0.00     0.034 C 
ENDBRANCH  25  26
ENDBRANCH   1  25
BRANCH   6  28
ATOM     28  O   UNL d   1      28.643 -13.548  -1.234  0.00  0.00    -0.344 OA
BRANCH  28  29
ATOM     29  C   UNL d   1      27.451 -12.895  -1.498  0.00  0.00     0.216 C 
BRANCH  29  30
ATOM     30  C   UNL d   1      27.167 -12.350  -2.838  0.00  0.00    -0.012 C 
ATOM     31  C   UNL d   1      27.705 -11.097  -3.197  0.00  0.00     0.013 C 
ATOM     32  C   UNL d   1      27.214 -10.469  -4.323  0.00  0.00     0.024 C 
ATOM     33  C   UNL d   1      26.324 -11.165  -5.140  0.00  0.00     0.035 C 
ATOM     34 CL   UNL d   1      25.701 -10.400  -6.542  0.00  0.00    -0.084 Cl
ATOM     35  C   UNL d   1      25.945 -12.480  -4.863  0.00  0.00     0.048 C 
ATOM     36  C   UNL d   1      26.397 -13.091  -3.718  0.00  0.00     0.044 C 
ATOM     37 CL   UNL d   1      26.017 -14.749  -3.418  0.00  0.00    -0.084 Cl
ENDBRANCH  29  30
ENDBRANCH  28  29
ENDBRANCH   6  28
TORSDOF 12
ENDMDL
MODEL 9
REMARK VINA RESULT:   -30.520      4.097      6.197
REMARK INTER + INTRA:         -37.444
REMARK INTER:                 -34.100
REMARK INTRA:                  -3.344
REMARK CONF_INDEPENDENT:        3.580
REMARK UNBOUND:                -3.344
REMARK  12 active torsions:
REMARK  status: ('A' for Active; 'I' for Inactive)
REMARK    1  A    between atoms: C_2  and  O_3 
REMARK    2  A    between atoms: O_3  and  C_4 
REMARK    3  A    between atoms: C_6  and  C_7 
REMARK    4  A    between atoms: C_7  and  N_8 
REMARK    5  A    between atoms: N_8  and  C_9 
REMARK    6  A    between atoms: C_9  and  C_10 
REMARK    7  A    between atoms: C_10  and  N_11 
REMARK       I    between atoms: N_11  and  C_12 
REMARK    8  A    between atoms: C_12  and  C_14 
REMARK    9  A    between atoms: C_18  and  N_19 
REMARK   10  A    between atoms: C_22  and  O_23 
REMARK   11  A    between atoms: O_23  and  C_24 
REMARK   12  A    between atoms: C_24  and  C_25 
ROOT
ATOM      1  C   UNL d   1      27.893 -15.530  -2.273  0.00  0.00     0.102 A 
ATOM      2  C   UNL d   1      27.481 -16.741  -1.675  0.00  0.00     0.048 A 
ATOM      3  C   UNL d   1      27.000 -16.788  -0.346  0.00  0.00    -0.030 A 
ATOM      4  C   UNL d   1      27.066 -15.637   0.442  0.00  0.00     0.012 A 
ATOM      5  C   UNL d   1      27.458 -14.446  -0.115  0.00  0.00     0.040 A 
ATOM      6  C   UNL d   1      27.837 -14.364  -1.455  0.00  0.00     0.102 A 
ENDROOT
BRANCH   3   7
ATOM      7  C   UNL d   1      26.309 -18.019   0.168  0.00  0.00     0.271 C 
BRANCH   7   8
ATOM      8  N   UNL d   1      24.814 -17.922   0.063  0.00  0.00    -0.070 N 
ATOM      9  H   UNL d   1      24.463 -17.489   0.931  0.00  0.00     0.277 HD
ATOM     10  H   UNL d   1      24.436 -18.879   0.031  0.00  0.00     0.277 HD
BRANCH   8  11
ATOM     11  C   UNL d   1      24.338 -17.154  -1.108  0.00  0.00     0.252 C 
BRANCH  11  12
ATOM     12  C   UNL d   1      23.014 -16.454  -0.804  0.00  0.00     0.150 C 
BRANCH  12  13
ATOM     13  N   UNL d   1      21.885 -17.362  -0.904  0.00  0.00    -0.354 N 
ATOM     14  C   UNL d   1      21.754 -18.390   0.033  0.00  0.00     0.276 C 
ATOM     15  O   UNL d   1      22.595 -18.533   0.901  0.00  0.00    -0.266 OA
ATOM     16  H   UNL d   1      21.083 -17.154  -1.489  0.00  0.00     0.162 HD
BRANCH  14  17
ATOM     17  C   UNL d   1      20.571 -19.241  -0.101  0.00  0.00     0.201 A 
ATOM     18  N   UNL d   1      19.903 -19.288  -1.262  0.00  0.00    -0.096 NA
ATOM     19  O   UNL d   1      18.813 -20.112  -1.025  0.00  0.00    -0.104 OA
ATOM     20  N   UNL d   1      18.820 -20.589   0.276  0.00  0.00    -0.085 NA
ATOM     21  C   UNL d   1      19.909 -20.071   0.837  0.00  0.00     0.188 A 
BRANCH  21  22
ATOM     22  N   UNL d   1      20.277 -20.330   2.111  0.00  0.00    -0.380 N 
ATOM     23  H   UNL d   1      21.205 -20.015   2.396  0.00  0.00     0.158 HD
ATOM     24  H   UNL d   1      19.919 -21.097   2.661  0.00  0.00     0.158 HD
ENDBRANCH  21  22
ENDBRANCH  14  17
ENDBRANCH  12  13
ENDBRANCH  11  12
ENDBRANCH   8  11
ENDBRANCH   7   8
ENDBRANCH   3   7
BRANCH   1  25
ATOM     25  O   UNL d   1      28.046 -15.643  -3.654  0.00  0.00    -0.349 OA
BRANCH  25  26
ATOM     26  C   UNL d   1      27.054 -15.120  -4.546  0.00  0.00     0.171 C 
ATOM     27  C   UNL d   1      27.517 -14.154  -5.617  0.00  0.00     0.034 C 
ENDBRANCH  25  26
ENDBRANCH   1  25
BRANCH   6  28
ATOM     28  O   UNL d   1      28.043 -13.028  -1.715  0.00  0.00    -0.344 OA
BRANCH  28  29
ATOM     29  C   UNL d   1      26.842 -12.343  -1.637  0.00  0.00     0.216 C 
BRANCH  29  30
ATOM     30  C   UNL d   1      26.510 -11.284  -2.607  0.00  0.00    -0.012 C 
ATOM     31  C   UNL d   1      25.864 -11.634  -3.810  0.00  0.00     0.013 C 
ATOM     32  C   UNL d   1      25.813 -10.700  -4.824  0.00  0.00     0.024 C 
ATOM     33  C   UNL d   1      26.261  -9.406  -4.563  0.00  0.00     0.035 C 
ATOM     34 CL   UNL d   1      26.207  -8.232  -5.811  0.00  0.00    -0.084 Cl
ATOM     35  C   UNL d   1      26.729  -9.030  -3.302  0.00  0.00     0.048 C 
ATOM     36  C   UNL d   1      26.824  -9.970  -2.304  0.00  0.00     0.044 C 
ATOM     37 CL   UNL d   1      27.304  -9.494  -0.714  0.00  0.00    -0.084 Cl
ENDBRANCH  29  30
ENDBRANCH  28  29
ENDBRANCH   6  28
TORSDOF 12
ENDMDL
