MODEL 1
REMARK VINA RESULT:    -9.602      0.000      0.000
REMARK INTER + INTRA:         -12.573
REMARK INTER:                 -11.392
REMARK INTRA:                  -1.181
REMARK CONF_INDEPENDENT:        1.790
REMARK UNBOUND:                -1.181
REMARK  6 active torsions:
REMARK  status: ('A' for Active; 'I' for Inactive)
REMARK       I    between atoms: C_2  and  N_3 
REMARK    1  A    between atoms: C_2  and  C_30 
REMARK    2  A    between atoms: N_3  and  N_4 
REMARK    3  A    between atoms: N_12  and  N_13 
REMARK       I    between atoms: N_13  and  C_14 
REMARK    4  A    between atoms: C_14  and  C_16 
REMARK    5  A    between atoms: C_19  and  O_20 
REMARK    6  A    between atoms: C_33  and  O_34 
ROOT
ATOM      1  N   UNL d   1      24.332 -17.958  -0.087  0.00  0.00    -0.179 N 
ATOM      2  C   UNL d   1      25.665 -18.026   0.380  0.00  0.00     0.280 A 
ATOM      3  O   UNL d   1      26.085 -18.575   1.382  0.00  0.00    -0.265 OA
ATOM      4  C   UNL d   1      26.547 -17.208  -0.606  0.00  0.00     0.051 A 
ATOM      5  C   UNL d   1      27.945 -16.842  -0.844  0.00  0.00     0.036 A 
ATOM      6  C   UNL d   1      28.276 -16.020  -1.994  0.00  0.00     0.051 A 
ATOM      7  C   UNL d   1      29.480 -15.353  -2.751  0.00  0.00     0.280 A 
ATOM      8  O   UNL d   1      30.645 -15.432  -2.403  0.00  0.00    -0.265 OA
ATOM      9  N   UNL d   1      28.940 -14.670  -3.880  0.00  0.00    -0.179 N 
ATOM     10  C   UNL d   1      27.602 -14.837  -3.902  0.00  0.00     0.280 A 
ATOM     11  O   UNL d   1      26.690 -14.482  -4.633  0.00  0.00    -0.265 OA
ATOM     12  C   UNL d   1      27.215 -15.636  -2.780  0.00  0.00     0.051 A 
ATOM     13  C   UNL d   1      25.892 -15.957  -2.570  0.00  0.00     0.036 A 
ATOM     14  C   UNL d   1      25.596 -16.731  -1.489  0.00  0.00     0.051 A 
ATOM     15  C   UNL d   1      24.241 -17.123  -1.154  0.00  0.00     0.280 A 
ATOM     16  O   UNL d   1      23.280 -16.669  -1.746  0.00  0.00    -0.265 OA
ENDROOT
BRANCH   1  17
ATOM     17  N   UNL d   1      23.103 -18.568   0.472  0.00  0.00    -0.253 N 
ATOM     18  C   UNL d   1      22.106 -19.063  -0.407  0.00  0.00     0.270 C 
ATOM     19  O   UNL d   1      22.287 -19.185  -1.619  0.00  0.00    -0.266 OA
ATOM     20  H   UNL d   1      22.894 -18.376   1.445  0.00  0.00     0.191 HD
BRANCH  18  21
ATOM     21  C   UNL d   1      20.753 -19.533   0.119  0.00  0.00     0.033 A 
ATOM     22  C   UNL d   1      20.593 -19.697   1.518  0.00  0.00     0.020 A 
ATOM     23  C   UNL d   1      19.449 -20.306   2.081  0.00  0.00     0.037 A 
ATOM     24  C   UNL d   1      18.405 -20.683   1.252  0.00  0.00     0.065 A 
ATOM     25  C   UNL d   1      18.497 -20.450  -0.118  0.00  0.00     0.037 A 
ATOM     26  C   UNL d   1      19.687 -19.940  -0.692  0.00  0.00     0.020 A 
BRANCH  24  27
ATOM     27  O   UNL d   1      17.280 -21.291   1.730  0.00  0.00    -0.361 OA
ATOM     28  H   UNL d   1      17.141 -22.142   1.278  0.00  0.00     0.217 HD
ENDBRANCH  24  27
ENDBRANCH  18  21
ENDBRANCH   1  17
BRANCH   9  29
ATOM     29  N   UNL d   1      29.650 -13.901  -4.964  0.00  0.00    -0.253 N 
ATOM     30  C   UNL d   1      29.416 -14.136  -6.358  0.00  0.00     0.270 C 
ATOM     31  O   UNL d   1      28.670 -14.964  -6.864  0.00  0.00    -0.266 OA
ATOM     32  H   UNL d   1      30.222 -13.119  -4.661  0.00  0.00     0.191 HD
BRANCH  30  33
ATOM     33  C   UNL d   1      30.102 -13.322  -7.411  0.00  0.00     0.033 C 
ATOM     34  C   UNL d   1      31.370 -13.646  -7.878  0.00  0.00     0.020 C 
ATOM     35  C   UNL d   1      32.007 -12.816  -8.816  0.00  0.00     0.037 C 
ATOM     36  C   UNL d   1      31.320 -11.751  -9.396  0.00  0.00     0.065 C 
ATOM     37  C   UNL d   1      29.985 -11.535  -9.093  0.00  0.00     0.037 C 
ATOM     38  C   UNL d   1      29.388 -12.289  -8.073  0.00  0.00     0.020 C 
BRANCH  36  39
ATOM     39  O   UNL d   1      31.924 -10.896 -10.270  0.00  0.00    -0.361 OA
ATOM     40  H   UNL d   1      32.888 -10.983 -10.191  0.00  0.00     0.217 HD
ENDBRANCH  36  39
ENDBRANCH  30  33
ENDBRANCH   9  29
TORSDOF 6
ENDMDL
MODEL 2
REMARK VINA RESULT:    -9.557      0.604     12.057
REMARK INTER + INTRA:         -12.575
REMARK INTER:                 -11.347
REMARK INTRA:                  -1.228
REMARK CONF_INDEPENDENT:        1.790
REMARK UNBOUND:                -1.228
REMARK  6 active torsions:
REMARK  status: ('A' for Active; 'I' for Inactive)
REMARK       I    between atoms: C_2  and  N_3 
REMARK    1  A    between atoms: C_2  and  C_30 
REMARK    2  A    between atoms: N_3  and  N_4 
REMARK    3  A    between atoms: N_12  and  N_13 
REMARK       I    between atoms: N_13  and  C_14 
REMARK    4  A    between atoms: C_14  and  C_16 
REMARK    5  A    between atoms: C_19  and  O_20 
REMARK    6  A    between atoms: C_33  and  O_34 
ROOT
ATOM      1  N   UNL d   1      29.174 -14.533  -3.723  0.00  0.00    -0.179 N 
ATOM      2  C   UNL d   1      29.665 -15.245  -2.605  0.00  0.00     0.280 A 
ATOM      3  O   UNL d   1      30.817 -15.352  -2.225  0.00  0.00    -0.265 OA
ATOM      4  C   UNL d   1      28.452 -15.946  -1.929  0.00  0.00     0.051 A 
ATOM      5  C   UNL d   1      28.123 -16.785  -0.774  0.00  0.00     0.036 A 
ATOM      6  C   UNL d   1      26.744 -17.184  -0.558  0.00  0.00     0.051 A 
ATOM      7  C   UNL d   1      25.812 -17.989   0.416  0.00  0.00     0.280 A 
ATOM      8  O   UNL d   1      26.194 -18.574   1.414  0.00  0.00    -0.265 OA
ATOM      9  N   UNL d   1      24.485 -17.892  -0.096  0.00  0.00    -0.179 N 
ATOM     10  C   UNL d   1      24.496 -17.148  -1.221  0.00  0.00     0.280 A 
ATOM     11  O   UNL d   1      23.657 -16.762  -2.020  0.00  0.00    -0.265 OA
ATOM     12  C   UNL d   1      25.838 -16.734  -1.490  0.00  0.00     0.051 A 
ATOM     13  C   UNL d   1      26.125 -15.957  -2.590  0.00  0.00     0.036 A 
ATOM     14  C   UNL d   1      27.423 -15.587  -2.779  0.00  0.00     0.051 A 
ATOM     15  C   UNL d   1      27.852 -14.783  -3.907  0.00  0.00     0.280 A 
ATOM     16  O   UNL d   1      27.096 -14.507  -4.818  0.00  0.00    -0.265 OA
ENDROOT
BRANCH   1  17
ATOM     17  N   UNL d   1      29.902 -13.689  -4.699  0.00  0.00    -0.253 N 
ATOM     18  C   UNL d   1      30.111 -14.168  -6.018  0.00  0.00     0.270 C 
ATOM     19  O   UNL d   1      29.554 -15.175  -6.457  0.00  0.00    -0.266 OA
ATOM     20  H   UNL d   1      30.453 -12.924  -4.328  0.00  0.00     0.191 HD
BRANCH  18  21
ATOM     21  C   UNL d   1      31.005 -13.415  -6.999  0.00  0.00     0.033 A 
ATOM     22  C   UNL d   1      30.407 -12.824  -8.140  0.00  0.00     0.020 A 
ATOM     23  C   UNL d   1      31.172 -12.276  -9.194  0.00  0.00     0.037 A 
ATOM     24  C   UNL d   1      32.552 -12.234  -9.080  0.00  0.00     0.065 A 
ATOM     25  C   UNL d   1      33.162 -12.725  -7.927  0.00  0.00     0.037 A 
ATOM     26  C   UNL d   1      32.402 -13.371  -6.921  0.00  0.00     0.020 A 
BRANCH  24  27
ATOM     27  O   UNL d   1      33.349 -11.734 -10.068  0.00  0.00    -0.361 OA
ATOM     28  H   UNL d   1      33.968 -11.079  -9.700  0.00  0.00     0.217 HD
ENDBRANCH  24  27
ENDBRANCH  18  21
ENDBRANCH   1  17
BRANCH   9  29
ATOM     29  N   UNL d   1      23.198 -18.441   0.466  0.00  0.00    -0.253 N 
ATOM     30  C   UNL d   1      22.137 -18.926  -0.365  0.00  0.00     0.270 C 
ATOM     31  O   UNL d   1      22.093 -18.949  -1.588  0.00  0.00    -0.266 OA
ATOM     32  H   UNL d   1      23.163 -18.562   1.474  0.00  0.00     0.191 HD
BRANCH  30  33
ATOM     33  C   UNL d   1      20.892 -19.510   0.224  0.00  0.00     0.033 C 
ATOM     34  C   UNL d   1      20.639 -19.472   1.591  0.00  0.00     0.020 C 
ATOM     35  C   UNL d   1      19.492 -20.094   2.112  0.00  0.00     0.037 C 
ATOM     36  C   UNL d   1      18.525 -20.619   1.256  0.00  0.00     0.065 C 
ATOM     37  C   UNL d   1      18.661 -20.485  -0.117  0.00  0.00     0.037 C 
ATOM     38  C   UNL d   1      19.859 -19.971  -0.634  0.00  0.00     0.020 C 
BRANCH  36  39
ATOM     39  O   UNL d   1      17.426 -21.274   1.727  0.00  0.00    -0.361 OA
ATOM     40  H   UNL d   1      17.220 -22.021   1.142  0.00  0.00     0.217 HD
ENDBRANCH  36  39
ENDBRANCH  30  33
ENDBRANCH   9  29
TORSDOF 6
ENDMDL
MODEL 3
REMARK VINA RESULT:    -9.520      2.137     12.067
REMARK INTER + INTRA:         -12.471
REMARK INTER:                 -11.309
REMARK INTRA:                  -1.161
REMARK CONF_INDEPENDENT:        1.790
REMARK UNBOUND:                -1.161
REMARK  6 active torsions:
REMARK  status: ('A' for Active; 'I' for Inactive)
REMARK       I    between atoms: C_2  and  N_3 
REMARK    1  A    between atoms: C_2  and  C_30 
REMARK    2  A    between atoms: N_3  and  N_4 
REMARK    3  A    between atoms: N_12  and  N_13 
REMARK       I    between atoms: N_13  and  C_14 
REMARK    4  A    between atoms: C_14  and  C_16 
REMARK    5  A    between atoms: C_19  and  O_20 
REMARK    6  A    between atoms: C_33  and  O_34 
ROOT
ATOM      1  N   UNL d   1      27.628 -12.893  -3.257  0.00  0.00    -0.179 N 
ATOM      2  C   UNL d   1      28.348 -13.998  -2.749  0.00  0.00     0.280 A 
ATOM      3  O   UNL d   1      29.549 -14.197  -2.786  0.00  0.00    -0.265 OA
ATOM      4  C   UNL d   1      27.313 -14.992  -2.148  0.00  0.00     0.051 A 
ATOM      5  C   UNL d   1      27.247 -16.272  -1.439  0.00  0.00     0.036 A 
ATOM      6  C   UNL d   1      25.951 -16.802  -1.054  0.00  0.00     0.051 A 
ATOM      7  C   UNL d   1      25.259 -18.006  -0.321  0.00  0.00     0.280 A 
ATOM      8  O   UNL d   1      25.852 -18.950   0.171  0.00  0.00    -0.265 OA
ATOM      9  N   UNL d   1      23.854 -17.766  -0.354  0.00  0.00    -0.179 N 
ATOM     10  C   UNL d   1      23.617 -16.602  -0.991  0.00  0.00     0.280 A 
ATOM     11  O   UNL d   1      22.625 -15.950  -1.276  0.00  0.00    -0.265 OA
ATOM     12  C   UNL d   1      24.864 -16.037  -1.406  0.00  0.00     0.051 A 
ATOM     13  C   UNL d   1      24.900 -14.838  -2.082  0.00  0.00     0.036 A 
ATOM     14  C   UNL d   1      26.122 -14.352  -2.436  0.00  0.00     0.051 A 
ATOM     15  C   UNL d   1      26.290 -13.109  -3.164  0.00  0.00     0.280 A 
ATOM     16  O   UNL d   1      25.339 -12.500  -3.616  0.00  0.00    -0.265 OA
ENDROOT
BRANCH   1  17
ATOM     17  N   UNL d   1      28.126 -11.664  -3.920  0.00  0.00    -0.253 N 
ATOM     18  C   UNL d   1      27.791 -11.417  -5.276  0.00  0.00     0.270 C 
ATOM     19  O   UNL d   1      26.948 -12.076  -5.885  0.00  0.00    -0.266 OA
ATOM     20  H   UNL d   1      28.897 -11.181  -3.475  0.00  0.00     0.191 HD
BRANCH  18  21
ATOM     21  C   UNL d   1      28.426 -10.263  -6.048  0.00  0.00     0.033 A 
ATOM     22  C   UNL d   1      27.577  -9.266  -6.589  0.00  0.00     0.020 A 
ATOM     23  C   UNL d   1      28.049  -8.272  -7.474  0.00  0.00     0.037 A 
ATOM     24  C   UNL d   1      29.403  -8.209  -7.763  0.00  0.00     0.065 A 
ATOM     25  C   UNL d   1      30.275  -9.121  -7.171  0.00  0.00     0.037 A 
ATOM     26  C   UNL d   1      29.785 -10.182  -6.372  0.00  0.00     0.020 A 
BRANCH  24  27
ATOM     27  O   UNL d   1      29.922  -7.283  -8.622  0.00  0.00    -0.361 OA
ATOM     28  H   UNL d   1      30.382  -6.585  -8.124  0.00  0.00     0.217 HD
ENDBRANCH  24  27
ENDBRANCH  18  21
ENDBRANCH   1  17
BRANCH   9  29
ATOM     29  N   UNL d   1      22.729 -18.578   0.237  0.00  0.00    -0.253 N 
ATOM     30  C   UNL d   1      21.405 -18.576  -0.310  0.00  0.00     0.270 C 
ATOM     31  O   UNL d   1      20.990 -17.935  -1.267  0.00  0.00    -0.266 OA
ATOM     32  H   UNL d   1      22.982 -19.225   0.977  0.00  0.00     0.191 HD
BRANCH  30  33
ATOM     33  C   UNL d   1      20.322 -19.430   0.270  0.00  0.00     0.033 C 
ATOM     34  C   UNL d   1      20.177 -19.600   1.642  0.00  0.00     0.020 C 
ATOM     35  C   UNL d   1      19.191 -20.467   2.144  0.00  0.00     0.037 C 
ATOM     36  C   UNL d   1      18.257 -21.043   1.285  0.00  0.00     0.065 C 
ATOM     37  C   UNL d   1      18.259 -20.723  -0.064  0.00  0.00     0.037 C 
ATOM     38  C   UNL d   1      19.312 -19.954  -0.579  0.00  0.00     0.020 C 
BRANCH  36  39
ATOM     39  O   UNL d   1      17.320 -21.927   1.730  0.00  0.00    -0.361 OA
ATOM     40  H   UNL d   1      17.282 -22.688   1.127  0.00  0.00     0.217 HD
ENDBRANCH  36  39
ENDBRANCH  30  33
ENDBRANCH   9  29
TORSDOF 6
ENDMDL
MODEL 4
REMARK VINA RESULT:    -9.471      1.405      1.636
REMARK INTER + INTRA:         -12.510
REMARK INTER:                 -11.261
REMARK INTRA:                  -1.249
REMARK CONF_INDEPENDENT:        1.790
REMARK UNBOUND:                -1.249
REMARK  6 active torsions:
REMARK  status: ('A' for Active; 'I' for Inactive)
REMARK       I    between atoms: C_2  and  N_3 
REMARK    1  A    between atoms: C_2  and  C_30 
REMARK    2  A    between atoms: N_3  and  N_4 
REMARK    3  A    between atoms: N_12  and  N_13 
REMARK       I    between atoms: N_13  and  C_14 
REMARK    4  A    between atoms: C_14  and  C_16 
REMARK    5  A    between atoms: C_19  and  O_20 
REMARK    6  A    between atoms: C_33  and  O_34 
ROOT
ATOM      1  N   UNL d   1      23.538 -17.495  -0.277  0.00  0.00    -0.179 N 
ATOM      2  C   UNL d   1      24.922 -17.747  -0.133  0.00  0.00     0.280 A 
ATOM      3  O   UNL d   1      25.468 -18.575   0.574  0.00  0.00    -0.265 OA
ATOM      4  C   UNL d   1      25.678 -16.719  -1.023  0.00  0.00     0.051 A 
ATOM      5  C   UNL d   1      27.035 -16.358  -1.438  0.00  0.00     0.036 A 
ATOM      6  C   UNL d   1      27.223 -15.257  -2.365  0.00  0.00     0.051 A 
ATOM      7  C   UNL d   1      28.322 -14.452  -3.147  0.00  0.00     0.280 A 
ATOM      8  O   UNL d   1      29.518 -14.673  -3.083  0.00  0.00    -0.265 OA
ATOM      9  N   UNL d   1      27.648 -13.455  -3.911  0.00  0.00    -0.179 N 
ATOM     10  C   UNL d   1      26.320 -13.554  -3.700  0.00  0.00     0.280 A 
ATOM     11  O   UNL d   1      25.326 -12.970  -4.102  0.00  0.00    -0.265 OA
ATOM     12  C   UNL d   1      26.076 -14.622  -2.780  0.00  0.00     0.051 A 
ATOM     13  C   UNL d   1      24.791 -14.936  -2.395  0.00  0.00     0.036 A 
ATOM     14  C   UNL d   1      24.629 -15.973  -1.526  0.00  0.00     0.051 A 
ATOM     15  C   UNL d   1      23.330 -16.388  -1.036  0.00  0.00     0.280 A 
ATOM     16  O   UNL d   1      22.324 -15.746  -1.270  0.00  0.00    -0.265 OA
ENDROOT
BRANCH   1  17
ATOM     17  N   UNL d   1      22.383 -18.189   0.339  0.00  0.00    -0.253 N 
ATOM     18  C   UNL d   1      21.548 -19.006  -0.466  0.00  0.00     0.270 C 
ATOM     19  O   UNL d   1      21.839 -19.324  -1.619  0.00  0.00    -0.266 OA
ATOM     20  H   UNL d   1      22.072 -17.853   1.243  0.00  0.00     0.191 HD
BRANCH  18  21
ATOM     21  C   UNL d   1      20.251 -19.592   0.085  0.00  0.00     0.033 A 
ATOM     22  C   UNL d   1      20.157 -19.832   1.478  0.00  0.00     0.020 A 
ATOM     23  C   UNL d   1      19.079 -20.544   2.051  0.00  0.00     0.037 A 
ATOM     24  C   UNL d   1      18.031 -20.952   1.242  0.00  0.00     0.065 A 
ATOM     25  C   UNL d   1      18.053 -20.648  -0.117  0.00  0.00     0.037 A 
ATOM     26  C   UNL d   1      19.183 -20.031  -0.707  0.00  0.00     0.020 A 
BRANCH  24  27
ATOM     27  O   UNL d   1      16.968 -21.657   1.729  0.00  0.00    -0.361 OA
ATOM     28  H   UNL d   1      16.957 -22.552   1.348  0.00  0.00     0.217 HD
ENDBRANCH  24  27
ENDBRANCH  18  21
ENDBRANCH   1  17
BRANCH   9  29
ATOM     29  N   UNL d   1      28.213 -12.439  -4.871  0.00  0.00    -0.253 N 
ATOM     30  C   UNL d   1      28.392 -12.709  -6.266  0.00  0.00     0.270 C 
ATOM     31  O   UNL d   1      28.155 -13.750  -6.865  0.00  0.00    -0.266 OA
ATOM     32  H   UNL d   1      28.355 -11.503  -4.503  0.00  0.00     0.191 HD
BRANCH  30  33
ATOM     33  C   UNL d   1      28.910 -11.662  -7.202  0.00  0.00     0.033 C 
ATOM     34  C   UNL d   1      29.336 -10.419  -6.748  0.00  0.00     0.020 C 
ATOM     35  C   UNL d   1      29.749  -9.439  -7.667  0.00  0.00     0.037 C 
ATOM     36  C   UNL d   1      29.881  -9.752  -9.019  0.00  0.00     0.065 C 
ATOM     37  C   UNL d   1      29.657 -11.046  -9.461  0.00  0.00     0.037 C 
ATOM     38  C   UNL d   1      29.132 -11.989  -8.565  0.00  0.00     0.020 C 
BRANCH  36  39
ATOM     39  O   UNL d   1      30.231  -8.813  -9.944  0.00  0.00    -0.361 OA
ATOM     40  H   UNL d   1      31.177  -8.896 -10.146  0.00  0.00     0.217 HD
ENDBRANCH  36  39
ENDBRANCH  30  33
ENDBRANCH   9  29
TORSDOF 6
ENDMDL
MODEL 5
REMARK VINA RESULT:    -9.440      3.049     11.989
REMARK INTER + INTRA:         -12.378
REMARK INTER:                 -11.230
REMARK INTRA:                  -1.149
REMARK CONF_INDEPENDENT:        1.790
REMARK UNBOUND:                -1.149
REMARK  6 active torsions:
REMARK  status: ('A' for Active; 'I' for Inactive)
REMARK       I    between atoms: C_2  and  N_3 
REMARK    1  A    between atoms: C_2  and  C_30 
REMARK    2  A    between atoms: N_3  and  N_4 
REMARK    3  A    between atoms: N_12  and  N_13 
REMARK       I    between atoms: N_13  and  C_14 
REMARK    4  A    between atoms: C_14  and  C_16 
REMARK    5  A    between atoms: C_19  and  O_20 
REMARK    6  A    between atoms: C_33  and  O_34 
ROOT
ATOM      1  N   UNL d   1      27.750 -12.864  -3.119  0.00  0.00    -0.179 N 
ATOM      2  C   UNL d   1      28.464 -13.968  -2.600  0.00  0.00     0.280 A 
ATOM      3  O   UNL d   1      29.667 -14.160  -2.611  0.00  0.00    -0.265 OA
ATOM      4  C   UNL d   1      27.422 -14.971  -2.030  0.00  0.00     0.051 A 
ATOM      5  C   UNL d   1      27.346 -16.255  -1.329  0.00  0.00     0.036 A 
ATOM      6  C   UNL d   1      26.046 -16.795  -0.976  0.00  0.00     0.051 A 
ATOM      7  C   UNL d   1      25.343 -18.007  -0.266  0.00  0.00     0.280 A 
ATOM      8  O   UNL d   1      25.930 -18.950   0.233  0.00  0.00    -0.265 OA
ATOM      9  N   UNL d   1      23.939 -17.774  -0.330  0.00  0.00    -0.179 N 
ATOM     10  C   UNL d   1      23.709 -16.608  -0.966  0.00  0.00     0.280 A 
ATOM     11  O   UNL d   1      22.720 -15.960  -1.270  0.00  0.00    -0.265 OA
ATOM     12  C   UNL d   1      24.962 -16.034  -1.349  0.00  0.00     0.051 A 
ATOM     13  C   UNL d   1      25.007 -14.831  -2.018  0.00  0.00     0.036 A 
ATOM     14  C   UNL d   1      26.234 -14.336  -2.341  0.00  0.00     0.051 A 
ATOM     15  C   UNL d   1      26.412 -13.088  -3.058  0.00  0.00     0.280 A 
ATOM     16  O   UNL d   1      25.468 -12.482  -3.528  0.00  0.00    -0.265 OA
ENDROOT
BRANCH   1  17
ATOM     17  N   UNL d   1      28.256 -11.629  -3.764  0.00  0.00    -0.253 N 
ATOM     18  C   UNL d   1      27.671 -10.379  -3.436  0.00  0.00     0.270 C 
ATOM     19  O   UNL d   1      26.884 -10.237  -2.500  0.00  0.00    -0.266 OA
ATOM     20  H   UNL d   1      28.814 -11.742  -4.601  0.00  0.00     0.191 HD
BRANCH  18  21
ATOM     21  C   UNL d   1      28.036  -9.112  -4.203  0.00  0.00     0.033 A 
ATOM     22  C   UNL d   1      27.171  -8.676  -5.238  0.00  0.00     0.020 A 
ATOM     23  C   UNL d   1      27.519  -7.632  -6.124  0.00  0.00     0.037 A 
ATOM     24  C   UNL d   1      28.708  -6.948  -5.931  0.00  0.00     0.065 A 
ATOM     25  C   UNL d   1      29.536  -7.295  -4.865  0.00  0.00     0.037 A 
ATOM     26  C   UNL d   1      29.237  -8.410  -4.045  0.00  0.00     0.020 A 
BRANCH  24  27
ATOM     27  O   UNL d   1      29.111  -5.941  -6.760  0.00  0.00    -0.361 OA
ATOM     28  H   UNL d   1      29.856  -5.457  -6.362  0.00  0.00     0.217 HD
ENDBRANCH  24  27
ENDBRANCH  18  21
ENDBRANCH   1  17
BRANCH   9  29
ATOM     29  N   UNL d   1      22.805 -18.596   0.230  0.00  0.00    -0.253 N 
ATOM     30  C   UNL d   1      21.485 -18.573  -0.326  0.00  0.00     0.270 C 
ATOM     31  O   UNL d   1      21.081 -17.905  -1.270  0.00  0.00    -0.266 OA
ATOM     32  H   UNL d   1      23.049 -19.264   0.955  0.00  0.00     0.191 HD
BRANCH  30  33
ATOM     33  C   UNL d   1      20.393 -19.437   0.222  0.00  0.00     0.033 C 
ATOM     34  C   UNL d   1      20.280 -19.700   1.582  0.00  0.00     0.020 C 
ATOM     35  C   UNL d   1      19.283 -20.573   2.049  0.00  0.00     0.037 C 
ATOM     36  C   UNL d   1      18.310 -21.061   1.178  0.00  0.00     0.065 C 
ATOM     37  C   UNL d   1      18.285 -20.646  -0.144  0.00  0.00     0.037 C 
ATOM     38  C   UNL d   1      19.347 -19.871  -0.633  0.00  0.00     0.020 C 
BRANCH  36  39
ATOM     39  O   UNL d   1      17.359 -21.949   1.587  0.00  0.00    -0.361 OA
ATOM     40  H   UNL d   1      17.325 -22.693   0.963  0.00  0.00     0.217 HD
ENDBRANCH  36  39
ENDBRANCH  30  33
ENDBRANCH   9  29
TORSDOF 6
ENDMDL
MODEL 6
REMARK VINA RESULT:    -9.056      1.214     12.034
REMARK INTER + INTRA:         -12.051
REMARK INTER:                 -10.846
REMARK INTRA:                  -1.205
REMARK CONF_INDEPENDENT:        1.790
REMARK UNBOUND:                -1.205
REMARK  6 active torsions:
REMARK  status: ('A' for Active; 'I' for Inactive)
REMARK       I    between atoms: C_2  and  N_3 
REMARK    1  A    between atoms: C_2  and  C_30 
REMARK    2  A    between atoms: N_3  and  N_4 
REMARK    3  A    between atoms: N_12  and  N_13 
REMARK       I    between atoms: N_13  and  C_14 
REMARK    4  A    between atoms: C_14  and  C_16 
REMARK    5  A    between atoms: C_19  and  O_20 
REMARK    6  A    between atoms: C_33  and  O_34 
ROOT
ATOM      1  N   UNL d   1      28.523 -13.725  -3.596  0.00  0.00    -0.179 N 
ATOM      2  C   UNL d   1      29.106 -14.762  -2.832  0.00  0.00     0.280 A 
ATOM      3  O   UNL d   1      30.287 -15.035  -2.710  0.00  0.00    -0.265 OA
ATOM      4  C   UNL d   1      27.948 -15.568  -2.179  0.00  0.00     0.051 A 
ATOM      5  C   UNL d   1      27.719 -16.693  -1.270  0.00  0.00     0.036 A 
ATOM      6  C   UNL d   1      26.357 -17.068  -0.934  0.00  0.00     0.051 A 
ATOM      7  C   UNL d   1      25.510 -18.077  -0.080  0.00  0.00     0.280 A 
ATOM      8  O   UNL d   1      25.982 -18.950   0.627  0.00  0.00    -0.265 OA
ATOM      9  N   UNL d   1      24.137 -17.764  -0.299  0.00  0.00    -0.179 N 
ATOM     10  C   UNL d   1      24.049 -16.722  -1.150  0.00  0.00     0.280 A 
ATOM     11  O   UNL d   1      23.140 -16.074  -1.645  0.00  0.00    -0.265 OA
ATOM     12  C   UNL d   1      25.368 -16.316  -1.525  0.00  0.00     0.051 A 
ATOM     13  C   UNL d   1      25.558 -15.263  -2.392  0.00  0.00     0.036 A 
ATOM     14  C   UNL d   1      26.841 -14.921  -2.695  0.00  0.00     0.051 A 
ATOM     15  C   UNL d   1      27.170 -13.842  -3.606  0.00  0.00     0.280 A 
ATOM     16  O   UNL d   1      26.314 -13.269  -4.253  0.00  0.00    -0.265 OA
ENDROOT
BRANCH   1  17
ATOM     17  N   UNL d   1      29.173 -12.668  -4.407  0.00  0.00    -0.253 N 
ATOM     18  C   UNL d   1      28.906 -12.591  -5.798  0.00  0.00     0.270 C 
ATOM     19  O   UNL d   1      28.013 -13.241  -6.342  0.00  0.00    -0.266 OA
ATOM     20  H   UNL d   1      29.979 -12.208  -4.003  0.00  0.00     0.191 HD
BRANCH  18  21
ATOM     21  C   UNL d   1      29.686 -11.638  -6.699  0.00  0.00     0.033 A 
ATOM     22  C   UNL d   1      30.563 -10.703  -6.093  0.00  0.00     0.020 A 
ATOM     23  C   UNL d   1      31.177  -9.661  -6.824  0.00  0.00     0.037 A 
ATOM     24  C   UNL d   1      30.990  -9.593  -8.195  0.00  0.00     0.065 A 
ATOM     25  C   UNL d   1      30.207 -10.554  -8.830  0.00  0.00     0.037 A 
ATOM     26  C   UNL d   1      29.505 -11.532  -8.083  0.00  0.00     0.020 A 
BRANCH  24  27
ATOM     27  O   UNL d   1      31.541  -8.603  -8.956  0.00  0.00    -0.361 OA
ATOM     28  H   UNL d   1      32.131  -8.051  -8.412  0.00  0.00     0.217 HD
ENDBRANCH  24  27
ENDBRANCH  18  21
ENDBRANCH   1  17
BRANCH   9  29
ATOM     29  N   UNL d   1      22.904 -18.389   0.303  0.00  0.00    -0.253 N 
ATOM     30  C   UNL d   1      21.844 -18.930  -0.494  0.00  0.00     0.270 C 
ATOM     31  O   UNL d   1      21.759 -18.950  -1.715  0.00  0.00    -0.266 OA
ATOM     32  H   UNL d   1      22.910 -18.516   1.310  0.00  0.00     0.191 HD
BRANCH  30  33
ATOM     33  C   UNL d   1      20.655 -19.587   0.134  0.00  0.00     0.033 C 
ATOM     34  C   UNL d   1      20.521 -19.697   1.513  0.00  0.00     0.020 C 
ATOM     35  C   UNL d   1      19.424 -20.383   2.060  0.00  0.00     0.037 C 
ATOM     36  C   UNL d   1      18.389 -20.826   1.239  0.00  0.00     0.065 C 
ATOM     37  C   UNL d   1      18.406 -20.545  -0.118  0.00  0.00     0.037 C 
ATOM     38  C   UNL d   1      19.554 -19.966  -0.678  0.00  0.00     0.020 C 
BRANCH  36  39
ATOM     39  O   UNL d   1      17.335 -21.539   1.730  0.00  0.00    -0.361 OA
ATOM     40  H   UNL d   1      17.117 -22.257   1.114  0.00  0.00     0.217 HD
ENDBRANCH  36  39
ENDBRANCH  30  33
ENDBRANCH   9  29
TORSDOF 6
ENDMDL
MODEL 7
REMARK VINA RESULT:    -8.585      2.508     12.214
REMARK INTER + INTRA:         -11.683
REMARK INTER:                 -10.374
REMARK INTRA:                  -1.309
REMARK CONF_INDEPENDENT:        1.790
REMARK UNBOUND:                -1.309
REMARK  6 active torsions:
REMARK  status: ('A' for Active; 'I' for Inactive)
REMARK       I    between atoms: C_2  and  N_3 
REMARK    1  A    between atoms: C_2  and  C_30 
REMARK    2  A    between atoms: N_3  and  N_4 
REMARK    3  A    between atoms: N_12  and  N_13 
REMARK       I    between atoms: N_13  and  C_14 
REMARK    4  A    between atoms: C_14  and  C_16 
REMARK    5  A    between atoms: C_19  and  O_20 
REMARK    6  A    between atoms: C_33  and  O_34 
ROOT
ATOM      1  N   UNL d   1      29.515 -15.487  -2.737  0.00  0.00    -0.179 N 
ATOM      2  C   UNL d   1      28.475 -14.598  -3.094  0.00  0.00     0.280 A 
ATOM      3  O   UNL d   1      28.554 -13.562  -3.729  0.00  0.00    -0.265 OA
ATOM      4  C   UNL d   1      27.158 -15.149  -2.477  0.00  0.00     0.051 A 
ATOM      5  C   UNL d   1      25.723 -14.861  -2.418  0.00  0.00     0.036 A 
ATOM      6  C   UNL d   1      24.851 -15.752  -1.676  0.00  0.00     0.051 A 
ATOM      7  C   UNL d   1      23.350 -15.992  -1.278  0.00  0.00     0.280 A 
ATOM      8  O   UNL d   1      22.424 -15.273  -1.609  0.00  0.00    -0.265 OA
ATOM      9  N   UNL d   1      23.310 -17.175  -0.485  0.00  0.00    -0.179 N 
ATOM     10  C   UNL d   1      24.558 -17.670  -0.360  0.00  0.00     0.280 A 
ATOM     11  O   UNL d   1      25.063 -18.637   0.189  0.00  0.00    -0.265 OA
ATOM     12  C   UNL d   1      25.467 -16.820  -1.066  0.00  0.00     0.051 A 
ATOM     13  C   UNL d   1      26.814 -17.106  -1.096  0.00  0.00     0.036 A 
ATOM     14  C   UNL d   1      27.620 -16.261  -1.798  0.00  0.00     0.051 A 
ATOM     15  C   UNL d   1      29.056 -16.446  -1.892  0.00  0.00     0.280 A 
ATOM     16  O   UNL d   1      29.634 -17.292  -1.237  0.00  0.00    -0.265 OA
ENDROOT
BRANCH   1  17
ATOM     17  N   UNL d   1      30.958 -15.438  -3.073  0.00  0.00    -0.253 N 
ATOM     18  C   UNL d   1      31.357 -15.384  -4.433  0.00  0.00     0.270 C 
ATOM     19  O   UNL d   1      30.563 -15.186  -5.353  0.00  0.00    -0.266 OA
ATOM     20  H   UNL d   1      31.610 -15.708  -2.346  0.00  0.00     0.191 HD
BRANCH  18  21
ATOM     21  C   UNL d   1      32.825 -15.512  -4.830  0.00  0.00     0.033 A 
ATOM     22  C   UNL d   1      33.170 -15.360  -6.196  0.00  0.00     0.020 A 
ATOM     23  C   UNL d   1      34.463 -15.649  -6.684  0.00  0.00     0.037 A 
ATOM     24  C   UNL d   1      35.459 -16.013  -5.792  0.00  0.00     0.065 A 
ATOM     25  C   UNL d   1      35.171 -16.081  -4.431  0.00  0.00     0.037 A 
ATOM     26  C   UNL d   1      33.849 -15.897  -3.957  0.00  0.00     0.020 A 
BRANCH  24  27
ATOM     27  O   UNL d   1      36.725 -16.321  -6.201  0.00  0.00    -0.361 OA
ATOM     28  H   UNL d   1      36.774 -16.315  -7.173  0.00  0.00     0.217 HD
ENDBRANCH  24  27
ENDBRANCH  18  21
ENDBRANCH   1  17
BRANCH   9  29
ATOM     29  N   UNL d   1      22.124 -17.881   0.123  0.00  0.00    -0.253 N 
ATOM     30  C   UNL d   1      21.384 -18.889  -0.576  0.00  0.00     0.270 C 
ATOM     31  O   UNL d   1      21.564 -19.298  -1.715  0.00  0.00    -0.266 OA
ATOM     32  H   UNL d   1      21.942 -17.692   1.103  0.00  0.00     0.191 HD
BRANCH  30  33
ATOM     33  C   UNL d   1      20.241 -19.606   0.073  0.00  0.00     0.033 C 
ATOM     34  C   UNL d   1      20.129 -19.706   1.455  0.00  0.00     0.020 C 
ATOM     35  C   UNL d   1      19.079 -20.448   2.023  0.00  0.00     0.037 C 
ATOM     36  C   UNL d   1      18.062 -20.959   1.218  0.00  0.00     0.065 C 
ATOM     37  C   UNL d   1      18.048 -20.694  -0.142  0.00  0.00     0.037 C 
ATOM     38  C   UNL d   1      19.155 -20.057  -0.721  0.00  0.00     0.020 C 
BRANCH  36  39
ATOM     39  O   UNL d   1      17.056 -21.725   1.729  0.00  0.00    -0.361 OA
ATOM     40  H   UNL d   1      17.281 -22.665   1.623  0.00  0.00     0.217 HD
ENDBRANCH  36  39
ENDBRANCH  30  33
ENDBRANCH   9  29
TORSDOF 6
ENDMDL
MODEL 8
REMARK VINA RESULT:    -7.838      3.492      4.514
REMARK INTER + INTRA:         -10.666
REMARK INTER:                  -9.628
REMARK INTRA:                  -1.038
REMARK CONF_INDEPENDENT:        1.790
REMARK UNBOUND:                -1.038
REMARK  6 active torsions:
REMARK  status: ('A' for Active; 'I' for Inactive)
REMARK       I    between atoms: C_2  and  N_3 
REMARK    1  A    between atoms: C_2  and  C_30 
REMARK    2  A    between atoms: N_3  and  N_4 
REMARK    3  A    between atoms: N_12  and  N_13 
REMARK       I    between atoms: N_13  and  C_14 
REMARK    4  A    between atoms: C_14  and  C_16 
REMARK    5  A    between atoms: C_19  and  O_20 
REMARK    6  A    between atoms: C_33  and  O_34 
ROOT
ATOM      1  N   UNL d   1      23.945 -17.672  -0.241  0.00  0.00    -0.179 N 
ATOM      2  C   UNL d   1      23.746 -16.434  -0.893  0.00  0.00     0.280 A 
ATOM      3  O   UNL d   1      22.698 -15.940  -1.269  0.00  0.00    -0.265 OA
ATOM      4  C   UNL d   1      25.145 -15.791  -1.112  0.00  0.00     0.051 A 
ATOM      5  C   UNL d   1      25.767 -14.576  -1.643  0.00  0.00     0.036 A 
ATOM      6  C   UNL d   1      27.211 -14.439  -1.594  0.00  0.00     0.051 A 
ATOM      7  C   UNL d   1      28.389 -13.463  -1.949  0.00  0.00     0.280 A 
ATOM      8  O   UNL d   1      28.249 -12.369  -2.467  0.00  0.00    -0.265 OA
ATOM      9  N   UNL d   1      29.599 -14.103  -1.551  0.00  0.00    -0.179 N 
ATOM     10  C   UNL d   1      29.311 -15.305  -1.013  0.00  0.00     0.280 A 
ATOM     11  O   UNL d   1      29.955 -16.219  -0.524  0.00  0.00    -0.265 OA
ATOM     12  C   UNL d   1      27.894 -15.499  -1.045  0.00  0.00     0.051 A 
ATOM     13  C   UNL d   1      27.334 -16.656  -0.551  0.00  0.00     0.036 A 
ATOM     14  C   UNL d   1      25.977 -16.770  -0.600  0.00  0.00     0.051 A 
ATOM     15  C   UNL d   1      25.271 -17.944  -0.126  0.00  0.00     0.280 A 
ATOM     16  O   UNL d   1      25.863 -18.949   0.220  0.00  0.00    -0.265 OA
ENDROOT
BRANCH   1  17
ATOM     17  N   UNL d   1      22.950 -18.675   0.208  0.00  0.00    -0.253 N 
ATOM     18  C   UNL d   1      21.611 -18.585  -0.252  0.00  0.00     0.270 C 
ATOM     19  O   UNL d   1      21.268 -17.825  -1.158  0.00  0.00    -0.266 OA
ATOM     20  H   UNL d   1      23.187 -19.226   1.024  0.00  0.00     0.191 HD
BRANCH  18  21
ATOM     21  C   UNL d   1      20.519 -19.483   0.321  0.00  0.00     0.033 A 
ATOM     22  C   UNL d   1      19.595 -20.076  -0.576  0.00  0.00     0.020 A 
ATOM     23  C   UNL d   1      18.443 -20.761  -0.128  0.00  0.00     0.037 A 
ATOM     24  C   UNL d   1      18.245 -20.939   1.231  0.00  0.00     0.065 A 
ATOM     25  C   UNL d   1      19.186 -20.445   2.133  0.00  0.00     0.037 A 
ATOM     26  C   UNL d   1      20.281 -19.666   1.688  0.00  0.00     0.020 A 
BRANCH  24  27
ATOM     27  O   UNL d   1      17.146 -21.577   1.730  0.00  0.00    -0.361 OA
ATOM     28  H   UNL d   1      16.856 -22.274   1.116  0.00  0.00     0.217 HD
ENDBRANCH  24  27
ENDBRANCH  18  21
ENDBRANCH   1  17
BRANCH   9  29
ATOM     29  N   UNL d   1      31.018 -13.597  -1.621  0.00  0.00    -0.253 N 
ATOM     30  C   UNL d   1      31.348 -12.207  -1.526  0.00  0.00     0.270 C 
ATOM     31  O   UNL d   1      30.582 -11.260  -1.406  0.00  0.00    -0.266 OA
ATOM     32  H   UNL d   1      31.748 -14.303  -1.621  0.00  0.00     0.191 HD
BRANCH  30  33
ATOM     33  C   UNL d   1      32.771 -11.741  -1.550  0.00  0.00     0.033 C 
ATOM     34  C   UNL d   1      33.694 -12.155  -0.597  0.00  0.00     0.020 C 
ATOM     35  C   UNL d   1      35.001 -11.639  -0.613  0.00  0.00     0.037 C 
ATOM     36  C   UNL d   1      35.426 -10.831  -1.667  0.00  0.00     0.065 C 
ATOM     37  C   UNL d   1      34.580 -10.574  -2.734  0.00  0.00     0.037 C 
ATOM     38  C   UNL d   1      33.244 -10.990  -2.658  0.00  0.00     0.020 C 
BRANCH  36  39
ATOM     39  O   UNL d   1      36.670 -10.273  -1.689  0.00  0.00    -0.361 OA
ATOM     40  H   UNL d   1      36.736  -9.662  -2.441  0.00  0.00     0.217 HD
ENDBRANCH  36  39
ENDBRANCH  30  33
ENDBRANCH   9  29
TORSDOF 6
ENDMDL
MODEL 9
REMARK VINA RESULT:    -7.777      2.391      3.247
REMARK INTER + INTRA:         -10.800
REMARK INTER:                  -9.567
REMARK INTRA:                  -1.232
REMARK CONF_INDEPENDENT:        1.790
REMARK UNBOUND:                -1.232
REMARK  6 active torsions:
REMARK  status: ('A' for Active; 'I' for Inactive)
REMARK       I    between atoms: C_2  and  N_3 
REMARK    1  A    between atoms: C_2  and  C_30 
REMARK    2  A    between atoms: N_3  and  N_4 
REMARK    3  A    between atoms: N_12  and  N_13 
REMARK       I    between atoms: N_13  and  C_14 
REMARK    4  A    between atoms: C_14  and  C_16 
REMARK    5  A    between atoms: C_19  and  O_20 
REMARK    6  A    between atoms: C_33  and  O_34 
ROOT
ATOM      1  N   UNL d   1      23.233 -17.190  -0.579  0.00  0.00    -0.179 N 
ATOM      2  C   UNL d   1      23.173 -15.953  -1.261  0.00  0.00     0.280 A 
ATOM      3  O   UNL d   1      22.197 -15.258  -1.477  0.00  0.00    -0.265 OA
ATOM      4  C   UNL d   1      24.609 -15.626  -1.760  0.00  0.00     0.051 A 
ATOM      5  C   UNL d   1      25.357 -14.583  -2.466  0.00  0.00     0.036 A 
ATOM      6  C   UNL d   1      26.782 -14.754  -2.680  0.00  0.00     0.051 A 
ATOM      7  C   UNL d   1      28.049 -14.058  -3.295  0.00  0.00     0.280 A 
ATOM      8  O   UNL d   1      28.041 -12.972  -3.847  0.00  0.00    -0.265 OA
ATOM      9  N   UNL d   1      29.155 -14.930  -3.077  0.00  0.00    -0.179 N 
ATOM     10  C   UNL d   1      28.731 -16.032  -2.425  0.00  0.00     0.280 A 
ATOM     11  O   UNL d   1      29.254 -17.050  -2.000  0.00  0.00    -0.265 OA
ATOM     12  C   UNL d   1      27.324 -15.922  -2.195  0.00  0.00     0.051 A 
ATOM     13  C   UNL d   1      26.640 -16.922  -1.540  0.00  0.00     0.036 A 
ATOM     14  C   UNL d   1      25.303 -16.747  -1.344  0.00  0.00     0.051 A 
ATOM     15  C   UNL d   1      24.473 -17.734  -0.681  0.00  0.00     0.280 A 
ATOM     16  O   UNL d   1      24.901 -18.833  -0.384  0.00  0.00    -0.265 OA
ENDROOT
BRANCH   1  17
ATOM     17  N   UNL d   1      22.154 -17.949   0.098  0.00  0.00    -0.253 N 
ATOM     18  C   UNL d   1      21.432 -18.933  -0.625  0.00  0.00     0.270 C 
ATOM     19  O   UNL d   1      21.777 -19.328  -1.739  0.00  0.00    -0.266 OA
ATOM     20  H   UNL d   1      21.792 -17.563   0.962  0.00  0.00     0.191 HD
BRANCH  18  21
ATOM     21  C   UNL d   1      20.202 -19.608  -0.025  0.00  0.00     0.033 A 
ATOM     22  C   UNL d   1      20.232 -19.969   1.345  0.00  0.00     0.020 A 
ATOM     23  C   UNL d   1      19.225 -20.764   1.937  0.00  0.00     0.037 A 
ATOM     24  C   UNL d   1      18.124 -21.137   1.184  0.00  0.00     0.065 A 
ATOM     25  C   UNL d   1      18.025 -20.718  -0.141  0.00  0.00     0.037 A 
ATOM     26  C   UNL d   1      19.084 -20.014  -0.763  0.00  0.00     0.020 A 
BRANCH  24  27
ATOM     27  O   UNL d   1      17.126 -21.917   1.691  0.00  0.00    -0.361 OA
ATOM     28  H   UNL d   1      17.047 -22.739   1.174  0.00  0.00     0.217 HD
ENDBRANCH  24  27
ENDBRANCH  18  21
ENDBRANCH   1  17
BRANCH   9  29
ATOM     29  N   UNL d   1      30.609 -14.739  -3.426  0.00  0.00    -0.253 N 
ATOM     30  C   UNL d   1      31.152 -15.097  -4.702  0.00  0.00     0.270 C 
ATOM     31  O   UNL d   1      30.567 -15.609  -5.648  0.00  0.00    -0.266 OA
ATOM     32  H   UNL d   1      31.171 -14.230  -2.749  0.00  0.00     0.191 HD
BRANCH  30  33
ATOM     33  C   UNL d   1      32.590 -14.850  -5.034  0.00  0.00     0.033 C 
ATOM     34  C   UNL d   1      33.065 -13.578  -5.330  0.00  0.00     0.020 C 
ATOM     35  C   UNL d   1      34.408 -13.399  -5.706  0.00  0.00     0.037 C 
ATOM     36  C   UNL d   1      35.306 -14.462  -5.639  0.00  0.00     0.065 C 
ATOM     37  C   UNL d   1      34.895 -15.693  -5.150  0.00  0.00     0.037 C 
ATOM     38  C   UNL d   1      33.534 -15.900  -4.889  0.00  0.00     0.020 C 
BRANCH  36  39
ATOM     39  O   UNL d   1      36.602 -14.336  -6.044  0.00  0.00    -0.361 OA
ATOM     40  H   UNL d   1      36.637 -14.326  -7.015  0.00  0.00     0.217 HD
ENDBRANCH  36  39
ENDBRANCH  30  33
ENDBRANCH   9  29
TORSDOF 6
ENDMDL
