MODEL 1
REMARK VINA RESULT:    -7.736      0.000      0.000
REMARK INTER + INTRA:         -10.415
REMARK INTER:                  -8.929
REMARK INTRA:                  -1.486
REMARK CONF_INDEPENDENT:        1.193
REMARK UNBOUND:                -1.486
REMARK  4 active torsions:
REMARK  status: ('A' for Active; 'I' for Inactive)
REMARK    1  A    between atoms: C_2  and  C_3 
REMARK       I    between atoms: C_2  and  N_13 
REMARK    2  A    between atoms: C_3  and  N_4 
REMARK    3  A    between atoms: N_13  and  N_14 
REMARK       I    between atoms: N_14  and  C_15 
REMARK    4  A    between atoms: C_15  and  C_17 
ROOT
ATOM      1  O   UNL d   1      26.199 -11.606  -5.542  0.00  0.00    -0.270 OA
ATOM      2  C   UNL d   1      26.339 -12.399  -4.610  0.00  0.00     0.254 C 
ATOM      3  N   UNL d   1      25.199 -12.862  -3.977  0.00  0.00    -0.266 N 
ATOM      4  H   UNL d   1      24.308 -12.497  -4.324  0.00  0.00     0.190 HD
ENDROOT
BRANCH   3   5
ATOM      5  N   UNL d   1      25.123 -13.782  -2.912  0.00  0.00    -0.263 N 
ATOM      6  C   UNL d   1      25.330 -15.136  -3.190  0.00  0.00     0.270 C 
ATOM      7  O   UNL d   1      25.530 -15.574  -4.324  0.00  0.00    -0.266 OA
ATOM      8  H   UNL d   1      25.115 -13.442  -1.957  0.00  0.00     0.190 HD
BRANCH   6   9
ATOM      9  C   UNL d   1      25.340 -16.062  -2.018  0.00  0.00     0.035 C 
ATOM     10  C   UNL d   1      26.537 -16.363  -1.355  0.00  0.00     0.017 C 
ATOM     11  C   UNL d   1      26.543 -17.260  -0.280  0.00  0.00     0.003 C 
ATOM     12  C   UNL d   1      25.377 -17.940   0.068  0.00  0.00     0.024 C 
ATOM     13  C   UNL d   1      24.181 -17.623  -0.573  0.00  0.00     0.035 C 
ATOM     14 CL   UNL d   1      22.754 -18.499  -0.168  0.00  0.00    -0.084 Cl
ATOM     15  C   UNL d   1      24.143 -16.633  -1.561  0.00  0.00     0.041 C 
ENDBRANCH   6   9
ENDBRANCH   3   5
BRANCH   2  16
ATOM     16  C   UNL d   1      27.692 -12.897  -4.131  0.00  0.00     0.233 C 
BRANCH  16  17
ATOM     17  N   UNL d   1      28.358 -13.874  -5.006  0.00  0.00    -0.347 N 
ATOM     18  C   UNL d   1      28.444 -13.721  -6.373  0.00  0.00     0.092 A 
ATOM     19  C   UNL d   1      29.081 -14.822  -6.896  0.00  0.00     0.031 A 
ATOM     20  C   UNL d   1      29.384 -15.695  -5.821  0.00  0.00    -0.008 A 
ATOM     21  C   UNL d   1      30.030 -16.947  -5.755  0.00  0.00     0.014 A 
ATOM     22  C   UNL d   1      28.908 -15.097  -4.645  0.00  0.00     0.044 A 
ATOM     23  C   UNL d   1      30.199 -17.573  -4.519  0.00  0.00     0.001 A 
ATOM     24  C   UNL d   1      29.725 -16.970  -3.359  0.00  0.00     0.002 A 
ATOM     25  C   UNL d   1      29.066 -15.732  -3.401  0.00  0.00     0.030 A 
ENDBRANCH  16  17
ENDBRANCH   2  16
TORSDOF 4
ENDMDL
MODEL 2
REMARK VINA RESULT:    -7.691      3.281      4.824
REMARK INTER + INTRA:         -10.915
REMARK INTER:                  -8.884
REMARK INTRA:                  -2.030
REMARK CONF_INDEPENDENT:        1.193
REMARK UNBOUND:                -2.030
REMARK  4 active torsions:
REMARK  status: ('A' for Active; 'I' for Inactive)
REMARK    1  A    between atoms: C_2  and  C_3 
REMARK       I    between atoms: C_2  and  N_13 
REMARK    2  A    between atoms: C_3  and  N_4 
REMARK    3  A    between atoms: N_13  and  N_14 
REMARK       I    between atoms: N_14  and  C_15 
REMARK    4  A    between atoms: C_15  and  C_17 
ROOT
ATOM      1  O   UNL d   1      30.904 -17.311  -0.456  0.00  0.00    -0.270 OA
ATOM      2  C   UNL d   1      29.806 -17.014  -0.930  0.00  0.00     0.254 C 
ATOM      3  N   UNL d   1      28.688 -17.647  -0.419  0.00  0.00    -0.266 N 
ATOM      4  H   UNL d   1      28.854 -18.337   0.318  0.00  0.00     0.190 HD
ENDROOT
BRANCH   3   5
ATOM      5  N   UNL d   1      27.343 -17.447  -0.794  0.00  0.00    -0.263 N 
ATOM      6  C   UNL d   1      26.341 -17.957   0.035  0.00  0.00     0.270 C 
ATOM      7  O   UNL d   1      26.570 -18.611   1.053  0.00  0.00    -0.266 OA
ATOM      8  H   UNL d   1      27.123 -16.788  -1.533  0.00  0.00     0.190 HD
BRANCH   6   9
ATOM      9  C   UNL d   1      24.933 -17.636  -0.347  0.00  0.00     0.035 C 
ATOM     10  C   UNL d   1      24.607 -16.384  -0.886  0.00  0.00     0.017 C 
ATOM     11  C   UNL d   1      23.279 -16.078  -1.207  0.00  0.00     0.003 C 
ATOM     12  C   UNL d   1      22.260 -16.976  -0.895  0.00  0.00     0.024 C 
ATOM     13  C   UNL d   1      22.586 -18.231  -0.383  0.00  0.00     0.035 C 
ATOM     14 CL   UNL d   1      21.319 -19.318   0.042  0.00  0.00    -0.084 Cl
ATOM     15  C   UNL d   1      23.922 -18.593  -0.180  0.00  0.00     0.041 C 
ENDBRANCH   6   9
ENDBRANCH   3   5
BRANCH   2  16
ATOM     16  C   UNL d   1      29.623 -15.987  -2.034  0.00  0.00     0.233 C 
BRANCH  16  17
ATOM     17  N   UNL d   1      28.455 -15.105  -1.899  0.00  0.00    -0.347 N 
ATOM     18  C   UNL d   1      28.184 -14.388  -0.752  0.00  0.00     0.092 A 
ATOM     19  C   UNL d   1      27.004 -13.707  -0.933  0.00  0.00     0.031 A 
ATOM     20  C   UNL d   1      26.516 -14.025  -2.224  0.00  0.00    -0.008 A 
ATOM     21  C   UNL d   1      25.373 -13.620  -2.944  0.00  0.00     0.014 A 
ATOM     22  C   UNL d   1      27.425 -14.917  -2.811  0.00  0.00     0.044 A 
ATOM     23  C   UNL d   1      25.163 -14.103  -4.238  0.00  0.00     0.001 A 
ATOM     24  C   UNL d   1      26.071 -14.987  -4.809  0.00  0.00     0.002 A 
ATOM     25  C   UNL d   1      27.209 -15.415  -4.108  0.00  0.00     0.030 A 
ENDBRANCH  16  17
ENDBRANCH   2  16
TORSDOF 4
ENDMDL
MODEL 3
REMARK VINA RESULT:    -7.541      1.683      2.845
REMARK INTER + INTRA:         -10.179
REMARK INTER:                  -8.734
REMARK INTRA:                  -1.445
REMARK CONF_INDEPENDENT:        1.193
REMARK UNBOUND:                -1.445
REMARK  4 active torsions:
REMARK  status: ('A' for Active; 'I' for Inactive)
REMARK    1  A    between atoms: C_2  and  C_3 
REMARK       I    between atoms: C_2  and  N_13 
REMARK    2  A    between atoms: C_3  and  N_4 
REMARK    3  A    between atoms: N_13  and  N_14 
REMARK       I    between atoms: N_14  and  C_15 
REMARK    4  A    between atoms: C_15  and  C_17 
ROOT
ATOM      1  O   UNL d   1      28.509 -14.211  -7.258  0.00  0.00    -0.270 OA
ATOM      2  C   UNL d   1      28.546 -14.661  -6.112  0.00  0.00     0.254 C 
ATOM      3  N   UNL d   1      27.349 -15.023  -5.520  0.00  0.00    -0.266 N 
ATOM      4  H   UNL d   1      26.504 -14.876  -6.078  0.00  0.00     0.190 HD
ENDROOT
BRANCH   3   5
ATOM      5  N   UNL d   1      27.160 -15.575  -4.236  0.00  0.00    -0.263 N 
ATOM      6  C   UNL d   1      25.905 -15.440  -3.636  0.00  0.00     0.270 C 
ATOM      7  O   UNL d   1      24.970 -14.825  -4.148  0.00  0.00    -0.266 OA
ATOM      8  H   UNL d   1      27.852 -16.213  -3.860  0.00  0.00     0.190 HD
BRANCH   6   9
ATOM      9  C   UNL d   1      25.720 -16.126  -2.321  0.00  0.00     0.035 C 
ATOM     10  C   UNL d   1      26.806 -16.321  -1.458  0.00  0.00     0.017 C 
ATOM     11  C   UNL d   1      26.631 -16.998  -0.244  0.00  0.00     0.003 C 
ATOM     12  C   UNL d   1      25.399 -17.574   0.062  0.00  0.00     0.024 C 
ATOM     13  C   UNL d   1      24.312 -17.359  -0.784  0.00  0.00     0.035 C 
ATOM     14 CL   UNL d   1      22.805 -18.112  -0.422  0.00  0.00    -0.084 Cl
ATOM     15  C   UNL d   1      24.448 -16.574  -1.934  0.00  0.00     0.041 C 
ENDBRANCH   6   9
ENDBRANCH   3   5
BRANCH   2  16
ATOM     16  C   UNL d   1      29.833 -14.845  -5.327  0.00  0.00     0.233 C 
BRANCH  16  17
ATOM     17  N   UNL d   1      30.071 -16.197  -4.800  0.00  0.00    -0.347 N 
ATOM     18  C   UNL d   1      30.100 -16.483  -3.452  0.00  0.00     0.092 A 
ATOM     19  C   UNL d   1      30.391 -17.818  -3.295  0.00  0.00     0.031 A 
ATOM     20  C   UNL d   1      30.568 -18.375  -4.586  0.00  0.00    -0.008 A 
ATOM     21  C   UNL d   1      30.866 -19.677  -5.036  0.00  0.00     0.014 A 
ATOM     22  C   UNL d   1      30.384 -17.344  -5.519  0.00  0.00     0.044 A 
ATOM     23  C   UNL d   1      30.965 -19.930  -6.405  0.00  0.00     0.001 A 
ATOM     24  C   UNL d   1      30.780 -18.901  -7.321  0.00  0.00     0.002 A 
ATOM     25  C   UNL d   1      30.496 -17.594  -6.898  0.00  0.00     0.030 A 
ENDBRANCH  16  17
ENDBRANCH   2  16
TORSDOF 4
ENDMDL
MODEL 4
REMARK VINA RESULT:    -7.345      0.878      1.863
REMARK INTER + INTRA:         -10.288
REMARK INTER:                  -8.538
REMARK INTRA:                  -1.749
REMARK CONF_INDEPENDENT:        1.193
REMARK UNBOUND:                -1.749
REMARK  4 active torsions:
REMARK  status: ('A' for Active; 'I' for Inactive)
REMARK    1  A    between atoms: C_2  and  C_3 
REMARK       I    between atoms: C_2  and  N_13 
REMARK    2  A    between atoms: C_3  and  N_4 
REMARK    3  A    between atoms: N_13  and  N_14 
REMARK       I    between atoms: N_14  and  C_15 
REMARK    4  A    between atoms: C_15  and  C_17 
ROOT
ATOM      1  O   UNL d   1      25.691 -11.701  -5.667  0.00  0.00    -0.270 OA
ATOM      2  C   UNL d   1      25.782 -12.340  -4.618  0.00  0.00     0.254 C 
ATOM      3  N   UNL d   1      24.791 -13.261  -4.332  0.00  0.00    -0.266 N 
ATOM      4  H   UNL d   1      24.033 -13.339  -5.016  0.00  0.00     0.190 HD
ENDROOT
BRANCH   3   5
ATOM      5  N   UNL d   1      24.706 -14.109  -3.209  0.00  0.00    -0.263 N 
ATOM      6  C   UNL d   1      25.234 -15.399  -3.312  0.00  0.00     0.270 C 
ATOM      7  O   UNL d   1      25.729 -15.850  -4.345  0.00  0.00    -0.266 OA
ATOM      8  H   UNL d   1      24.449 -13.722  -2.308  0.00  0.00     0.190 HD
BRANCH   6   9
ATOM      9  C   UNL d   1      25.213 -16.228  -2.068  0.00  0.00     0.035 C 
ATOM     10  C   UNL d   1      26.385 -16.438  -1.331  0.00  0.00     0.017 C 
ATOM     11  C   UNL d   1      26.364 -17.246  -0.187  0.00  0.00     0.003 C 
ATOM     12  C   UNL d   1      25.201 -17.930   0.163  0.00  0.00     0.024 C 
ATOM     13  C   UNL d   1      24.028 -17.701  -0.555  0.00  0.00     0.035 C 
ATOM     14 CL   UNL d   1      22.607 -18.584  -0.144  0.00  0.00    -0.084 Cl
ATOM     15  C   UNL d   1      24.011 -16.795  -1.621  0.00  0.00     0.041 C 
ENDBRANCH   6   9
ENDBRANCH   3   5
BRANCH   2  16
ATOM     16  C   UNL d   1      26.928 -12.172  -3.634  0.00  0.00     0.233 C 
BRANCH  16  17
ATOM     17  N   UNL d   1      27.768 -13.360  -3.425  0.00  0.00    -0.347 N 
ATOM     18  C   UNL d   1      28.187 -13.773  -2.178  0.00  0.00     0.092 A 
ATOM     19  C   UNL d   1      28.991 -14.879  -2.332  0.00  0.00     0.031 A 
ATOM     20  C   UNL d   1      29.090 -15.149  -3.719  0.00  0.00    -0.008 A 
ATOM     21  C   UNL d   1      29.760 -16.148  -4.456  0.00  0.00     0.014 A 
ATOM     22  C   UNL d   1      28.335 -14.179  -4.393  0.00  0.00     0.044 A 
ATOM     23  C   UNL d   1      29.656 -16.166  -5.849  0.00  0.00     0.001 A 
ATOM     24  C   UNL d   1      28.904 -15.199  -6.506  0.00  0.00     0.002 A 
ATOM     25  C   UNL d   1      28.240 -14.188  -5.796  0.00  0.00     0.030 A 
ENDBRANCH  16  17
ENDBRANCH   2  16
TORSDOF 4
ENDMDL
MODEL 5
REMARK VINA RESULT:    -7.241      5.099      7.136
REMARK INTER + INTRA:          -9.730
REMARK INTER:                  -8.434
REMARK INTRA:                  -1.296
REMARK CONF_INDEPENDENT:        1.193
REMARK UNBOUND:                -1.296
REMARK  4 active torsions:
REMARK  status: ('A' for Active; 'I' for Inactive)
REMARK    1  A    between atoms: C_2  and  C_3 
REMARK       I    between atoms: C_2  and  N_13 
REMARK    2  A    between atoms: C_3  and  N_4 
REMARK    3  A    between atoms: N_13  and  N_14 
REMARK       I    between atoms: N_14  and  C_15 
REMARK    4  A    between atoms: C_15  and  C_17 
ROOT
ATOM      1  O   UNL d   1      26.547 -13.667  -1.880  0.00  0.00    -0.270 OA
ATOM      2  C   UNL d   1      27.099 -14.123  -0.878  0.00  0.00     0.254 C 
ATOM      3  N   UNL d   1      27.078 -13.363   0.277  0.00  0.00    -0.266 N 
ATOM      4  H   UNL d   1      26.609 -12.455   0.213  0.00  0.00     0.190 HD
ENDROOT
BRANCH   3   5
ATOM      5  N   UNL d   1      27.623 -13.696   1.534  0.00  0.00    -0.263 N 
ATOM      6  C   UNL d   1      27.287 -12.902   2.633  0.00  0.00     0.270 C 
ATOM      7  O   UNL d   1      26.577 -11.899   2.555  0.00  0.00    -0.266 OA
ATOM      8  H   UNL d   1      28.079 -14.593   1.658  0.00  0.00     0.190 HD
BRANCH   6   9
ATOM      9  C   UNL d   1      27.806 -13.350   3.961  0.00  0.00     0.035 C 
ATOM     10  C   UNL d   1      28.076 -14.703   4.202  0.00  0.00     0.017 C 
ATOM     11  C   UNL d   1      28.526 -15.120   5.461  0.00  0.00     0.003 C 
ATOM     12  C   UNL d   1      28.607 -14.207   6.511  0.00  0.00     0.024 C 
ATOM     13  C   UNL d   1      28.364 -12.856   6.265  0.00  0.00     0.035 C 
ATOM     14 CL   UNL d   1      28.422 -11.741   7.577  0.00  0.00    -0.084 Cl
ATOM     15  C   UNL d   1      28.038 -12.413   4.978  0.00  0.00     0.041 C 
ENDBRANCH   6   9
ENDBRANCH   3   5
BRANCH   2  16
ATOM     16  C   UNL d   1      27.790 -15.476  -0.848  0.00  0.00     0.233 C 
BRANCH  16  17
ATOM     17  N   UNL d   1      26.993 -16.588  -0.310  0.00  0.00    -0.347 N 
ATOM     18  C   UNL d   1      27.544 -17.626   0.412  0.00  0.00     0.092 A 
ATOM     19  C   UNL d   1      26.545 -18.517   0.726  0.00  0.00     0.031 A 
ATOM     20  C   UNL d   1      25.339 -18.028   0.165  0.00  0.00    -0.008 A 
ATOM     21  C   UNL d   1      24.013 -18.509   0.173  0.00  0.00     0.014 A 
ATOM     22  C   UNL d   1      25.638 -16.829  -0.497  0.00  0.00     0.044 A 
ATOM     23  C   UNL d   1      23.010 -17.781  -0.471  0.00  0.00     0.001 A 
ATOM     24  C   UNL d   1      23.318 -16.593  -1.123  0.00  0.00     0.002 A 
ATOM     25  C   UNL d   1      24.632 -16.101  -1.156  0.00  0.00     0.030 A 
ENDBRANCH  16  17
ENDBRANCH   2  16
TORSDOF 4
ENDMDL
MODEL 6
REMARK VINA RESULT:    -7.153      2.568      6.238
REMARK INTER + INTRA:          -9.663
REMARK INTER:                  -8.346
REMARK INTRA:                  -1.317
REMARK CONF_INDEPENDENT:        1.193
REMARK UNBOUND:                -1.317
REMARK  4 active torsions:
REMARK  status: ('A' for Active; 'I' for Inactive)
REMARK    1  A    between atoms: C_2  and  C_3 
REMARK       I    between atoms: C_2  and  N_13 
REMARK    2  A    between atoms: C_3  and  N_4 
REMARK    3  A    between atoms: N_13  and  N_14 
REMARK       I    between atoms: N_14  and  C_15 
REMARK    4  A    between atoms: C_15  and  C_17 
ROOT
ATOM      1  O   UNL d   1      24.060 -14.060  -3.824  0.00  0.00    -0.270 OA
ATOM      2  C   UNL d   1      25.176 -14.448  -3.475  0.00  0.00     0.254 C 
ATOM      3  N   UNL d   1      26.008 -14.981  -4.442  0.00  0.00    -0.266 N 
ATOM      4  H   UNL d   1      25.628 -15.029  -5.391  0.00  0.00     0.190 HD
ENDROOT
BRANCH   3   5
ATOM      5  N   UNL d   1      27.323 -15.463  -4.273  0.00  0.00    -0.263 N 
ATOM      6  C   UNL d   1      28.159 -15.514  -5.391  0.00  0.00     0.270 C 
ATOM      7  O   UNL d   1      27.795 -15.204  -6.526  0.00  0.00    -0.266 OA
ATOM      8  H   UNL d   1      27.696 -15.577  -3.337  0.00  0.00     0.190 HD
BRANCH   6   9
ATOM      9  C   UNL d   1      29.572 -15.935  -5.147  0.00  0.00     0.035 C 
ATOM     10  C   UNL d   1      30.614 -15.422  -5.929  0.00  0.00     0.017 C 
ATOM     11  C   UNL d   1      31.931 -15.850  -5.717  0.00  0.00     0.003 C 
ATOM     12  C   UNL d   1      32.197 -16.866  -4.800  0.00  0.00     0.024 C 
ATOM     13  C   UNL d   1      31.164 -17.357  -4.004  0.00  0.00     0.035 C 
ATOM     14 CL   UNL d   1      31.491 -18.644  -2.906  0.00  0.00    -0.084 Cl
ATOM     15  C   UNL d   1      29.868 -16.843  -4.120  0.00  0.00     0.041 C 
ENDBRANCH   6   9
ENDBRANCH   3   5
BRANCH   2  16
ATOM     16  C   UNL d   1      25.682 -14.361  -2.045  0.00  0.00     0.233 C 
BRANCH  16  17
ATOM     17  N   UNL d   1      25.752 -15.635  -1.314  0.00  0.00    -0.347 N 
ATOM     18  C   UNL d   1      26.944 -16.238  -0.970  0.00  0.00     0.092 A 
ATOM     19  C   UNL d   1      26.664 -17.428  -0.341  0.00  0.00     0.031 A 
ATOM     20  C   UNL d   1      25.256 -17.579  -0.311  0.00  0.00    -0.008 A 
ATOM     21  C   UNL d   1      24.409 -18.581   0.207  0.00  0.00     0.014 A 
ATOM     22  C   UNL d   1      24.698 -16.458  -0.941  0.00  0.00     0.044 A 
ATOM     23  C   UNL d   1      23.024 -18.441   0.097  0.00  0.00     0.001 A 
ATOM     24  C   UNL d   1      22.482 -17.324  -0.529  0.00  0.00     0.002 A 
ATOM     25  C   UNL d   1      23.303 -16.321  -1.064  0.00  0.00     0.030 A 
ENDBRANCH  16  17
ENDBRANCH   2  16
TORSDOF 4
ENDMDL
MODEL 7
REMARK VINA RESULT:    -6.831      2.446      3.499
REMARK INTER + INTRA:         -10.132
REMARK INTER:                  -8.025
REMARK INTRA:                  -2.107
REMARK CONF_INDEPENDENT:        1.193
REMARK UNBOUND:                -2.107
REMARK  4 active torsions:
REMARK  status: ('A' for Active; 'I' for Inactive)
REMARK    1  A    between atoms: C_2  and  C_3 
REMARK       I    between atoms: C_2  and  N_13 
REMARK    2  A    between atoms: C_3  and  N_4 
REMARK    3  A    between atoms: N_13  and  N_14 
REMARK       I    between atoms: N_14  and  C_15 
REMARK    4  A    between atoms: C_15  and  C_17 
ROOT
ATOM      1  O   UNL d   1      25.905 -10.608  -4.729  0.00  0.00    -0.270 OA
ATOM      2  C   UNL d   1      25.963 -11.362  -3.757  0.00  0.00     0.254 C 
ATOM      3  N   UNL d   1      25.192 -12.510  -3.781  0.00  0.00    -0.266 N 
ATOM      4  H   UNL d   1      24.609 -12.648  -4.611  0.00  0.00     0.190 HD
ENDROOT
BRANCH   3   5
ATOM      5  N   UNL d   1      25.119 -13.516  -2.795  0.00  0.00    -0.263 N 
ATOM      6  C   UNL d   1      25.194 -14.850  -3.204  0.00  0.00     0.270 C 
ATOM      7  O   UNL d   1      25.274 -15.196  -4.383  0.00  0.00    -0.266 OA
ATOM      8  H   UNL d   1      25.209 -13.264  -1.817  0.00  0.00     0.190 HD
BRANCH   6   9
ATOM      9  C   UNL d   1      25.214 -15.878  -2.119  0.00  0.00     0.035 C 
ATOM     10  C   UNL d   1      26.428 -16.391  -1.645  0.00  0.00     0.017 C 
ATOM     11  C   UNL d   1      26.437 -17.381  -0.654  0.00  0.00     0.003 C 
ATOM     12  C   UNL d   1      25.238 -17.935  -0.210  0.00  0.00     0.024 C 
ATOM     13  C   UNL d   1      24.030 -17.407  -0.662  0.00  0.00     0.035 C 
ATOM     14 CL   UNL d   1      22.553 -18.127  -0.143  0.00  0.00    -0.084 Cl
ATOM     15  C   UNL d   1      24.012 -16.330  -1.556  0.00  0.00     0.041 C 
ENDBRANCH   6   9
ENDBRANCH   3   5
BRANCH   2  16
ATOM     16  C   UNL d   1      26.840 -11.098  -2.545  0.00  0.00     0.233 C 
BRANCH  16  17
ATOM     17  N   UNL d   1      27.601 -12.253  -2.044  0.00  0.00    -0.347 N 
ATOM     18  C   UNL d   1      28.510 -12.945  -2.816  0.00  0.00     0.092 A 
ATOM     19  C   UNL d   1      29.008 -13.989  -2.072  0.00  0.00     0.031 A 
ATOM     20  C   UNL d   1      28.374 -13.955  -0.805  0.00  0.00    -0.008 A 
ATOM     21  C   UNL d   1      28.494 -14.758   0.349  0.00  0.00     0.014 A 
ATOM     22  C   UNL d   1      27.481 -12.875  -0.808  0.00  0.00     0.044 A 
ATOM     23  C   UNL d   1      27.729 -14.462   1.479  0.00  0.00     0.001 A 
ATOM     24  C   UNL d   1      26.848 -13.387   1.464  0.00  0.00     0.002 A 
ATOM     25  C   UNL d   1      26.701 -12.582   0.325  0.00  0.00     0.030 A 
ENDBRANCH  16  17
ENDBRANCH   2  16
TORSDOF 4
ENDMDL
MODEL 8
REMARK VINA RESULT:    -6.831      1.672      2.773
REMARK INTER + INTRA:          -9.756
REMARK INTER:                  -8.024
REMARK INTRA:                  -1.732
REMARK CONF_INDEPENDENT:        1.193
REMARK UNBOUND:                -1.732
REMARK  4 active torsions:
REMARK  status: ('A' for Active; 'I' for Inactive)
REMARK    1  A    between atoms: C_2  and  C_3 
REMARK       I    between atoms: C_2  and  N_13 
REMARK    2  A    between atoms: C_3  and  N_4 
REMARK    3  A    between atoms: N_13  and  N_14 
REMARK       I    between atoms: N_14  and  C_15 
REMARK    4  A    between atoms: C_15  and  C_17 
ROOT
ATOM      1  O   UNL d   1      26.309 -12.020  -5.488  0.00  0.00    -0.270 OA
ATOM      2  C   UNL d   1      26.331 -12.849  -4.577  0.00  0.00     0.254 C 
ATOM      3  N   UNL d   1      25.150 -13.102  -3.904  0.00  0.00    -0.266 N 
ATOM      4  H   UNL d   1      24.332 -12.565  -4.204  0.00  0.00     0.190 HD
ENDROOT
BRANCH   3   5
ATOM      5  N   UNL d   1      24.942 -14.019  -2.853  0.00  0.00    -0.263 N 
ATOM      6  C   UNL d   1      25.186 -15.373  -3.097  0.00  0.00     0.270 C 
ATOM      7  O   UNL d   1      25.529 -15.814  -4.194  0.00  0.00    -0.266 OA
ATOM      8  H   UNL d   1      24.812 -13.675  -1.908  0.00  0.00     0.190 HD
BRANCH   6   9
ATOM      9  C   UNL d   1      25.049 -16.295  -1.928  0.00  0.00     0.035 C 
ATOM     10  C   UNL d   1      26.178 -16.705  -1.207  0.00  0.00     0.017 C 
ATOM     11  C   UNL d   1      26.045 -17.598  -0.137  0.00  0.00     0.003 C 
ATOM     12  C   UNL d   1      24.804 -18.165   0.150  0.00  0.00     0.024 C 
ATOM     13  C   UNL d   1      23.677 -17.738  -0.550  0.00  0.00     0.035 C 
ATOM     14 CL   UNL d   1      22.156 -18.476  -0.222  0.00  0.00    -0.084 Cl
ATOM     15  C   UNL d   1      23.782 -16.750  -1.535  0.00  0.00     0.041 C 
ENDBRANCH   6   9
ENDBRANCH   3   5
BRANCH   2  16
ATOM     16  C   UNL d   1      27.582 -13.608  -4.168  0.00  0.00     0.233 C 
BRANCH  16  17
ATOM     17  N   UNL d   1      27.826 -13.703  -2.721  0.00  0.00    -0.347 N 
ATOM     18  C   UNL d   1      27.480 -12.706  -1.834  0.00  0.00     0.092 A 
ATOM     19  C   UNL d   1      27.884 -13.084  -0.575  0.00  0.00     0.031 A 
ATOM     20  C   UNL d   1      28.518 -14.346  -0.686  0.00  0.00    -0.008 A 
ATOM     21  C   UNL d   1      29.110 -15.208   0.259  0.00  0.00     0.014 A 
ATOM     22  C   UNL d   1      28.492 -14.713  -2.039  0.00  0.00     0.044 A 
ATOM     23  C   UNL d   1      29.655 -16.424  -0.159  0.00  0.00     0.001 A 
ATOM     24  C   UNL d   1      29.621 -16.779  -1.503  0.00  0.00     0.002 A 
ATOM     25  C   UNL d   1      29.051 -15.931  -2.465  0.00  0.00     0.030 A 
ENDBRANCH  16  17
ENDBRANCH   2  16
TORSDOF 4
ENDMDL
MODEL 9
REMARK VINA RESULT:    -6.804      3.580      5.276
REMARK INTER + INTRA:         -10.015
REMARK INTER:                  -7.997
REMARK INTRA:                  -2.018
REMARK CONF_INDEPENDENT:        1.193
REMARK UNBOUND:                -2.018
REMARK  4 active torsions:
REMARK  status: ('A' for Active; 'I' for Inactive)
REMARK    1  A    between atoms: C_2  and  C_3 
REMARK       I    between atoms: C_2  and  N_13 
REMARK    2  A    between atoms: C_3  and  N_4 
REMARK    3  A    between atoms: N_13  and  N_14 
REMARK       I    between atoms: N_14  and  C_15 
REMARK    4  A    between atoms: C_15  and  C_17 
ROOT
ATOM      1  O   UNL d   1      30.973 -17.538  -0.663  0.00  0.00    -0.270 OA
ATOM      2  C   UNL d   1      29.864 -17.150  -1.031  0.00  0.00     0.254 C 
ATOM      3  N   UNL d   1      28.754 -17.848  -0.589  0.00  0.00    -0.266 N 
ATOM      4  H   UNL d   1      28.937 -18.657   0.011  0.00  0.00     0.190 HD
ENDROOT
BRANCH   3   5
ATOM      5  N   UNL d   1      27.400 -17.570  -0.866  0.00  0.00    -0.263 N 
ATOM      6  C   UNL d   1      26.425 -18.149  -0.049  0.00  0.00     0.270 C 
ATOM      7  O   UNL d   1      26.683 -18.925   0.872  0.00  0.00    -0.266 OA
ATOM      8  H   UNL d   1      27.165 -16.823  -1.509  0.00  0.00     0.190 HD
BRANCH   6   9
ATOM      9  C   UNL d   1      25.010 -17.748  -0.316  0.00  0.00     0.035 C 
ATOM     10  C   UNL d   1      24.705 -16.449  -0.741  0.00  0.00     0.017 C 
ATOM     11  C   UNL d   1      23.373 -16.071  -0.953  0.00  0.00     0.003 C 
ATOM     12  C   UNL d   1      22.338 -16.951  -0.640  0.00  0.00     0.024 C 
ATOM     13  C   UNL d   1      22.643 -18.252  -0.242  0.00  0.00     0.035 C 
ATOM     14 CL   UNL d   1      21.360 -19.319   0.187  0.00  0.00    -0.084 Cl
ATOM     15  C   UNL d   1      23.972 -18.677  -0.151  0.00  0.00     0.041 C 
ENDBRANCH   6   9
ENDBRANCH   3   5
BRANCH   2  16
ATOM     16  C   UNL d   1      29.656 -15.946  -1.934  0.00  0.00     0.233 C 
BRANCH  16  17
ATOM     17  N   UNL d   1      28.552 -15.050  -1.559  0.00  0.00    -0.347 N 
ATOM     18  C   UNL d   1      27.729 -14.445  -2.486  0.00  0.00     0.092 A 
ATOM     19  C   UNL d   1      26.837 -13.640  -1.816  0.00  0.00     0.031 A 
ATOM     20  C   UNL d   1      27.128 -13.734  -0.433  0.00  0.00    -0.008 A 
ATOM     21  C   UNL d   1      26.546 -13.148   0.711  0.00  0.00     0.014 A 
ATOM     22  C   UNL d   1      28.216 -14.605  -0.287  0.00  0.00     0.044 A 
ATOM     23  C   UNL d   1      27.053 -13.449   1.977  0.00  0.00     0.001 A 
ATOM     24  C   UNL d   1      28.133 -14.316   2.108  0.00  0.00     0.002 A 
ATOM     25  C   UNL d   1      28.737 -14.900   0.985  0.00  0.00     0.030 A 
ENDBRANCH  16  17
ENDBRANCH   2  16
TORSDOF 4
ENDMDL
