MODEL 1
REMARK VINA RESULT:   -10.140      0.000      0.000
REMARK INTER + INTRA:         -15.380
REMARK INTER:                 -13.421
REMARK INTRA:                  -1.959
REMARK CONF_INDEPENDENT:        3.281
REMARK UNBOUND:                -1.959
REMARK  11 active torsions:
REMARK  status: ('A' for Active; 'I' for Inactive)
REMARK    1  A    between atoms: C_2  and  C_3 
REMARK    2  A    between atoms: C_3  and  N_4 
REMARK    3  A    between atoms: N_4  and  C_5 
REMARK       I    between atoms: N_4  and  C_8 
REMARK    4  A    between atoms: C_5  and  C_6 
REMARK    5  A    between atoms: C_8  and  C_10 
REMARK    6  A    between atoms: C_13  and  N_14 
REMARK       I    between atoms: N_14  and  C_15 
REMARK    7  A    between atoms: C_15  and  C_17 
REMARK    8  A    between atoms: C_17  and  N_18 
REMARK    9  A    between atoms: N_18  and  C_19 
REMARK   10  A    between atoms: C_24  and  C_25 
REMARK       I    between atoms: C_25  and  N_27 
REMARK   11  A    between atoms: N_27  and  C_28 
ROOT
ATOM      1  C   UNL d   1      24.731 -13.819  -4.221  0.00  0.00     0.223 C 
ENDROOT
BRANCH   1   2
ATOM      2  C   UNL d   1      25.832 -14.696  -4.831  0.00  0.00     0.239 C 
ATOM      3  N   UNL d   1      27.141 -14.203  -4.766  0.00  0.00    -0.326 N 
ATOM      4  H   UNL d   1      27.302 -13.288  -4.360  0.00  0.00     0.169 HD
ATOM      5  O   UNL d   1      25.487 -15.757  -5.359  0.00  0.00    -0.271 OA
BRANCH   3   6
ATOM      6  C   UNL d   1      28.272 -14.870  -5.321  0.00  0.00     0.034 A 
ATOM      7  C   UNL d   1      28.960 -15.878  -4.624  0.00  0.00     0.030 A 
ATOM      8  C   UNL d   1      30.159 -16.432  -5.151  0.00  0.00     0.019 A 
ATOM      9  C   UNL d   1      30.626 -16.050  -6.419  0.00  0.00     0.032 A 
ATOM     10  C   UNL d   1      29.851 -15.163  -7.145  0.00  0.00     0.019 A 
ATOM     11  C   UNL d   1      28.741 -14.548  -6.587  0.00  0.00     0.030 A 
BRANCH   9  12
ATOM     12  C   UNL d   1      31.828 -16.677  -7.060  0.00  0.00     0.253 C 
ATOM     13  N   UNL d   1      31.917 -18.094  -7.216  0.00  0.00    -0.348 N 
ATOM     14  O   UNL d   1      32.725 -15.912  -7.414  0.00  0.00    -0.267 OA
BRANCH  13  15
ATOM     15  C   UNL d   1      33.204 -18.578  -7.822  0.00  0.00     0.125 C 
BRANCH  15  16
ATOM     16  C   UNL d   1      33.109 -19.484  -9.038  0.00  0.00     0.015 C 
ATOM     17  C   UNL d   1      31.859 -19.629  -9.849  0.00  0.00     0.006 C 
ENDBRANCH  15  16
ENDBRANCH  13  15
BRANCH  13  18
ATOM     18  C   UNL d   1      30.757 -18.977  -6.886  0.00  0.00     0.125 C 
BRANCH  18  19
ATOM     19  C   UNL d   1      30.986 -20.414  -6.480  0.00  0.00     0.015 C 
ATOM     20  C   UNL d   1      30.754 -20.827  -5.060  0.00  0.00     0.006 C 
ENDBRANCH  18  19
ENDBRANCH  13  18
ENDBRANCH   9  12
ENDBRANCH   3   6
ENDBRANCH   1   2
BRANCH   1  21
ATOM     21  N   UNL d   1      24.842 -13.881  -2.758  0.00  0.00    -0.381 N 
ATOM     22  H   UNL d   1      25.022 -12.979  -2.305  0.00  0.00     0.160 HD
BRANCH  21  23
ATOM     23  C   UNL d   1      25.082 -15.018  -2.024  0.00  0.00     0.029 A 
ATOM     24  C   UNL d   1      26.339 -15.202  -1.447  0.00  0.00     0.031 A 
ATOM     25  C   UNL d   1      26.615 -16.340  -0.689  0.00  0.00     0.027 A 
ATOM     26  C   UNL d   1      25.622 -17.297  -0.453  0.00  0.00     0.049 A 
ATOM     27 CL   UNL d   1      26.084 -18.575   0.619  0.00  0.00    -0.083 Cl
ATOM     28  C   UNL d   1      24.352 -17.153  -1.043  0.00  0.00     0.055 A 
ATOM     29  C   UNL d   1      24.107 -15.994  -1.807  0.00  0.00     0.048 A 
BRANCH  28  30
ATOM     30  C   UNL d   1      23.294 -18.216  -0.910  0.00  0.00     0.253 C 
ATOM     31  O   UNL d   1      23.290 -19.196  -1.632  0.00  0.00    -0.268 OA
ATOM     32  N   UNL d   1      22.292 -18.046   0.045  0.00  0.00    -0.352 N 
ATOM     33  H   UNL d   1      22.312 -17.303   0.722  0.00  0.00     0.163 HD
BRANCH  32  34
ATOM     34  C   UNL d   1      21.297 -19.093   0.240  0.00  0.00     0.084 C 
ATOM     35  C   UNL d   1      20.796 -19.093   1.689  0.00  0.00     0.025 C 
ATOM     36  C   UNL d   1      19.759 -20.189   1.916  0.00  0.00     0.002 C 
ATOM     37  C   UNL d   1      18.601 -20.078   0.928  0.00  0.00     0.000 C 
ATOM     38  C   UNL d   1      19.106 -20.072  -0.513  0.00  0.00     0.002 C 
ATOM     39  C   UNL d   1      20.130 -18.959  -0.742  0.00  0.00     0.025 C 
ENDBRANCH  32  34
ENDBRANCH  28  30
ENDBRANCH  21  23
ENDBRANCH   1  21
TORSDOF 11
ENDMDL
MODEL 2
REMARK VINA RESULT:    -9.895      0.764      1.105
REMARK INTER + INTRA:         -14.891
REMARK INTER:                 -13.177
REMARK INTRA:                  -1.714
REMARK CONF_INDEPENDENT:        3.281
REMARK UNBOUND:                -1.714
REMARK  11 active torsions:
REMARK  status: ('A' for Active; 'I' for Inactive)
REMARK    1  A    between atoms: C_2  and  C_3 
REMARK    2  A    between atoms: C_3  and  N_4 
REMARK    3  A    between atoms: N_4  and  C_5 
REMARK       I    between atoms: N_4  and  C_8 
REMARK    4  A    between atoms: C_5  and  C_6 
REMARK    5  A    between atoms: C_8  and  C_10 
REMARK    6  A    between atoms: C_13  and  N_14 
REMARK       I    between atoms: N_14  and  C_15 
REMARK    7  A    between atoms: C_15  and  C_17 
REMARK    8  A    between atoms: C_17  and  N_18 
REMARK    9  A    between atoms: N_18  and  C_19 
REMARK   10  A    between atoms: C_24  and  C_25 
REMARK       I    between atoms: C_25  and  N_27 
REMARK   11  A    between atoms: N_27  and  C_28 
ROOT
ATOM      1  C   UNL d   1      25.864 -13.615  -4.093  0.00  0.00     0.223 C 
ENDROOT
BRANCH   1   2
ATOM      2  C   UNL d   1      26.853 -14.538  -4.819  0.00  0.00     0.239 C 
ATOM      3  N   UNL d   1      28.201 -14.163  -4.793  0.00  0.00    -0.326 N 
ATOM      4  H   UNL d   1      28.462 -13.296  -4.337  0.00  0.00     0.169 HD
ATOM      5  O   UNL d   1      26.390 -15.526  -5.395  0.00  0.00    -0.271 OA
BRANCH   3   6
ATOM      6  C   UNL d   1      29.240 -14.883  -5.451  0.00  0.00     0.034 A 
ATOM      7  C   UNL d   1      29.897 -14.377  -6.586  0.00  0.00     0.030 A 
ATOM      8  C   UNL d   1      30.838 -15.176  -7.292  0.00  0.00     0.019 A 
ATOM      9  C   UNL d   1      31.196 -16.448  -6.818  0.00  0.00     0.032 A 
ATOM     10  C   UNL d   1      30.642 -16.862  -5.620  0.00  0.00     0.019 A 
ATOM     11  C   UNL d   1      29.649 -16.127  -4.989  0.00  0.00     0.030 A 
BRANCH   9  12
ATOM     12  C   UNL d   1      32.254 -17.287  -7.471  0.00  0.00     0.253 C 
ATOM     13  N   UNL d   1      32.034 -18.676  -7.721  0.00  0.00    -0.348 N 
ATOM     14  O   UNL d   1      33.311 -16.720  -7.749  0.00  0.00    -0.267 OA
BRANCH  13  15
ATOM     15  C   UNL d   1      33.205 -19.397  -8.325  0.00  0.00     0.125 C 
BRANCH  15  16
ATOM     16  C   UNL d   1      32.931 -20.720  -9.020  0.00  0.00     0.015 C 
ATOM     17  C   UNL d   1      31.882 -20.882 -10.076  0.00  0.00     0.006 C 
ENDBRANCH  15  16
ENDBRANCH  13  15
BRANCH  13  18
ATOM     18  C   UNL d   1      30.695 -19.296  -7.481  0.00  0.00     0.125 C 
BRANCH  18  19
ATOM     19  C   UNL d   1      30.545 -20.416  -6.477  0.00  0.00     0.015 C 
ATOM     20  C   UNL d   1      30.393 -20.091  -5.025  0.00  0.00     0.006 C 
ENDBRANCH  18  19
ENDBRANCH  13  18
ENDBRANCH   9  12
ENDBRANCH   3   6
ENDBRANCH   1   2
BRANCH   1  21
ATOM     21  N   UNL d   1      24.894 -14.449  -3.370  0.00  0.00    -0.381 N 
ATOM     22  H   UNL d   1      23.928 -14.106  -3.403  0.00  0.00     0.160 HD
BRANCH  21  23
ATOM     23  C   UNL d   1      25.203 -15.380  -2.408  0.00  0.00     0.029 A 
ATOM     24  C   UNL d   1      26.459 -15.339  -1.801  0.00  0.00     0.031 A 
ATOM     25  C   UNL d   1      26.804 -16.264  -0.816  0.00  0.00     0.027 A 
ATOM     26  C   UNL d   1      25.880 -17.221  -0.382  0.00  0.00     0.049 A 
ATOM     27 CL   UNL d   1      26.415 -18.200   0.942  0.00  0.00    -0.083 Cl
ATOM     28  C   UNL d   1      24.615 -17.304  -0.992  0.00  0.00     0.055 A 
ATOM     29  C   UNL d   1      24.299 -16.359  -1.988  0.00  0.00     0.048 A 
BRANCH  28  30
ATOM     30  C   UNL d   1      23.636 -18.392  -0.637  0.00  0.00     0.253 C 
ATOM     31  O   UNL d   1      23.995 -19.548  -0.512  0.00  0.00    -0.268 OA
ATOM     32  N   UNL d   1      22.292 -18.055  -0.477  0.00  0.00    -0.352 N 
ATOM     33  H   UNL d   1      21.970 -17.102  -0.478  0.00  0.00     0.163 HD
BRANCH  32  34
ATOM     34  C   UNL d   1      21.337 -19.076  -0.065  0.00  0.00     0.084 C 
ATOM     35  C   UNL d   1      21.030 -18.950   1.431  0.00  0.00     0.025 C 
ATOM     36  C   UNL d   1      20.038 -20.018   1.885  0.00  0.00     0.002 C 
ATOM     37  C   UNL d   1      18.760 -19.983   1.051  0.00  0.00     0.000 C 
ATOM     38  C   UNL d   1      19.070 -20.101  -0.438  0.00  0.00     0.002 C 
ATOM     39  C   UNL d   1      20.050 -19.017  -0.894  0.00  0.00     0.025 C 
ENDBRANCH  32  34
ENDBRANCH  28  30
ENDBRANCH  21  23
ENDBRANCH   1  21
TORSDOF 11
ENDMDL
MODEL 3
REMARK VINA RESULT:    -9.437      1.394      2.249
REMARK INTER + INTRA:         -14.839
REMARK INTER:                 -12.719
REMARK INTRA:                  -2.121
REMARK CONF_INDEPENDENT:        3.281
REMARK UNBOUND:                -2.121
REMARK  11 active torsions:
REMARK  status: ('A' for Active; 'I' for Inactive)
REMARK    1  A    between atoms: C_2  and  C_3 
REMARK    2  A    between atoms: C_3  and  N_4 
REMARK    3  A    between atoms: N_4  and  C_5 
REMARK       I    between atoms: N_4  and  C_8 
REMARK    4  A    between atoms: C_5  and  C_6 
REMARK    5  A    between atoms: C_8  and  C_10 
REMARK    6  A    between atoms: C_13  and  N_14 
REMARK       I    between atoms: N_14  and  C_15 
REMARK    7  A    between atoms: C_15  and  C_17 
REMARK    8  A    between atoms: C_17  and  N_18 
REMARK    9  A    between atoms: N_18  and  C_19 
REMARK   10  A    between atoms: C_24  and  C_25 
REMARK       I    between atoms: C_25  and  N_27 
REMARK   11  A    between atoms: N_27  and  C_28 
ROOT
ATOM      1  C   UNL d   1      25.499 -13.789  -4.578  0.00  0.00     0.223 C 
ENDROOT
BRANCH   1   2
ATOM      2  C   UNL d   1      26.511 -14.922  -4.801  0.00  0.00     0.239 C 
ATOM      3  N   UNL d   1      27.802 -14.723  -4.297  0.00  0.00    -0.326 N 
ATOM      4  H   UNL d   1      28.024 -13.843  -3.846  0.00  0.00     0.169 HD
ATOM      5  O   UNL d   1      26.126 -15.911  -5.430  0.00  0.00    -0.271 OA
BRANCH   3   6
ATOM      6  C   UNL d   1      28.870 -15.654  -4.455  0.00  0.00     0.034 A 
ATOM      7  C   UNL d   1      29.611 -15.745  -5.645  0.00  0.00     0.030 A 
ATOM      8  C   UNL d   1      30.582 -16.770  -5.814  0.00  0.00     0.019 A 
ATOM      9  C   UNL d   1      30.884 -17.652  -4.764  0.00  0.00     0.032 A 
ATOM     10  C   UNL d   1      30.242 -17.447  -3.555  0.00  0.00     0.019 A 
ATOM     11  C   UNL d   1      29.223 -16.516  -3.425  0.00  0.00     0.030 A 
BRANCH   9  12
ATOM     12  C   UNL d   1      31.968 -18.683  -4.859  0.00  0.00     0.253 C 
ATOM     13  N   UNL d   1      31.781 -19.870  -5.631  0.00  0.00    -0.348 N 
ATOM     14  O   UNL d   1      32.997 -18.460  -4.223  0.00  0.00    -0.267 OA
BRANCH  13  15
ATOM     15  C   UNL d   1      32.930 -20.837  -5.583  0.00  0.00     0.125 C 
BRANCH  15  16
ATOM     16  C   UNL d   1      32.704 -22.160  -4.871  0.00  0.00     0.015 C 
ATOM     17  C   UNL d   1      33.588 -22.649  -3.765  0.00  0.00     0.006 C 
ENDBRANCH  15  16
ENDBRANCH  13  15
BRANCH  13  18
ATOM     18  C   UNL d   1      30.567 -20.047  -6.485  0.00  0.00     0.125 C 
BRANCH  18  19
ATOM     19  C   UNL d   1      30.694 -20.080  -7.991  0.00  0.00     0.015 C 
ATOM     20  C   UNL d   1      31.250 -18.892  -8.712  0.00  0.00     0.006 C 
ENDBRANCH  18  19
ENDBRANCH  13  18
ENDBRANCH   9  12
ENDBRANCH   3   6
ENDBRANCH   1   2
BRANCH   1  21
ATOM     21  N   UNL d   1      24.983 -13.890  -3.206  0.00  0.00    -0.381 N 
ATOM     22  H   UNL d   1      24.690 -12.997  -2.794  0.00  0.00     0.160 HD
BRANCH  21  23
ATOM     23  C   UNL d   1      25.190 -14.945  -2.350  0.00  0.00     0.029 A 
ATOM     24  C   UNL d   1      26.407 -15.045  -1.678  0.00  0.00     0.031 A 
ATOM     25  C   UNL d   1      26.650 -16.099  -0.796  0.00  0.00     0.027 A 
ATOM     26  C   UNL d   1      25.658 -17.050  -0.534  0.00  0.00     0.049 A 
ATOM     27 CL   UNL d   1      26.067 -18.208   0.687  0.00  0.00    -0.083 Cl
ATOM     28  C   UNL d   1      24.428 -16.991  -1.215  0.00  0.00     0.055 A 
ATOM     29  C   UNL d   1      24.217 -15.917  -2.103  0.00  0.00     0.048 A 
BRANCH  28  30
ATOM     30  C   UNL d   1      23.380 -18.059  -1.050  0.00  0.00     0.253 C 
ATOM     31  O   UNL d   1      23.296 -18.988  -1.832  0.00  0.00    -0.268 OA
ATOM     32  N   UNL d   1      22.481 -17.953   0.011  0.00  0.00    -0.352 N 
ATOM     33  H   UNL d   1      22.574 -17.258   0.731  0.00  0.00     0.163 HD
BRANCH  32  34
ATOM     34  C   UNL d   1      21.502 -19.010   0.234  0.00  0.00     0.084 C 
ATOM     35  C   UNL d   1      20.967 -18.950   1.670  0.00  0.00     0.025 C 
ATOM     36  C   UNL d   1      19.946 -20.055   1.926  0.00  0.00     0.002 C 
ATOM     37  C   UNL d   1      18.810 -20.015   0.908  0.00  0.00     0.000 C 
ATOM     38  C   UNL d   1      19.348 -20.067  -0.519  0.00  0.00     0.002 C 
ATOM     39  C   UNL d   1      20.356 -18.946  -0.779  0.00  0.00     0.025 C 
ENDBRANCH  32  34
ENDBRANCH  28  30
ENDBRANCH  21  23
ENDBRANCH   1  21
TORSDOF 11
ENDMDL
MODEL 4
REMARK VINA RESULT:    -9.225      1.109      1.878
REMARK INTER + INTRA:         -14.360
REMARK INTER:                 -12.506
REMARK INTRA:                  -1.854
REMARK CONF_INDEPENDENT:        3.281
REMARK UNBOUND:                -1.854
REMARK  11 active torsions:
REMARK  status: ('A' for Active; 'I' for Inactive)
REMARK    1  A    between atoms: C_2  and  C_3 
REMARK    2  A    between atoms: C_3  and  N_4 
REMARK    3  A    between atoms: N_4  and  C_5 
REMARK       I    between atoms: N_4  and  C_8 
REMARK    4  A    between atoms: C_5  and  C_6 
REMARK    5  A    between atoms: C_8  and  C_10 
REMARK    6  A    between atoms: C_13  and  N_14 
REMARK       I    between atoms: N_14  and  C_15 
REMARK    7  A    between atoms: C_15  and  C_17 
REMARK    8  A    between atoms: C_17  and  N_18 
REMARK    9  A    between atoms: N_18  and  C_19 
REMARK   10  A    between atoms: C_24  and  C_25 
REMARK       I    between atoms: C_25  and  N_27 
REMARK   11  A    between atoms: N_27  and  C_28 
ROOT
ATOM      1  C   UNL d   1      25.825 -13.410  -3.904  0.00  0.00     0.223 C 
ENDROOT
BRANCH   1   2
ATOM      2  C   UNL d   1      26.607 -14.515  -4.626  0.00  0.00     0.239 C 
ATOM      3  N   UNL d   1      27.987 -14.566  -4.393  0.00  0.00    -0.326 N 
ATOM      4  H   UNL d   1      28.412 -13.865  -3.798  0.00  0.00     0.169 HD
ATOM      5  O   UNL d   1      25.975 -15.260  -5.379  0.00  0.00    -0.271 OA
BRANCH   3   6
ATOM      6  C   UNL d   1      28.865 -15.501  -5.016  0.00  0.00     0.034 A 
ATOM      7  C   UNL d   1      29.261 -15.374  -6.358  0.00  0.00     0.030 A 
ATOM      8  C   UNL d   1      30.032 -16.392  -6.983  0.00  0.00     0.019 A 
ATOM      9  C   UNL d   1      30.490 -17.497  -6.248  0.00  0.00     0.032 A 
ATOM     10  C   UNL d   1      30.208 -17.523  -4.894  0.00  0.00     0.019 A 
ATOM     11  C   UNL d   1      29.370 -16.585  -4.310  0.00  0.00     0.030 A 
BRANCH   9  12
ATOM     12  C   UNL d   1      31.388 -18.544  -6.835  0.00  0.00     0.253 C 
ATOM     13  N   UNL d   1      32.398 -18.193  -7.782  0.00  0.00    -0.348 N 
ATOM     14  O   UNL d   1      31.188 -19.704  -6.477  0.00  0.00    -0.267 OA
BRANCH  13  15
ATOM     15  C   UNL d   1      33.179 -19.355  -8.327  0.00  0.00     0.125 C 
BRANCH  15  16
ATOM     16  C   UNL d   1      32.533 -20.180  -9.428  0.00  0.00     0.015 C 
ATOM     17  C   UNL d   1      31.170 -19.884  -9.973  0.00  0.00     0.006 C 
ENDBRANCH  15  16
ENDBRANCH  13  15
BRANCH  13  18
ATOM     18  C   UNL d   1      32.689 -16.761  -8.098  0.00  0.00     0.125 C 
BRANCH  18  19
ATOM     19  C   UNL d   1      33.634 -15.966  -7.226  0.00  0.00     0.015 C 
ATOM     20  C   UNL d   1      33.499 -16.034  -5.737  0.00  0.00     0.006 C 
ENDBRANCH  18  19
ENDBRANCH  13  18
ENDBRANCH   9  12
ENDBRANCH   3   6
ENDBRANCH   1   2
BRANCH   1  21
ATOM     21  N   UNL d   1      24.854 -14.041  -3.000  0.00  0.00    -0.381 N 
ATOM     22  H   UNL d   1      24.052 -13.450  -2.754  0.00  0.00     0.160 HD
BRANCH  21  23
ATOM     23  C   UNL d   1      25.096 -15.140  -2.211  0.00  0.00     0.029 A 
ATOM     24  C   UNL d   1      26.357 -15.301  -1.637  0.00  0.00     0.031 A 
ATOM     25  C   UNL d   1      26.636 -16.400  -0.826  0.00  0.00     0.027 A 
ATOM     26  C   UNL d   1      25.641 -17.339  -0.532  0.00  0.00     0.049 A 
ATOM     27 CL   UNL d   1      26.108 -18.563   0.600  0.00  0.00    -0.083 Cl
ATOM     28  C   UNL d   1      24.366 -17.219  -1.115  0.00  0.00     0.055 A 
ATOM     29  C   UNL d   1      24.118 -16.099  -1.935  0.00  0.00     0.048 A 
BRANCH  28  30
ATOM     30  C   UNL d   1      23.304 -18.268  -0.919  0.00  0.00     0.253 C 
ATOM     31  O   UNL d   1      23.281 -19.277  -1.599  0.00  0.00    -0.268 OA
ATOM     32  N   UNL d   1      22.322 -18.052   0.047  0.00  0.00    -0.352 N 
ATOM     33  H   UNL d   1      22.359 -17.282   0.692  0.00  0.00     0.163 HD
BRANCH  32  34
ATOM     34  C   UNL d   1      21.325 -19.084   0.305  0.00  0.00     0.084 C 
ATOM     35  C   UNL d   1      20.833 -19.004   1.754  0.00  0.00     0.025 C 
ATOM     36  C   UNL d   1      19.794 -20.083   2.046  0.00  0.00     0.002 C 
ATOM     37  C   UNL d   1      18.630 -20.020   1.061  0.00  0.00     0.000 C 
ATOM     38  C   UNL d   1      19.125 -20.093  -0.381  0.00  0.00     0.002 C 
ATOM     39  C   UNL d   1      20.151 -18.997  -0.676  0.00  0.00     0.025 C 
ENDBRANCH  32  34
ENDBRANCH  28  30
ENDBRANCH  21  23
ENDBRANCH   1  21
TORSDOF 11
ENDMDL
MODEL 5
REMARK VINA RESULT:    -8.998      1.228      1.913
REMARK INTER + INTRA:         -14.296
REMARK INTER:                 -12.279
REMARK INTRA:                  -2.017
REMARK CONF_INDEPENDENT:        3.281
REMARK UNBOUND:                -2.017
REMARK  11 active torsions:
REMARK  status: ('A' for Active; 'I' for Inactive)
REMARK    1  A    between atoms: C_2  and  C_3 
REMARK    2  A    between atoms: C_3  and  N_4 
REMARK    3  A    between atoms: N_4  and  C_5 
REMARK       I    between atoms: N_4  and  C_8 
REMARK    4  A    between atoms: C_5  and  C_6 
REMARK    5  A    between atoms: C_8  and  C_10 
REMARK    6  A    between atoms: C_13  and  N_14 
REMARK       I    between atoms: N_14  and  C_15 
REMARK    7  A    between atoms: C_15  and  C_17 
REMARK    8  A    between atoms: C_17  and  N_18 
REMARK    9  A    between atoms: N_18  and  C_19 
REMARK   10  A    between atoms: C_24  and  C_25 
REMARK       I    between atoms: C_25  and  N_27 
REMARK   11  A    between atoms: N_27  and  C_28 
ROOT
ATOM      1  C   UNL d   1      24.906 -13.716  -4.216  0.00  0.00     0.223 C 
ENDROOT
BRANCH   1   2
ATOM      2  C   UNL d   1      25.930 -14.681  -4.831  0.00  0.00     0.239 C 
ATOM      3  N   UNL d   1      27.276 -14.304  -4.756  0.00  0.00    -0.326 N 
ATOM      4  H   UNL d   1      27.515 -13.411  -4.339  0.00  0.00     0.169 HD
ATOM      5  O   UNL d   1      25.495 -15.701  -5.372  0.00  0.00    -0.271 OA
BRANCH   3   6
ATOM      6  C   UNL d   1      28.347 -15.062  -5.313  0.00  0.00     0.034 A 
ATOM      7  C   UNL d   1      29.006 -16.069  -4.587  0.00  0.00     0.030 A 
ATOM      8  C   UNL d   1      30.152 -16.716  -5.126  0.00  0.00     0.019 A 
ATOM      9  C   UNL d   1      30.590 -16.428  -6.428  0.00  0.00     0.032 A 
ATOM     10  C   UNL d   1      29.836 -15.539  -7.174  0.00  0.00     0.019 A 
ATOM     11  C   UNL d   1      28.783 -14.834  -6.611  0.00  0.00     0.030 A 
BRANCH   9  12
ATOM     12  C   UNL d   1      31.730 -17.154  -7.078  0.00  0.00     0.253 C 
ATOM     13  N   UNL d   1      32.726 -16.442  -7.814  0.00  0.00    -0.348 N 
ATOM     14  O   UNL d   1      31.741 -18.379  -6.960  0.00  0.00    -0.267 OA
BRANCH  13  15
ATOM     15  C   UNL d   1      33.771 -17.309  -8.455  0.00  0.00     0.125 C 
BRANCH  15  16
ATOM     16  C   UNL d   1      33.343 -18.167  -9.635  0.00  0.00     0.015 C 
ATOM     17  C   UNL d   1      34.242 -19.182 -10.270  0.00  0.00     0.006 C 
ENDBRANCH  15  16
ENDBRANCH  13  15
BRANCH  13  18
ATOM     18  C   UNL d   1      32.745 -14.947  -7.830  0.00  0.00     0.125 C 
BRANCH  18  19
ATOM     19  C   UNL d   1      33.344 -14.182  -6.673  0.00  0.00     0.015 C 
ATOM     20  C   UNL d   1      33.542 -14.866  -5.357  0.00  0.00     0.006 C 
ENDBRANCH  18  19
ENDBRANCH  13  18
ENDBRANCH   9  12
ENDBRANCH   3   6
ENDBRANCH   1   2
BRANCH   1  21
ATOM     21  N   UNL d   1      25.002 -13.807  -2.753  0.00  0.00    -0.381 N 
ATOM     22  H   UNL d   1      25.180 -12.914  -2.281  0.00  0.00     0.160 HD
BRANCH  21  23
ATOM     23  C   UNL d   1      25.230 -14.958  -2.038  0.00  0.00     0.029 A 
ATOM     24  C   UNL d   1      26.491 -15.175  -1.483  0.00  0.00     0.031 A 
ATOM     25  C   UNL d   1      26.756 -16.328  -0.746  0.00  0.00     0.027 A 
ATOM     26  C   UNL d   1      25.748 -17.269  -0.507  0.00  0.00     0.049 A 
ATOM     27 CL   UNL d   1      26.200 -18.570   0.541  0.00  0.00    -0.083 Cl
ATOM     28  C   UNL d   1      24.472 -17.092  -1.074  0.00  0.00     0.055 A 
ATOM     29  C   UNL d   1      24.238 -15.918  -1.819  0.00  0.00     0.048 A 
BRANCH  28  30
ATOM     30  C   UNL d   1      23.395 -18.135  -0.940  0.00  0.00     0.253 C 
ATOM     31  O   UNL d   1      23.309 -19.058  -1.728  0.00  0.00    -0.268 OA
ATOM     32  N   UNL d   1      22.472 -18.012   0.099  0.00  0.00    -0.352 N 
ATOM     33  H   UNL d   1      22.564 -17.322   0.824  0.00  0.00     0.163 HD
BRANCH  32  34
ATOM     34  C   UNL d   1      21.463 -19.046   0.292  0.00  0.00     0.084 C 
ATOM     35  C   UNL d   1      20.893 -18.979   1.714  0.00  0.00     0.025 C 
ATOM     36  C   UNL d   1      19.840 -20.061   1.939  0.00  0.00     0.002 C 
ATOM     37  C   UNL d   1      18.732 -19.989   0.893  0.00  0.00     0.000 C 
ATOM     38  C   UNL d   1      19.304 -20.048  -0.521  0.00  0.00     0.002 C 
ATOM     39  C   UNL d   1      20.344 -18.950  -0.750  0.00  0.00     0.025 C 
ENDBRANCH  32  34
ENDBRANCH  28  30
ENDBRANCH  21  23
ENDBRANCH   1  21
TORSDOF 11
ENDMDL
MODEL 6
REMARK VINA RESULT:    -8.636      4.758      8.409
REMARK INTER + INTRA:         -14.135
REMARK INTER:                 -11.917
REMARK INTRA:                  -2.218
REMARK CONF_INDEPENDENT:        3.281
REMARK UNBOUND:                -2.218
REMARK  11 active torsions:
REMARK  status: ('A' for Active; 'I' for Inactive)
REMARK    1  A    between atoms: C_2  and  C_3 
REMARK    2  A    between atoms: C_3  and  N_4 
REMARK    3  A    between atoms: N_4  and  C_5 
REMARK       I    between atoms: N_4  and  C_8 
REMARK    4  A    between atoms: C_5  and  C_6 
REMARK    5  A    between atoms: C_8  and  C_10 
REMARK    6  A    between atoms: C_13  and  N_14 
REMARK       I    between atoms: N_14  and  C_15 
REMARK    7  A    between atoms: C_15  and  C_17 
REMARK    8  A    between atoms: C_17  and  N_18 
REMARK    9  A    between atoms: N_18  and  C_19 
REMARK   10  A    between atoms: C_24  and  C_25 
REMARK       I    between atoms: C_25  and  N_27 
REMARK   11  A    between atoms: N_27  and  C_28 
ROOT
ATOM      1  C   UNL d   1      26.427 -12.826  -4.122  0.00  0.00     0.223 C 
ENDROOT
BRANCH   1   2
ATOM      2  C   UNL d   1      26.496 -12.172  -2.735  0.00  0.00     0.239 C 
ATOM      3  N   UNL d   1      27.135 -12.901  -1.725  0.00  0.00    -0.326 N 
ATOM      4  H   UNL d   1      27.488 -13.827  -1.935  0.00  0.00     0.169 HD
ATOM      5  O   UNL d   1      25.961 -11.068  -2.600  0.00  0.00    -0.271 OA
BRANCH   3   6
ATOM      6  C   UNL d   1      27.248 -12.458  -0.374  0.00  0.00     0.034 A 
ATOM      7  C   UNL d   1      26.663 -13.161   0.693  0.00  0.00     0.030 A 
ATOM      8  C   UNL d   1      26.686 -12.624   2.010  0.00  0.00     0.019 A 
ATOM      9  C   UNL d   1      27.372 -11.430   2.284  0.00  0.00     0.032 A 
ATOM     10  C   UNL d   1      28.061 -10.836   1.242  0.00  0.00     0.019 A 
ATOM     11  C   UNL d   1      27.951 -11.304  -0.059  0.00  0.00     0.030 A 
BRANCH   9  12
ATOM     12  C   UNL d   1      27.509 -10.876   3.671  0.00  0.00     0.253 C 
ATOM     13  N   UNL d   1      28.487 -11.397   4.572  0.00  0.00    -0.348 N 
ATOM     14  O   UNL d   1      26.726  -9.981   3.986  0.00  0.00    -0.267 OA
BRANCH  13  15
ATOM     15  C   UNL d   1      28.466 -10.784   5.943  0.00  0.00     0.125 C 
BRANCH  15  16
ATOM     16  C   UNL d   1      29.005 -11.619   7.094  0.00  0.00     0.015 C 
ATOM     17  C   UNL d   1      28.155 -12.572   7.874  0.00  0.00     0.006 C 
ENDBRANCH  15  16
ENDBRANCH  13  15
BRANCH  13  18
ATOM     18  C   UNL d   1      29.498 -12.398   4.113  0.00  0.00     0.125 C 
BRANCH  18  19
ATOM     19  C   UNL d   1      29.171 -13.873   4.131  0.00  0.00     0.015 C 
ATOM     20  C   UNL d   1      28.155 -14.393   5.099  0.00  0.00     0.006 C 
ENDBRANCH  18  19
ENDBRANCH  13  18
ENDBRANCH   9  12
ENDBRANCH   3   6
ENDBRANCH   1   2
BRANCH   1  21
ATOM     21  N   UNL d   1      25.492 -13.957  -4.057  0.00  0.00    -0.381 N 
ATOM     22  H   UNL d   1      24.630 -13.829  -4.599  0.00  0.00     0.160 HD
BRANCH  21  23
ATOM     23  C   UNL d   1      25.501 -14.946  -3.104  0.00  0.00     0.029 A 
ATOM     24  C   UNL d   1      26.700 -15.594  -2.807  0.00  0.00     0.031 A 
ATOM     25  C   UNL d   1      26.748 -16.598  -1.841  0.00  0.00     0.027 A 
ATOM     26  C   UNL d   1      25.602 -16.943  -1.115  0.00  0.00     0.049 A 
ATOM     27 CL   UNL d   1      25.861 -18.105   0.142  0.00  0.00    -0.083 Cl
ATOM     28  C   UNL d   1      24.371 -16.327  -1.409  0.00  0.00     0.055 A 
ATOM     29  C   UNL d   1      24.356 -15.320  -2.395  0.00  0.00     0.048 A 
BRANCH  28  30
ATOM     30  C   UNL d   1      23.094 -16.751  -0.734  0.00  0.00     0.253 C 
ATOM     31  O   UNL d   1      22.595 -16.082   0.151  0.00  0.00    -0.268 OA
ATOM     32  N   UNL d   1      22.498 -17.950  -1.127  0.00  0.00    -0.352 N 
ATOM     33  H   UNL d   1      22.823 -18.482  -1.915  0.00  0.00     0.163 HD
BRANCH  32  34
ATOM     34  C   UNL d   1      21.225 -18.347  -0.539  0.00  0.00     0.084 C 
ATOM     35  C   UNL d   1      20.490 -19.324  -1.464  0.00  0.00     0.025 C 
ATOM     36  C   UNL d   1      19.149 -19.746  -0.869  0.00  0.00     0.002 C 
ATOM     37  C   UNL d   1      19.316 -20.327   0.532  0.00  0.00     0.000 C 
ATOM     38  C   UNL d   1      20.055 -19.355   1.447  0.00  0.00     0.002 C 
ATOM     39  C   UNL d   1      21.407 -18.949   0.858  0.00  0.00     0.025 C 
ENDBRANCH  32  34
ENDBRANCH  28  30
ENDBRANCH  21  23
ENDBRANCH   1  21
TORSDOF 11
ENDMDL
MODEL 7
REMARK VINA RESULT:    -7.902      5.520      9.334
REMARK INTER + INTRA:         -13.655
REMARK INTER:                 -11.184
REMARK INTRA:                  -2.471
REMARK CONF_INDEPENDENT:        3.281
REMARK UNBOUND:                -2.471
REMARK  11 active torsions:
REMARK  status: ('A' for Active; 'I' for Inactive)
REMARK    1  A    between atoms: C_2  and  C_3 
REMARK    2  A    between atoms: C_3  and  N_4 
REMARK    3  A    between atoms: N_4  and  C_5 
REMARK       I    between atoms: N_4  and  C_8 
REMARK    4  A    between atoms: C_5  and  C_6 
REMARK    5  A    between atoms: C_8  and  C_10 
REMARK    6  A    between atoms: C_13  and  N_14 
REMARK       I    between atoms: N_14  and  C_15 
REMARK    7  A    between atoms: C_15  and  C_17 
REMARK    8  A    between atoms: C_17  and  N_18 
REMARK    9  A    between atoms: N_18  and  C_19 
REMARK   10  A    between atoms: C_24  and  C_25 
REMARK       I    between atoms: C_25  and  N_27 
REMARK   11  A    between atoms: N_27  and  C_28 
ROOT
ATOM      1  C   UNL d   1      26.217  -8.117  -1.937  0.00  0.00     0.223 C 
ENDROOT
BRANCH   1   2
ATOM      2  C   UNL d   1      26.285  -8.826  -0.578  0.00  0.00     0.239 C 
ATOM      3  N   UNL d   1      27.029 -10.011  -0.520  0.00  0.00    -0.326 N 
ATOM      4  H   UNL d   1      27.455 -10.366  -1.368  0.00  0.00     0.169 HD
ATOM      5  O   UNL d   1      25.659  -8.321   0.358  0.00  0.00    -0.271 OA
BRANCH   3   6
ATOM      6  C   UNL d   1      27.159 -10.813   0.651  0.00  0.00     0.034 A 
ATOM      7  C   UNL d   1      27.328 -10.249   1.927  0.00  0.00     0.030 A 
ATOM      8  C   UNL d   1      27.584 -11.077   3.055  0.00  0.00     0.019 A 
ATOM      9  C   UNL d   1      27.579 -12.475   2.931  0.00  0.00     0.032 A 
ATOM     10  C   UNL d   1      27.266 -13.006   1.693  0.00  0.00     0.019 A 
ATOM     11  C   UNL d   1      27.120 -12.198   0.575  0.00  0.00     0.030 A 
BRANCH   9  12
ATOM     12  C   UNL d   1      27.744 -13.392   4.107  0.00  0.00     0.253 C 
ATOM     13  N   UNL d   1      29.036 -13.646   4.660  0.00  0.00    -0.348 N 
ATOM     14  O   UNL d   1      26.720 -13.920   4.540  0.00  0.00    -0.267 OA
BRANCH  13  15
ATOM     15  C   UNL d   1      29.050 -14.629   5.795  0.00  0.00     0.125 C 
BRANCH  15  16
ATOM     16  C   UNL d   1      28.905 -14.077   7.204  0.00  0.00     0.015 C 
ATOM     17  C   UNL d   1      29.071 -12.625   7.529  0.00  0.00     0.006 C 
ENDBRANCH  15  16
ENDBRANCH  13  15
BRANCH  13  18
ATOM     18  C   UNL d   1      30.236 -12.891   4.185  0.00  0.00     0.125 C 
BRANCH  18  19
ATOM     19  C   UNL d   1      30.967 -13.333   2.938  0.00  0.00     0.015 C 
ATOM     20  C   UNL d   1      31.353 -14.770   2.777  0.00  0.00     0.006 C 
ENDBRANCH  18  19
ENDBRANCH  13  18
ENDBRANCH   9  12
ENDBRANCH   3   6
ENDBRANCH   1   2
BRANCH   1  21
ATOM     21  N   UNL d   1      25.433  -8.951  -2.858  0.00  0.00    -0.381 N 
ATOM     22  H   UNL d   1      24.416  -8.845  -2.771  0.00  0.00     0.160 HD
BRANCH  21  23
ATOM     23  C   UNL d   1      25.898 -10.060  -3.524  0.00  0.00     0.029 A 
ATOM     24  C   UNL d   1      26.762  -9.890  -4.605  0.00  0.00     0.031 A 
ATOM     25  C   UNL d   1      27.260 -10.993  -5.300  0.00  0.00     0.027 A 
ATOM     26  C   UNL d   1      26.940 -12.293  -4.895  0.00  0.00     0.049 A 
ATOM     27 CL   UNL d   1      27.749 -13.548  -5.772  0.00  0.00    -0.083 Cl
ATOM     28  C   UNL d   1      26.050 -12.498  -3.823  0.00  0.00     0.055 A 
ATOM     29  C   UNL d   1      25.561 -11.362  -3.146  0.00  0.00     0.048 A 
BRANCH  28  30
ATOM     30  C   UNL d   1      25.588 -13.876  -3.430  0.00  0.00     0.253 C 
ATOM     31  O   UNL d   1      24.780 -14.486  -4.105  0.00  0.00    -0.268 OA
ATOM     32  N   UNL d   1      26.088 -14.438  -2.255  0.00  0.00    -0.352 N 
ATOM     33  H   UNL d   1      26.825 -14.009  -1.723  0.00  0.00     0.163 HD
BRANCH  32  34
ATOM     34  C   UNL d   1      25.710 -15.797  -1.890  0.00  0.00     0.084 C 
ATOM     35  C   UNL d   1      26.505 -16.263  -0.664  0.00  0.00     0.025 C 
ATOM     36  C   UNL d   1      26.130 -17.689  -0.271  0.00  0.00     0.002 C 
ATOM     37  C   UNL d   1      24.627 -17.831  -0.045  0.00  0.00     0.000 C 
ATOM     38  C   UNL d   1      23.841 -17.359  -1.265  0.00  0.00     0.002 C 
ATOM     39  C   UNL d   1      24.204 -15.922  -1.644  0.00  0.00     0.025 C 
ENDBRANCH  32  34
ENDBRANCH  28  30
ENDBRANCH  21  23
ENDBRANCH   1  21
TORSDOF 11
ENDMDL
MODEL 8
REMARK VINA RESULT:    -7.703      4.696      8.211
REMARK INTER + INTRA:         -13.917
REMARK INTER:                 -10.984
REMARK INTRA:                  -2.932
REMARK CONF_INDEPENDENT:        3.281
REMARK UNBOUND:                -2.932
REMARK  11 active torsions:
REMARK  status: ('A' for Active; 'I' for Inactive)
REMARK    1  A    between atoms: C_2  and  C_3 
REMARK    2  A    between atoms: C_3  and  N_4 
REMARK    3  A    between atoms: N_4  and  C_5 
REMARK       I    between atoms: N_4  and  C_8 
REMARK    4  A    between atoms: C_5  and  C_6 
REMARK    5  A    between atoms: C_8  and  C_10 
REMARK    6  A    between atoms: C_13  and  N_14 
REMARK       I    between atoms: N_14  and  C_15 
REMARK    7  A    between atoms: C_15  and  C_17 
REMARK    8  A    between atoms: C_17  and  N_18 
REMARK    9  A    between atoms: N_18  and  C_19 
REMARK   10  A    between atoms: C_24  and  C_25 
REMARK       I    between atoms: C_25  and  N_27 
REMARK   11  A    between atoms: N_27  and  C_28 
ROOT
ATOM      1  C   UNL d   1      25.962  -9.224  -4.831  0.00  0.00     0.223 C 
ENDROOT
BRANCH   1   2
ATOM      2  C   UNL d   1      25.986  -9.651  -3.357  0.00  0.00     0.239 C 
ATOM      3  N   UNL d   1      26.925 -10.625  -2.998  0.00  0.00    -0.326 N 
ATOM      4  H   UNL d   1      27.516 -11.028  -3.716  0.00  0.00     0.169 HD
ATOM      5  O   UNL d   1      25.161  -9.130  -2.601  0.00  0.00    -0.271 OA
BRANCH   3   6
ATOM      6  C   UNL d   1      27.051 -11.163  -1.683  0.00  0.00     0.034 A 
ATOM      7  C   UNL d   1      26.656 -12.475  -1.372  0.00  0.00     0.030 A 
ATOM      8  C   UNL d   1      26.674 -12.935  -0.026  0.00  0.00     0.019 A 
ATOM      9  C   UNL d   1      27.175 -12.120   1.001  0.00  0.00     0.032 A 
ATOM     10  C   UNL d   1      27.693 -10.888   0.645  0.00  0.00     0.019 A 
ATOM     11  C   UNL d   1      27.578 -10.401  -0.649  0.00  0.00     0.030 A 
BRANCH   9  12
ATOM     12  C   UNL d   1      27.309 -12.595   2.418  0.00  0.00     0.253 C 
ATOM     13  N   UNL d   1      27.713 -13.935   2.704  0.00  0.00    -0.348 N 
ATOM     14  O   UNL d   1      27.031 -11.782   3.299  0.00  0.00    -0.267 OA
BRANCH  13  15
ATOM     15  C   UNL d   1      27.745 -14.281   4.165  0.00  0.00     0.125 C 
BRANCH  15  16
ATOM     16  C   UNL d   1      29.048 -14.824   4.729  0.00  0.00     0.015 C 
ATOM     17  C   UNL d   1      29.570 -14.445   6.080  0.00  0.00     0.006 C 
ENDBRANCH  15  16
ENDBRANCH  13  15
BRANCH  13  18
ATOM     18  C   UNL d   1      28.160 -14.852   1.611  0.00  0.00     0.125 C 
BRANCH  18  19
ATOM     19  C   UNL d   1      29.444 -14.576   0.864  0.00  0.00     0.015 C 
ATOM     20  C   UNL d   1      29.578 -15.008  -0.563  0.00  0.00     0.006 C 
ENDBRANCH  18  19
ENDBRANCH  13  18
ENDBRANCH   9  12
ENDBRANCH   3   6
ENDBRANCH   1   2
BRANCH   1  21
ATOM     21  N   UNL d   1      25.614 -10.394  -5.649  0.00  0.00    -0.381 N 
ATOM     22  H   UNL d   1      24.650 -10.398  -5.999  0.00  0.00     0.160 HD
BRANCH  21  23
ATOM     23  C   UNL d   1      26.303 -11.582  -5.676  0.00  0.00     0.029 A 
ATOM     24  C   UNL d   1      27.476 -11.671  -6.426  0.00  0.00     0.031 A 
ATOM     25  C   UNL d   1      28.205 -12.859  -6.472  0.00  0.00     0.027 A 
ATOM     26  C   UNL d   1      27.799 -13.972  -5.727  0.00  0.00     0.049 A 
ATOM     27 CL   UNL d   1      28.887 -15.318  -5.781  0.00  0.00    -0.083 Cl
ATOM     28  C   UNL d   1      26.607 -13.923  -4.981  0.00  0.00     0.055 A 
ATOM     29  C   UNL d   1      25.891 -12.709  -4.960  0.00  0.00     0.048 A 
BRANCH  28  30
ATOM     30  C   UNL d   1      26.074 -15.133  -4.261  0.00  0.00     0.253 C 
ATOM     31  O   UNL d   1      25.530 -16.038  -4.865  0.00  0.00    -0.268 OA
ATOM     32  N   UNL d   1      26.193 -15.190  -2.872  0.00  0.00    -0.352 N 
ATOM     33  H   UNL d   1      26.717 -14.512  -2.347  0.00  0.00     0.163 HD
BRANCH  32  34
ATOM     34  C   UNL d   1      25.749 -16.381  -2.159  0.00  0.00     0.084 C 
ATOM     35  C   UNL d   1      26.710 -16.707  -1.010  0.00  0.00     0.025 C 
ATOM     36  C   UNL d   1      26.266 -17.957  -0.256  0.00  0.00     0.002 C 
ATOM     37  C   UNL d   1      24.829 -17.830   0.242  0.00  0.00     0.000 C 
ATOM     38  C   UNL d   1      23.877 -17.498  -0.904  0.00  0.00     0.002 C 
ATOM     39  C   UNL d   1      24.313 -16.233  -1.645  0.00  0.00     0.025 C 
ENDBRANCH  32  34
ENDBRANCH  28  30
ENDBRANCH  21  23
ENDBRANCH   1  21
TORSDOF 11
ENDMDL
MODEL 9
REMARK VINA RESULT:    -7.355      3.685      7.779
REMARK INTER + INTRA:         -14.254
REMARK INTER:                 -10.637
REMARK INTRA:                  -3.618
REMARK CONF_INDEPENDENT:        3.281
REMARK UNBOUND:                -3.618
REMARK  11 active torsions:
REMARK  status: ('A' for Active; 'I' for Inactive)
REMARK    1  A    between atoms: C_2  and  C_3 
REMARK    2  A    between atoms: C_3  and  N_4 
REMARK    3  A    between atoms: N_4  and  C_5 
REMARK       I    between atoms: N_4  and  C_8 
REMARK    4  A    between atoms: C_5  and  C_6 
REMARK    5  A    between atoms: C_8  and  C_10 
REMARK    6  A    between atoms: C_13  and  N_14 
REMARK       I    between atoms: N_14  and  C_15 
REMARK    7  A    between atoms: C_15  and  C_17 
REMARK    8  A    between atoms: C_17  and  N_18 
REMARK    9  A    between atoms: N_18  and  C_19 
REMARK   10  A    between atoms: C_24  and  C_25 
REMARK       I    between atoms: C_25  and  N_27 
REMARK   11  A    between atoms: N_27  and  C_28 
ROOT
ATOM      1  C   UNL d   1      30.403 -16.327  -6.431  0.00  0.00     0.223 C 
ENDROOT
BRANCH   1   2
ATOM      2  C   UNL d   1      30.658 -15.867  -4.989  0.00  0.00     0.239 C 
ATOM      3  N   UNL d   1      29.824 -16.401  -3.999  0.00  0.00    -0.326 N 
ATOM      4  H   UNL d   1      29.077 -17.029  -4.272  0.00  0.00     0.169 HD
ATOM      5  O   UNL d   1      31.557 -15.041  -4.807  0.00  0.00    -0.271 OA
BRANCH   3   6
ATOM      6  C   UNL d   1      29.899 -16.048  -2.620  0.00  0.00     0.034 A 
ATOM      7  C   UNL d   1      29.996 -17.016  -1.606  0.00  0.00     0.030 A 
ATOM      8  C   UNL d   1      29.938 -16.635  -0.237  0.00  0.00     0.019 A 
ATOM      9  C   UNL d   1      29.877 -15.281   0.128  0.00  0.00     0.032 A 
ATOM     10  C   UNL d   1      29.928 -14.343  -0.888  0.00  0.00     0.019 A 
ATOM     11  C   UNL d   1      29.880 -14.718  -2.222  0.00  0.00     0.030 A 
BRANCH   9  12
ATOM     12  C   UNL d   1      29.915 -14.825   1.556  0.00  0.00     0.253 C 
ATOM     13  N   UNL d   1      28.736 -14.338   2.199  0.00  0.00    -0.348 N 
ATOM     14  O   UNL d   1      31.008 -14.872   2.120  0.00  0.00    -0.267 OA
BRANCH  13  15
ATOM     15  C   UNL d   1      28.942 -13.863   3.609  0.00  0.00     0.125 C 
BRANCH  15  16
ATOM     16  C   UNL d   1      28.530 -14.800   4.732  0.00  0.00     0.015 C 
ATOM     17  C   UNL d   1      28.743 -14.478   6.179  0.00  0.00     0.006 C 
ENDBRANCH  15  16
ENDBRANCH  13  15
BRANCH  13  18
ATOM     18  C   UNL d   1      27.406 -14.411   1.520  0.00  0.00     0.125 C 
BRANCH  18  19
ATOM     19  C   UNL d   1      26.817 -13.183   0.866  0.00  0.00     0.015 C 
ATOM     20  C   UNL d   1      26.656 -13.143  -0.621  0.00  0.00     0.006 C 
ENDBRANCH  18  19
ENDBRANCH  13  18
ENDBRANCH   9  12
ENDBRANCH   3   6
ENDBRANCH   1   2
BRANCH   1  21
ATOM     21  N   UNL d   1      29.274 -15.558  -6.972  0.00  0.00    -0.381 N 
ATOM     22  H   UNL d   1      29.289 -15.437  -7.991  0.00  0.00     0.160 HD
BRANCH  21  23
ATOM     23  C   UNL d   1      28.454 -14.727  -6.247  0.00  0.00     0.029 A 
ATOM     24  C   UNL d   1      28.467 -13.358  -6.515  0.00  0.00     0.031 A 
ATOM     25  C   UNL d   1      27.644 -12.485  -5.804  0.00  0.00     0.027 A 
ATOM     26  C   UNL d   1      26.753 -12.972  -4.841  0.00  0.00     0.049 A 
ATOM     27 CL   UNL d   1      25.704 -11.779  -4.152  0.00  0.00    -0.083 Cl
ATOM     28  C   UNL d   1      26.734 -14.344  -4.530  0.00  0.00     0.055 A 
ATOM     29  C   UNL d   1      27.583 -15.199  -5.263  0.00  0.00     0.048 A 
BRANCH  28  30
ATOM     30  C   UNL d   1      25.876 -14.892  -3.421  0.00  0.00     0.253 C 
ATOM     31  O   UNL d   1      24.689 -14.630  -3.353  0.00  0.00    -0.268 OA
ATOM     32  N   UNL d   1      26.474 -15.693  -2.447  0.00  0.00    -0.352 N 
ATOM     33  H   UNL d   1      27.425 -16.009  -2.518  0.00  0.00     0.163 HD
BRANCH  32  34
ATOM     34  C   UNL d   1      25.652 -16.292  -1.403  0.00  0.00     0.084 C 
ATOM     35  C   UNL d   1      24.467 -17.044  -2.020  0.00  0.00     0.025 C 
ATOM     36  C   UNL d   1      23.589 -17.672  -0.941  0.00  0.00     0.002 C 
ATOM     37  C   UNL d   1      24.399 -18.575  -0.016  0.00  0.00     0.000 C 
ATOM     38  C   UNL d   1      25.581 -17.825   0.590  0.00  0.00     0.002 C 
ATOM     39  C   UNL d   1      26.471 -17.214  -0.494  0.00  0.00     0.025 C 
ENDBRANCH  32  34
ENDBRANCH  28  30
ENDBRANCH  21  23
ENDBRANCH   1  21
TORSDOF 11
ENDMDL
