MODEL 1
REMARK VINA RESULT:    -8.529      0.000      0.000
REMARK INTER + INTRA:         -13.768
REMARK INTER:                 -12.109
REMARK INTRA:                  -1.659
REMARK CONF_INDEPENDENT:        3.580
REMARK UNBOUND:                -1.659
REMARK  12 active torsions:
REMARK  status: ('A' for Active; 'I' for Inactive)
REMARK    1  A    between atoms: C_2  and  C_3 
REMARK    2  A    between atoms: C_3  and  C_4 
REMARK    3  A    between atoms: C_4  and  C_5 
REMARK    4  A    between atoms: C_5  and  C_6 
REMARK    5  A    between atoms: C_6  and  O_7 
REMARK    6  A    between atoms: O_7  and  C_8 
REMARK    7  A    between atoms: C_13  and  C_14 
REMARK       I    between atoms: C_14  and  N_16 
REMARK    8  A    between atoms: N_16  and  C_17 
REMARK    9  A    between atoms: C_17  and  N_19 
REMARK   10  A    between atoms: N_19  and  C_20 
REMARK   11  A    between atoms: C_23  and  N_24 
REMARK   12  A    between atoms: C_28  and  O_29 
ROOT
ATOM      1  C   UNL d   1      25.952 -15.031  -2.233  0.00  0.00     0.260 C 
ATOM      2  O   UNL d   1      25.132 -15.163  -3.156  0.00  0.00    -0.267 OA
ATOM      3  N   UNL d   1      26.797 -13.910  -2.105  0.00  0.00    -0.299 N 
ATOM      4  H   UNL d   1      27.482 -13.961  -1.361  0.00  0.00     0.171 HD
ENDROOT
BRANCH   3   5
ATOM      5  C   UNL d   1      26.653 -12.691  -2.814  0.00  0.00     0.179 C 
ATOM      6  S   UNL d   1      25.540 -12.511  -4.074  0.00  0.00    -0.040 SA
BRANCH   5   7
ATOM      7  N   UNL d   1      27.542 -11.663  -2.417  0.00  0.00    -0.331 N 
ATOM      8  H   UNL d   1      28.259 -11.350  -3.058  0.00  0.00     0.168 HD
BRANCH   7   9
ATOM      9  C   UNL d   1      27.400 -10.843  -1.235  0.00  0.00     0.068 C 
ATOM     10  C   UNL d   1      27.284  -9.449  -1.363  0.00  0.00     0.035 C 
ATOM     11  C   UNL d   1      26.998  -8.646  -0.239  0.00  0.00     0.038 C 
ATOM     12  C   UNL d   1      26.759  -9.250   1.005  0.00  0.00     0.105 C 
ATOM     13  C   UNL d   1      26.972 -10.616   1.172  0.00  0.00     0.075 C 
ATOM     14  C   UNL d   1      27.369 -11.372   0.069  0.00  0.00     0.094 C 
BRANCH  12  15
ATOM     15  N   UNL d   1      26.267  -8.456   2.138  0.00  0.00    -0.116 N 
ATOM     16  O   UNL d   1      25.531  -7.491   1.891  0.00  0.00    -0.532 OA
ATOM     17  O   UNL d   1      26.599  -8.812   3.278  0.00  0.00    -0.532 OA
ENDBRANCH  12  15
BRANCH  14  18
ATOM     18  O   UNL d   1      27.840 -12.635   0.315  0.00  0.00    -0.358 OA
ATOM     19  H   UNL d   1      28.503 -12.567   1.025  0.00  0.00     0.217 HD
ENDBRANCH  14  18
ENDBRANCH   7   9
ENDBRANCH   5   7
ENDBRANCH   3   5
BRANCH   1  20
ATOM     20  C   UNL d   1      25.949 -16.168  -1.258  0.00  0.00     0.065 A 
ATOM     21  C   UNL d   1      27.231 -16.618  -0.839  0.00  0.00     0.020 A 
ATOM     22  C   UNL d   1      27.403 -17.626   0.110  0.00  0.00     0.001 A 
ATOM     23  C   UNL d   1      26.285 -18.216   0.672  0.00  0.00     0.003 A 
ATOM     24  C   UNL d   1      25.011 -17.853   0.212  0.00  0.00     0.038 A 
ATOM     25  C   UNL d   1      24.833 -16.845  -0.763  0.00  0.00     0.084 A 
BRANCH  25  26
ATOM     26  O   UNL d   1      23.538 -16.522  -1.038  0.00  0.00    -0.350 OA
BRANCH  26  27
ATOM     27  C   UNL d   1      22.538 -17.052  -0.163  0.00  0.00     0.175 C 
BRANCH  27  28
ATOM     28  C   UNL d   1      21.975 -18.258  -0.910  0.00  0.00     0.027 C 
BRANCH  28  29
ATOM     29  C   UNL d   1      21.434 -19.298   0.053  0.00  0.00     0.002 C 
BRANCH  29  30
ATOM     30  C   UNL d   1      20.199 -19.974  -0.522  0.00  0.00    -0.000 C 
BRANCH  30  31
ATOM     31  C   UNL d   1      19.078 -19.990   0.508  0.00  0.00    -0.005 C 
ATOM     32  C   UNL d   1      19.644 -20.056   1.911  0.00  0.00     0.005 C 
ENDBRANCH  30  31
ENDBRANCH  29  30
ENDBRANCH  28  29
ENDBRANCH  27  28
ENDBRANCH  26  27
ENDBRANCH  25  26
ENDBRANCH   1  20
TORSDOF 12
ENDMDL
MODEL 2
REMARK VINA RESULT:    -8.007      2.821      3.373
REMARK INTER + INTRA:         -13.854
REMARK INTER:                 -11.586
REMARK INTRA:                  -2.268
REMARK CONF_INDEPENDENT:        3.580
REMARK UNBOUND:                -2.268
REMARK  12 active torsions:
REMARK  status: ('A' for Active; 'I' for Inactive)
REMARK    1  A    between atoms: C_2  and  C_3 
REMARK    2  A    between atoms: C_3  and  C_4 
REMARK    3  A    between atoms: C_4  and  C_5 
REMARK    4  A    between atoms: C_5  and  C_6 
REMARK    5  A    between atoms: C_6  and  O_7 
REMARK    6  A    between atoms: O_7  and  C_8 
REMARK    7  A    between atoms: C_13  and  C_14 
REMARK       I    between atoms: C_14  and  N_16 
REMARK    8  A    between atoms: N_16  and  C_17 
REMARK    9  A    between atoms: C_17  and  N_19 
REMARK   10  A    between atoms: N_19  and  C_20 
REMARK   11  A    between atoms: C_23  and  N_24 
REMARK   12  A    between atoms: C_28  and  O_29 
ROOT
ATOM      1  C   UNL d   1      25.586 -15.621  -2.965  0.00  0.00     0.260 C 
ATOM      2  O   UNL d   1      24.550 -14.936  -2.975  0.00  0.00    -0.267 OA
ATOM      3  N   UNL d   1      26.550 -15.579  -3.993  0.00  0.00    -0.299 N 
ATOM      4  H   UNL d   1      27.305 -16.248  -3.913  0.00  0.00     0.171 HD
ENDROOT
BRANCH   3   5
ATOM      5  C   UNL d   1      26.622 -14.591  -5.008  0.00  0.00     0.179 C 
ATOM      6  S   UNL d   1      27.867 -14.569  -6.151  0.00  0.00    -0.040 SA
BRANCH   5   7
ATOM      7  N   UNL d   1      25.604 -13.609  -4.956  0.00  0.00    -0.331 N 
ATOM      8  H   UNL d   1      24.635 -13.897  -4.946  0.00  0.00     0.168 HD
BRANCH   7   9
ATOM      9  C   UNL d   1      25.811 -12.201  -4.697  0.00  0.00     0.068 C 
ATOM     10  C   UNL d   1      25.898 -11.300  -5.771  0.00  0.00     0.035 C 
ATOM     11  C   UNL d   1      25.953  -9.910  -5.539  0.00  0.00     0.038 C 
ATOM     12  C   UNL d   1      25.849  -9.419  -4.229  0.00  0.00     0.105 C 
ATOM     13  C   UNL d   1      25.868 -10.297  -3.149  0.00  0.00     0.075 C 
ATOM     14  C   UNL d   1      25.933 -11.667  -3.401  0.00  0.00     0.094 C 
BRANCH  12  15
ATOM     15  N   UNL d   1      25.704  -7.978  -3.981  0.00  0.00    -0.116 N 
ATOM     16  O   UNL d   1      25.598  -7.602  -2.806  0.00  0.00    -0.532 OA
ATOM     17  O   UNL d   1      25.719  -7.220  -4.963  0.00  0.00    -0.532 OA
ENDBRANCH  12  15
BRANCH  14  18
ATOM     18  O   UNL d   1      26.232 -12.483  -2.341  0.00  0.00    -0.358 OA
ATOM     19  H   UNL d   1      25.603 -13.228  -2.358  0.00  0.00     0.217 HD
ENDBRANCH  14  18
ENDBRANCH   7   9
ENDBRANCH   5   7
ENDBRANCH   3   5
BRANCH   1  20
ATOM     20  C   UNL d   1      25.724 -16.486  -1.750  0.00  0.00     0.065 A 
ATOM     21  C   UNL d   1      27.050 -16.640  -1.258  0.00  0.00     0.020 A 
ATOM     22  C   UNL d   1      27.344 -17.363  -0.102  0.00  0.00     0.001 A 
ATOM     23  C   UNL d   1      26.310 -17.955   0.601  0.00  0.00     0.003 A 
ATOM     24  C   UNL d   1      25.007 -17.893   0.090  0.00  0.00     0.038 A 
ATOM     25  C   UNL d   1      24.706 -17.177  -1.092  0.00  0.00     0.084 A 
BRANCH  25  26
ATOM     26  O   UNL d   1      23.384 -17.113  -1.415  0.00  0.00    -0.350 OA
BRANCH  26  27
ATOM     27  C   UNL d   1      22.458 -17.653  -0.467  0.00  0.00     0.175 C 
BRANCH  27  28
ATOM     28  C   UNL d   1      21.939 -18.929  -1.124  0.00  0.00     0.027 C 
BRANCH  28  29
ATOM     29  C   UNL d   1      20.495 -19.197  -0.742  0.00  0.00     0.002 C 
BRANCH  29  30
ATOM     30  C   UNL d   1      20.418 -19.948   0.578  0.00  0.00    -0.000 C 
BRANCH  30  31
ATOM     31  C   UNL d   1      18.987 -19.957   1.098  0.00  0.00    -0.005 C 
ATOM     32  C   UNL d   1      18.258 -21.200   0.633  0.00  0.00     0.005 C 
ENDBRANCH  30  31
ENDBRANCH  29  30
ENDBRANCH  28  29
ENDBRANCH  27  28
ENDBRANCH  26  27
ENDBRANCH  25  26
ENDBRANCH   1  20
TORSDOF 12
ENDMDL
MODEL 3
REMARK VINA RESULT:    -7.218      2.377      3.492
REMARK INTER + INTRA:         -13.727
REMARK INTER:                 -10.797
REMARK INTRA:                  -2.930
REMARK CONF_INDEPENDENT:        3.580
REMARK UNBOUND:                -2.930
REMARK  12 active torsions:
REMARK  status: ('A' for Active; 'I' for Inactive)
REMARK    1  A    between atoms: C_2  and  C_3 
REMARK    2  A    between atoms: C_3  and  C_4 
REMARK    3  A    between atoms: C_4  and  C_5 
REMARK    4  A    between atoms: C_5  and  C_6 
REMARK    5  A    between atoms: C_6  and  O_7 
REMARK    6  A    between atoms: O_7  and  C_8 
REMARK    7  A    between atoms: C_13  and  C_14 
REMARK       I    between atoms: C_14  and  N_16 
REMARK    8  A    between atoms: N_16  and  C_17 
REMARK    9  A    between atoms: C_17  and  N_19 
REMARK   10  A    between atoms: N_19  and  C_20 
REMARK   11  A    between atoms: C_23  and  N_24 
REMARK   12  A    between atoms: C_28  and  O_29 
ROOT
ATOM      1  C   UNL d   1      27.615 -14.149  -0.280  0.00  0.00     0.260 C 
ATOM      2  O   UNL d   1      28.534 -13.385  -0.618  0.00  0.00    -0.267 OA
ATOM      3  N   UNL d   1      27.330 -14.467   1.064  0.00  0.00    -0.299 N 
ATOM      4  H   UNL d   1      26.614 -15.169   1.205  0.00  0.00     0.171 HD
ENDROOT
BRANCH   3   5
ATOM      5  C   UNL d   1      27.841 -13.780   2.194  0.00  0.00     0.179 C 
ATOM      6  S   UNL d   1      27.784 -14.443   3.748  0.00  0.00    -0.040 SA
BRANCH   5   7
ATOM      7  N   UNL d   1      28.352 -12.488   1.925  0.00  0.00    -0.331 N 
ATOM      8  H   UNL d   1      29.268 -12.392   1.507  0.00  0.00     0.168 HD
BRANCH   7   9
ATOM      9  C   UNL d   1      27.595 -11.258   1.992  0.00  0.00     0.068 C 
ATOM     10  C   UNL d   1      27.127 -10.794   3.233  0.00  0.00     0.035 C 
ATOM     11  C   UNL d   1      26.517  -9.527   3.342  0.00  0.00     0.038 C 
ATOM     12  C   UNL d   1      26.439  -8.693   2.217  0.00  0.00     0.105 C 
ATOM     13  C   UNL d   1      26.801  -9.176   0.962  0.00  0.00     0.075 C 
ATOM     14  C   UNL d   1      27.294 -10.477   0.861  0.00  0.00     0.094 C 
BRANCH  12  15
ATOM     15  N   UNL d   1      25.991  -7.301   2.350  0.00  0.00    -0.116 N 
ATOM     16  O   UNL d   1      26.488  -6.618   3.255  0.00  0.00    -0.532 OA
ATOM     17  O   UNL d   1      25.157  -6.884   1.532  0.00  0.00    -0.532 OA
ENDBRANCH  12  15
BRANCH  14  18
ATOM     18  O   UNL d   1      27.375 -11.018  -0.395  0.00  0.00    -0.358 OA
ATOM     19  H   UNL d   1      28.233 -11.475  -0.462  0.00  0.00     0.217 HD
ENDBRANCH  14  18
ENDBRANCH   7   9
ENDBRANCH   5   7
ENDBRANCH   3   5
BRANCH   1  20
ATOM     20  C   UNL d   1      26.826 -14.689  -1.432  0.00  0.00     0.065 A 
ATOM     21  C   UNL d   1      27.232 -14.233  -2.717  0.00  0.00     0.020 A 
ATOM     22  C   UNL d   1      26.641 -14.685  -3.898  0.00  0.00     0.001 A 
ATOM     23  C   UNL d   1      25.620 -15.616  -3.823  0.00  0.00     0.003 A 
ATOM     24  C   UNL d   1      25.142 -16.014  -2.568  0.00  0.00     0.038 A 
ATOM     25  C   UNL d   1      25.725 -15.544  -1.368  0.00  0.00     0.084 A 
BRANCH  25  26
ATOM     26  O   UNL d   1      25.230 -16.095  -0.225  0.00  0.00    -0.350 OA
BRANCH  26  27
ATOM     27  C   UNL d   1      25.769 -17.359   0.174  0.00  0.00     0.175 C 
BRANCH  27  28
ATOM     28  C   UNL d   1      24.771 -18.385  -0.356  0.00  0.00     0.027 C 
BRANCH  28  29
ATOM     29  C   UNL d   1      23.363 -17.820  -0.381  0.00  0.00     0.002 C 
BRANCH  29  30
ATOM     30  C   UNL d   1      22.336 -18.927  -0.200  0.00  0.00    -0.000 C 
BRANCH  30  31
ATOM     31  C   UNL d   1      21.034 -18.557  -0.895  0.00  0.00    -0.005 C 
ATOM     32  C   UNL d   1      19.878 -19.349  -0.321  0.00  0.00     0.005 C 
ENDBRANCH  30  31
ENDBRANCH  29  30
ENDBRANCH  28  29
ENDBRANCH  27  28
ENDBRANCH  26  27
ENDBRANCH  25  26
ENDBRANCH   1  20
TORSDOF 12
ENDMDL
MODEL 4
REMARK VINA RESULT:    -7.097      2.680      3.942
REMARK INTER + INTRA:         -13.953
REMARK INTER:                 -10.677
REMARK INTRA:                  -3.277
REMARK CONF_INDEPENDENT:        3.580
REMARK UNBOUND:                -3.277
REMARK  12 active torsions:
REMARK  status: ('A' for Active; 'I' for Inactive)
REMARK    1  A    between atoms: C_2  and  C_3 
REMARK    2  A    between atoms: C_3  and  C_4 
REMARK    3  A    between atoms: C_4  and  C_5 
REMARK    4  A    between atoms: C_5  and  C_6 
REMARK    5  A    between atoms: C_6  and  O_7 
REMARK    6  A    between atoms: O_7  and  C_8 
REMARK    7  A    between atoms: C_13  and  C_14 
REMARK       I    between atoms: C_14  and  N_16 
REMARK    8  A    between atoms: N_16  and  C_17 
REMARK    9  A    between atoms: C_17  and  N_19 
REMARK   10  A    between atoms: N_19  and  C_20 
REMARK   11  A    between atoms: C_23  and  N_24 
REMARK   12  A    between atoms: C_28  and  O_29 
ROOT
ATOM      1  C   UNL d   1      28.660 -15.357  -1.450  0.00  0.00     0.260 C 
ATOM      2  O   UNL d   1      29.824 -15.601  -1.809  0.00  0.00    -0.267 OA
ATOM      3  N   UNL d   1      28.289 -15.182  -0.101  0.00  0.00    -0.299 N 
ATOM      4  H   UNL d   1      27.297 -15.075   0.070  0.00  0.00     0.171 HD
ENDROOT
BRANCH   3   5
ATOM      5  C   UNL d   1      29.189 -14.989   0.978  0.00  0.00     0.179 C 
ATOM      6  S   UNL d   1      30.855 -15.219   0.809  0.00  0.00    -0.040 SA
BRANCH   5   7
ATOM      7  N   UNL d   1      28.579 -14.639   2.206  0.00  0.00    -0.331 N 
ATOM      8  H   UNL d   1      28.783 -15.182   3.035  0.00  0.00     0.168 HD
BRANCH   7   9
ATOM      9  C   UNL d   1      27.834 -13.426   2.456  0.00  0.00     0.068 C 
ATOM     10  C   UNL d   1      28.166 -12.618   3.557  0.00  0.00     0.035 C 
ATOM     11  C   UNL d   1      27.552 -11.360   3.735  0.00  0.00     0.038 C 
ATOM     12  C   UNL d   1      26.655 -10.881   2.769  0.00  0.00     0.105 C 
ATOM     13  C   UNL d   1      26.237 -11.709   1.730  0.00  0.00     0.075 C 
ATOM     14  C   UNL d   1      26.771 -12.994   1.641  0.00  0.00     0.094 C 
BRANCH  12  15
ATOM     15  N   UNL d   1      26.160  -9.499   2.831  0.00  0.00    -0.116 N 
ATOM     16  O   UNL d   1      26.744  -8.710   3.585  0.00  0.00    -0.532 OA
ATOM     17  O   UNL d   1      25.199  -9.199   2.106  0.00  0.00    -0.532 OA
ENDBRANCH  12  15
BRANCH  14  18
ATOM     18  O   UNL d   1      26.146 -13.872   0.796  0.00  0.00    -0.358 OA
ATOM     19  H   UNL d   1      26.062 -13.436  -0.071  0.00  0.00     0.217 HD
ENDBRANCH  14  18
ENDBRANCH   7   9
ENDBRANCH   5   7
ENDBRANCH   3   5
BRANCH   1  20
ATOM     20  C   UNL d   1      27.690 -15.247  -2.585  0.00  0.00     0.065 A 
ATOM     21  C   UNL d   1      28.268 -15.236  -3.884  0.00  0.00     0.020 A 
ATOM     22  C   UNL d   1      27.502 -15.200  -5.050  0.00  0.00     0.001 A 
ATOM     23  C   UNL d   1      26.123 -15.175  -4.945  0.00  0.00     0.003 A 
ATOM     24  C   UNL d   1      25.530 -15.095  -3.678  0.00  0.00     0.038 A 
ATOM     25  C   UNL d   1      26.304 -15.114  -2.494  0.00  0.00     0.084 A 
BRANCH  25  26
ATOM     26  O   UNL d   1      25.592 -15.137  -1.332  0.00  0.00    -0.350 OA
BRANCH  26  27
ATOM     27  C   UNL d   1      24.579 -16.141  -1.212  0.00  0.00     0.175 C 
BRANCH  27  28
ATOM     28  C   UNL d   1      25.236 -17.251  -0.396  0.00  0.00     0.027 C 
BRANCH  28  29
ATOM     29  C   UNL d   1      24.203 -18.219   0.148  0.00  0.00     0.002 C 
BRANCH  29  30
ATOM     30  C   UNL d   1      23.280 -18.700  -0.962  0.00  0.00    -0.000 C 
BRANCH  30  31
ATOM     31  C   UNL d   1      21.862 -18.201  -0.722  0.00  0.00    -0.005 C 
ATOM     32  C   UNL d   1      20.977 -19.325  -0.226  0.00  0.00     0.005 C 
ENDBRANCH  30  31
ENDBRANCH  29  30
ENDBRANCH  28  29
ENDBRANCH  27  28
ENDBRANCH  26  27
ENDBRANCH  25  26
ENDBRANCH   1  20
TORSDOF 12
ENDMDL
MODEL 5
REMARK VINA RESULT:    -6.849      3.551      8.525
REMARK INTER + INTRA:         -13.743
REMARK INTER:                 -10.429
REMARK INTRA:                  -3.314
REMARK CONF_INDEPENDENT:        3.580
REMARK UNBOUND:                -3.314
REMARK  12 active torsions:
REMARK  status: ('A' for Active; 'I' for Inactive)
REMARK    1  A    between atoms: C_2  and  C_3 
REMARK    2  A    between atoms: C_3  and  C_4 
REMARK    3  A    between atoms: C_4  and  C_5 
REMARK    4  A    between atoms: C_5  and  C_6 
REMARK    5  A    between atoms: C_6  and  O_7 
REMARK    6  A    between atoms: O_7  and  C_8 
REMARK    7  A    between atoms: C_13  and  C_14 
REMARK       I    between atoms: C_14  and  N_16 
REMARK    8  A    between atoms: N_16  and  C_17 
REMARK    9  A    between atoms: C_17  and  N_19 
REMARK   10  A    between atoms: N_19  and  C_20 
REMARK   11  A    between atoms: C_23  and  N_24 
REMARK   12  A    between atoms: C_28  and  O_29 
ROOT
ATOM      1  C   UNL d   1      27.264 -14.465  -1.699  0.00  0.00     0.260 C 
ATOM      2  O   UNL d   1      28.128 -14.017  -0.928  0.00  0.00    -0.267 OA
ATOM      3  N   UNL d   1      26.847 -15.812  -1.694  0.00  0.00    -0.299 N 
ATOM      4  H   UNL d   1      26.202 -16.073  -2.428  0.00  0.00     0.171 HD
ENDROOT
BRANCH   3   5
ATOM      5  C   UNL d   1      27.131 -16.753  -0.672  0.00  0.00     0.179 C 
ATOM      6  S   UNL d   1      28.660 -17.453  -0.496  0.00  0.00    -0.040 SA
BRANCH   5   7
ATOM      7  N   UNL d   1      26.029 -17.090   0.150  0.00  0.00    -0.331 N 
ATOM      8  H   UNL d   1      26.041 -16.834   1.128  0.00  0.00     0.168 HD
BRANCH   7   9
ATOM      9  C   UNL d   1      24.757 -17.593  -0.319  0.00  0.00     0.068 C 
ATOM     10  C   UNL d   1      24.438 -18.950  -0.148  0.00  0.00     0.035 C 
ATOM     11  C   UNL d   1      23.149 -19.430  -0.464  0.00  0.00     0.038 C 
ATOM     12  C   UNL d   1      22.158 -18.533  -0.887  0.00  0.00     0.105 C 
ATOM     13  C   UNL d   1      22.484 -17.207  -1.162  0.00  0.00     0.075 C 
ATOM     14  C   UNL d   1      23.796 -16.783  -0.953  0.00  0.00     0.094 C 
BRANCH  12  15
ATOM     15  N   UNL d   1      20.764 -18.974  -1.030  0.00  0.00    -0.116 N 
ATOM     16  O   UNL d   1      19.944 -18.576  -0.192  0.00  0.00    -0.532 OA
ATOM     17  O   UNL d   1      20.486 -19.700  -1.995  0.00  0.00    -0.532 OA
ENDBRANCH  12  15
BRANCH  14  18
ATOM     18  O   UNL d   1      24.155 -15.574  -1.488  0.00  0.00    -0.358 OA
ATOM     19  H   UNL d   1      24.969 -15.713  -2.005  0.00  0.00     0.217 HD
ENDBRANCH  14  18
ENDBRANCH   7   9
ENDBRANCH   5   7
ENDBRANCH   3   5
BRANCH   1  20
ATOM     20  C   UNL d   1      26.692 -13.437  -2.626  0.00  0.00     0.065 A 
ATOM     21  C   UNL d   1      27.177 -12.112  -2.443  0.00  0.00     0.020 A 
ATOM     22  C   UNL d   1      26.792 -11.049  -3.261  0.00  0.00     0.001 A 
ATOM     23  C   UNL d   1      25.904 -11.286  -4.294  0.00  0.00     0.003 A 
ATOM     24  C   UNL d   1      25.343 -12.562  -4.441  0.00  0.00     0.038 A 
ATOM     25  C   UNL d   1      25.717 -13.638  -3.603  0.00  0.00     0.084 A 
BRANCH  25  26
ATOM     26  O   UNL d   1      25.172 -14.845  -3.926  0.00  0.00    -0.350 OA
BRANCH  26  27
ATOM     27  C   UNL d   1      25.736 -15.533  -5.047  0.00  0.00     0.175 C 
BRANCH  27  28
ATOM     28  C   UNL d   1      27.241 -15.317  -4.910  0.00  0.00     0.027 C 
BRANCH  28  29
ATOM     29  C   UNL d   1      27.811 -14.627  -6.136  0.00  0.00     0.002 C 
BRANCH  29  30
ATOM     30  C   UNL d   1      29.278 -14.283  -5.927  0.00  0.00    -0.000 C 
BRANCH  30  31
ATOM     31  C   UNL d   1      30.164 -15.310  -6.615  0.00  0.00    -0.005 C 
ATOM     32  C   UNL d   1      30.031 -16.663  -5.947  0.00  0.00     0.005 C 
ENDBRANCH  30  31
ENDBRANCH  29  30
ENDBRANCH  28  29
ENDBRANCH  27  28
ENDBRANCH  26  27
ENDBRANCH  25  26
ENDBRANCH   1  20
TORSDOF 12
ENDMDL
MODEL 6
REMARK VINA RESULT:    -6.746      3.896      8.311
REMARK INTER + INTRA:         -14.053
REMARK INTER:                 -10.326
REMARK INTRA:                  -3.727
REMARK CONF_INDEPENDENT:        3.580
REMARK UNBOUND:                -3.727
REMARK  12 active torsions:
REMARK  status: ('A' for Active; 'I' for Inactive)
REMARK    1  A    between atoms: C_2  and  C_3 
REMARK    2  A    between atoms: C_3  and  C_4 
REMARK    3  A    between atoms: C_4  and  C_5 
REMARK    4  A    between atoms: C_5  and  C_6 
REMARK    5  A    between atoms: C_6  and  O_7 
REMARK    6  A    between atoms: O_7  and  C_8 
REMARK    7  A    between atoms: C_13  and  C_14 
REMARK       I    between atoms: C_14  and  N_16 
REMARK    8  A    between atoms: N_16  and  C_17 
REMARK    9  A    between atoms: C_17  and  N_19 
REMARK   10  A    between atoms: N_19  and  C_20 
REMARK   11  A    between atoms: C_23  and  N_24 
REMARK   12  A    between atoms: C_28  and  O_29 
ROOT
ATOM      1  C   UNL d   1      28.067 -16.080  -2.334  0.00  0.00     0.260 C 
ATOM      2  O   UNL d   1      29.218 -16.350  -1.952  0.00  0.00    -0.267 OA
ATOM      3  N   UNL d   1      26.928 -16.223  -1.515  0.00  0.00    -0.299 N 
ATOM      4  H   UNL d   1      26.039 -16.054  -1.969  0.00  0.00     0.171 HD
ENDROOT
BRANCH   3   5
ATOM      5  C   UNL d   1      26.948 -16.419  -0.111  0.00  0.00     0.179 C 
ATOM      6  S   UNL d   1      27.952 -15.517   0.907  0.00  0.00    -0.040 SA
BRANCH   5   7
ATOM      7  N   UNL d   1      26.103 -17.454   0.357  0.00  0.00    -0.331 N 
ATOM      8  H   UNL d   1      26.321 -17.916   1.230  0.00  0.00     0.168 HD
BRANCH   7   9
ATOM      9  C   UNL d   1      24.809 -17.791  -0.191  0.00  0.00     0.068 C 
ATOM     10  C   UNL d   1      24.362 -19.122  -0.156  0.00  0.00     0.035 C 
ATOM     11  C   UNL d   1      23.047 -19.449  -0.550  0.00  0.00     0.038 C 
ATOM     12  C   UNL d   1      22.156 -18.428  -0.913  0.00  0.00     0.105 C 
ATOM     13  C   UNL d   1      22.611 -17.119  -1.054  0.00  0.00     0.075 C 
ATOM     14  C   UNL d   1      23.948 -16.841  -0.771  0.00  0.00     0.094 C 
BRANCH  12  15
ATOM     15  N   UNL d   1      20.734 -18.722  -1.134  0.00  0.00    -0.116 N 
ATOM     16  O   UNL d   1      19.915 -17.824  -0.895  0.00  0.00    -0.532 OA
ATOM     17  O   UNL d   1      20.439 -19.845  -1.568  0.00  0.00    -0.532 OA
ENDBRANCH  12  15
BRANCH  14  18
ATOM     18  O   UNL d   1      24.433 -15.627  -1.182  0.00  0.00    -0.358 OA
ATOM     19  H   UNL d   1      24.237 -15.540  -2.132  0.00  0.00     0.217 HD
ENDBRANCH  14  18
ENDBRANCH   7   9
ENDBRANCH   5   7
ENDBRANCH   3   5
BRANCH   1  20
ATOM     20  C   UNL d   1      28.004 -15.571  -3.741  0.00  0.00     0.065 A 
ATOM     21  C   UNL d   1      29.243 -15.547  -4.438  0.00  0.00     0.020 A 
ATOM     22  C   UNL d   1      29.348 -15.159  -5.775  0.00  0.00     0.001 A 
ATOM     23  C   UNL d   1      28.204 -14.782  -6.455  0.00  0.00     0.003 A 
ATOM     24  C   UNL d   1      26.986 -14.711  -5.767  0.00  0.00     0.038 A 
ATOM     25  C   UNL d   1      26.878 -15.087  -4.408  0.00  0.00     0.084 A 
BRANCH  25  26
ATOM     26  O   UNL d   1      25.615 -15.068  -3.897  0.00  0.00    -0.350 OA
BRANCH  26  27
ATOM     27  C   UNL d   1      25.071 -13.789  -3.557  0.00  0.00     0.175 C 
BRANCH  27  28
ATOM     28  C   UNL d   1      25.931 -13.304  -2.393  0.00  0.00     0.027 C 
BRANCH  28  29
ATOM     29  C   UNL d   1      26.469 -11.909  -2.652  0.00  0.00     0.002 C 
BRANCH  29  30
ATOM     30  C   UNL d   1      27.439 -11.914  -3.823  0.00  0.00    -0.000 C 
BRANCH  30  31
ATOM     31  C   UNL d   1      27.106 -10.786  -4.789  0.00  0.00    -0.005 C 
ATOM     32  C   UNL d   1      25.609 -10.561  -4.851  0.00  0.00     0.005 C 
ENDBRANCH  30  31
ENDBRANCH  29  30
ENDBRANCH  28  29
ENDBRANCH  27  28
ENDBRANCH  26  27
ENDBRANCH  25  26
ENDBRANCH   1  20
TORSDOF 12
ENDMDL
MODEL 7
REMARK VINA RESULT:    -6.343      2.273      4.527
REMARK INTER + INTRA:         -13.473
REMARK INTER:                  -9.923
REMARK INTRA:                  -3.551
REMARK CONF_INDEPENDENT:        3.580
REMARK UNBOUND:                -3.551
REMARK  12 active torsions:
REMARK  status: ('A' for Active; 'I' for Inactive)
REMARK    1  A    between atoms: C_2  and  C_3 
REMARK    2  A    between atoms: C_3  and  C_4 
REMARK    3  A    between atoms: C_4  and  C_5 
REMARK    4  A    between atoms: C_5  and  C_6 
REMARK    5  A    between atoms: C_6  and  O_7 
REMARK    6  A    between atoms: O_7  and  C_8 
REMARK    7  A    between atoms: C_13  and  C_14 
REMARK       I    between atoms: C_14  and  N_16 
REMARK    8  A    between atoms: N_16  and  C_17 
REMARK    9  A    between atoms: C_17  and  N_19 
REMARK   10  A    between atoms: N_19  and  C_20 
REMARK   11  A    between atoms: C_23  and  N_24 
REMARK   12  A    between atoms: C_28  and  O_29 
ROOT
ATOM      1  C   UNL d   1      25.797 -14.479  -2.705  0.00  0.00     0.260 C 
ATOM      2  O   UNL d   1      25.085 -14.586  -3.717  0.00  0.00    -0.267 OA
ATOM      3  N   UNL d   1      26.674 -13.396  -2.488  0.00  0.00    -0.299 N 
ATOM      4  H   UNL d   1      27.264 -13.469  -1.668  0.00  0.00     0.171 HD
ENDROOT
BRANCH   3   5
ATOM      5  C   UNL d   1      26.672 -12.182  -3.219  0.00  0.00     0.179 C 
ATOM      6  S   UNL d   1      25.743 -11.977  -4.616  0.00  0.00    -0.040 SA
BRANCH   5   7
ATOM      7  N   UNL d   1      27.541 -11.183  -2.717  0.00  0.00    -0.331 N 
ATOM      8  H   UNL d   1      28.273 -10.816  -3.311  0.00  0.00     0.168 HD
BRANCH   7   9
ATOM      9  C   UNL d   1      27.359 -10.461  -1.478  0.00  0.00     0.068 C 
ATOM     10  C   UNL d   1      27.058  -9.089  -1.509  0.00  0.00     0.035 C 
ATOM     11  C   UNL d   1      26.733  -8.398  -0.322  0.00  0.00     0.038 C 
ATOM     12  C   UNL d   1      26.640  -9.101   0.888  0.00  0.00     0.105 C 
ATOM     13  C   UNL d   1      27.034 -10.435   0.955  0.00  0.00     0.075 C 
ATOM     14  C   UNL d   1      27.466 -11.065  -0.212  0.00  0.00     0.094 C 
BRANCH  12  15
ATOM     15  N   UNL d   1      26.111  -8.447   2.092  0.00  0.00    -0.116 N 
ATOM     16  O   UNL d   1      26.297  -9.006   3.182  0.00  0.00    -0.532 OA
ATOM     17  O   UNL d   1      25.530  -7.361   1.950  0.00  0.00    -0.532 OA
ENDBRANCH  12  15
BRANCH  14  18
ATOM     18  O   UNL d   1      28.106 -12.268  -0.071  0.00  0.00    -0.358 OA
ATOM     19  H   UNL d   1      27.482 -12.966  -0.343  0.00  0.00     0.217 HD
ENDBRANCH  14  18
ENDBRANCH   7   9
ENDBRANCH   5   7
ENDBRANCH   3   5
BRANCH   1  20
ATOM     20  C   UNL d   1      25.626 -15.600  -1.727  0.00  0.00     0.065 A 
ATOM     21  C   UNL d   1      24.655 -16.577  -2.081  0.00  0.00     0.020 A 
ATOM     22  C   UNL d   1      24.415 -17.715  -1.311  0.00  0.00     0.001 A 
ATOM     23  C   UNL d   1      25.148 -17.908  -0.154  0.00  0.00     0.003 A 
ATOM     24  C   UNL d   1      26.047 -16.918   0.265  0.00  0.00     0.038 A 
ATOM     25  C   UNL d   1      26.280 -15.754  -0.504  0.00  0.00     0.084 A 
BRANCH  25  26
ATOM     26  O   UNL d   1      27.255 -14.929  -0.031  0.00  0.00    -0.350 OA
BRANCH  26  27
ATOM     27  C   UNL d   1      28.303 -15.533   0.734  0.00  0.00     0.175 C 
BRANCH  27  28
ATOM     28  C   UNL d   1      28.624 -14.509   1.820  0.00  0.00     0.027 C 
BRANCH  28  29
ATOM     29  C   UNL d   1      27.368 -13.812   2.306  0.00  0.00     0.002 C 
BRANCH  29  30
ATOM     30  C   UNL d   1      27.556 -13.289   3.722  0.00  0.00    -0.000 C 
BRANCH  30  31
ATOM     31  C   UNL d   1      27.602 -14.447   4.709  0.00  0.00    -0.005 C 
ATOM     32  C   UNL d   1      29.035 -14.795   5.057  0.00  0.00     0.005 C 
ENDBRANCH  30  31
ENDBRANCH  29  30
ENDBRANCH  28  29
ENDBRANCH  27  28
ENDBRANCH  26  27
ENDBRANCH  25  26
ENDBRANCH   1  20
TORSDOF 12
ENDMDL
MODEL 8
REMARK VINA RESULT:    -5.845      3.885      7.829
REMARK INTER + INTRA:         -13.580
REMARK INTER:                  -9.425
REMARK INTRA:                  -4.155
REMARK CONF_INDEPENDENT:        3.580
REMARK UNBOUND:                -4.155
REMARK  12 active torsions:
REMARK  status: ('A' for Active; 'I' for Inactive)
REMARK    1  A    between atoms: C_2  and  C_3 
REMARK    2  A    between atoms: C_3  and  C_4 
REMARK    3  A    between atoms: C_4  and  C_5 
REMARK    4  A    between atoms: C_5  and  C_6 
REMARK    5  A    between atoms: C_6  and  O_7 
REMARK    6  A    between atoms: O_7  and  C_8 
REMARK    7  A    between atoms: C_13  and  C_14 
REMARK       I    between atoms: C_14  and  N_16 
REMARK    8  A    between atoms: N_16  and  C_17 
REMARK    9  A    between atoms: C_17  and  N_19 
REMARK   10  A    between atoms: N_19  and  C_20 
REMARK   11  A    between atoms: C_23  and  N_24 
REMARK   12  A    between atoms: C_28  and  O_29 
ROOT
ATOM      1  C   UNL d   1      28.669 -16.252  -2.805  0.00  0.00     0.260 C 
ATOM      2  O   UNL d   1      29.763 -16.819  -2.652  0.00  0.00    -0.267 OA
ATOM      3  N   UNL d   1      27.680 -16.198  -1.802  0.00  0.00    -0.299 N 
ATOM      4  H   UNL d   1      26.799 -15.784  -2.079  0.00  0.00     0.171 HD
ENDROOT
BRANCH   3   5
ATOM      5  C   UNL d   1      27.880 -16.523  -0.437  0.00  0.00     0.179 C 
ATOM      6  S   UNL d   1      29.425 -16.700   0.227  0.00  0.00    -0.040 SA
BRANCH   5   7
ATOM      7  N   UNL d   1      26.693 -16.733   0.305  0.00  0.00    -0.331 N 
ATOM      8  H   UNL d   1      26.640 -16.407   1.261  0.00  0.00     0.168 HD
BRANCH   7   9
ATOM      9  C   UNL d   1      25.435 -17.192  -0.239  0.00  0.00     0.068 C 
ATOM     10  C   UNL d   1      25.033 -18.523  -0.040  0.00  0.00     0.035 C 
ATOM     11  C   UNL d   1      23.748 -18.952  -0.435  0.00  0.00     0.038 C 
ATOM     12  C   UNL d   1      22.839 -18.026  -0.966  0.00  0.00     0.105 C 
ATOM     13  C   UNL d   1      23.254 -16.731  -1.267  0.00  0.00     0.075 C 
ATOM     14  C   UNL d   1      24.567 -16.363  -0.975  0.00  0.00     0.094 C 
BRANCH  12  15
ATOM     15  N   UNL d   1      21.438 -18.403  -1.197  0.00  0.00    -0.116 N 
ATOM     16  O   UNL d   1      20.600 -17.495  -1.270  0.00  0.00    -0.532 OA
ATOM     17  O   UNL d   1      21.181 -19.609  -1.329  0.00  0.00    -0.532 OA
ENDBRANCH  12  15
BRANCH  14  18
ATOM     18  O   UNL d   1      25.027 -15.198  -1.529  0.00  0.00    -0.358 OA
ATOM     19  H   UNL d   1      24.913 -15.267  -2.494  0.00  0.00     0.217 HD
ENDBRANCH  14  18
ENDBRANCH   7   9
ENDBRANCH   5   7
ENDBRANCH   3   5
BRANCH   1  20
ATOM     20  C   UNL d   1      28.504 -15.614  -4.150  0.00  0.00     0.065 A 
ATOM     21  C   UNL d   1      29.575 -15.827  -5.063  0.00  0.00     0.020 A 
ATOM     22  C   UNL d   1      29.551 -15.353  -6.375  0.00  0.00     0.001 A 
ATOM     23  C   UNL d   1      28.445 -14.648  -6.813  0.00  0.00     0.003 A 
ATOM     24  C   UNL d   1      27.417 -14.348  -5.910  0.00  0.00     0.038 A 
ATOM     25  C   UNL d   1      27.445 -14.811  -4.574  0.00  0.00     0.084 A 
BRANCH  25  26
ATOM     26  O   UNL d   1      26.332 -14.534  -3.838  0.00  0.00    -0.350 OA
BRANCH  26  27
ATOM     27  C   UNL d   1      25.794 -13.213  -3.947  0.00  0.00     0.175 C 
BRANCH  27  28
ATOM     28  C   UNL d   1      25.971 -12.611  -2.555  0.00  0.00     0.027 C 
BRANCH  28  29
ATOM     29  C   UNL d   1      27.138 -13.250  -1.825  0.00  0.00     0.002 C 
BRANCH  29  30
ATOM     30  C   UNL d   1      27.370 -12.571  -0.484  0.00  0.00    -0.000 C 
BRANCH  30  31
ATOM     31  C   UNL d   1      26.655 -13.332   0.623  0.00  0.00    -0.005 C 
ATOM     32  C   UNL d   1      27.633 -13.750   1.702  0.00  0.00     0.005 C 
ENDBRANCH  30  31
ENDBRANCH  29  30
ENDBRANCH  28  29
ENDBRANCH  27  28
ENDBRANCH  26  27
ENDBRANCH  25  26
ENDBRANCH   1  20
TORSDOF 12
ENDMDL
MODEL 9
REMARK VINA RESULT:    -5.616      1.901      4.574
REMARK INTER + INTRA:         -13.211
REMARK INTER:                  -9.196
REMARK INTRA:                  -4.015
REMARK CONF_INDEPENDENT:        3.580
REMARK UNBOUND:                -4.015
REMARK  12 active torsions:
REMARK  status: ('A' for Active; 'I' for Inactive)
REMARK    1  A    between atoms: C_2  and  C_3 
REMARK    2  A    between atoms: C_3  and  C_4 
REMARK    3  A    between atoms: C_4  and  C_5 
REMARK    4  A    between atoms: C_5  and  C_6 
REMARK    5  A    between atoms: C_6  and  O_7 
REMARK    6  A    between atoms: O_7  and  C_8 
REMARK    7  A    between atoms: C_13  and  C_14 
REMARK       I    between atoms: C_14  and  N_16 
REMARK    8  A    between atoms: N_16  and  C_17 
REMARK    9  A    between atoms: C_17  and  N_19 
REMARK   10  A    between atoms: N_19  and  C_20 
REMARK   11  A    between atoms: C_23  and  N_24 
REMARK   12  A    between atoms: C_28  and  O_29 
ROOT
ATOM      1  C   UNL d   1      25.495 -15.094  -2.190  0.00  0.00     0.260 C 
ATOM      2  O   UNL d   1      24.783 -15.046  -3.206  0.00  0.00    -0.267 OA
ATOM      3  N   UNL d   1      26.502 -14.149  -1.907  0.00  0.00    -0.299 N 
ATOM      4  H   UNL d   1      27.072 -14.346  -1.094  0.00  0.00     0.171 HD
ENDROOT
BRANCH   3   5
ATOM      5  C   UNL d   1      26.661 -12.902  -2.562  0.00  0.00     0.179 C 
ATOM      6  S   UNL d   1      25.822 -12.518  -3.978  0.00  0.00    -0.040 SA
BRANCH   5   7
ATOM      7  N   UNL d   1      27.608 -12.033  -1.966  0.00  0.00    -0.331 N 
ATOM      8  H   UNL d   1      28.443 -11.781  -2.479  0.00  0.00     0.168 HD
BRANCH   7   9
ATOM      9  C   UNL d   1      27.403 -11.279  -0.750  0.00  0.00     0.068 C 
ATOM     10  C   UNL d   1      27.427  -9.875  -0.788  0.00  0.00     0.035 C 
ATOM     11  C   UNL d   1      27.086  -9.120   0.354  0.00  0.00     0.038 C 
ATOM     12  C   UNL d   1      26.651  -9.774   1.516  0.00  0.00     0.105 C 
ATOM     13  C   UNL d   1      26.721 -11.163   1.605  0.00  0.00     0.075 C 
ATOM     14  C   UNL d   1      27.174 -11.883   0.500  0.00  0.00     0.094 C 
BRANCH  12  15
ATOM     15  N   UNL d   1      26.104  -9.009   2.643  0.00  0.00    -0.116 N 
ATOM     16  O   UNL d   1      25.937  -9.602   3.717  0.00  0.00    -0.532 OA
ATOM     17  O   UNL d   1      25.863  -7.806   2.460  0.00  0.00    -0.532 OA
ENDBRANCH  12  15
BRANCH  14  18
ATOM     18  O   UNL d   1      27.498 -13.198   0.703  0.00  0.00    -0.358 OA
ATOM     19  H   UNL d   1      26.734 -13.735   0.424  0.00  0.00     0.217 HD
ENDBRANCH  14  18
ENDBRANCH   7   9
ENDBRANCH   5   7
ENDBRANCH   3   5
BRANCH   1  20
ATOM     20  C   UNL d   1      25.174 -16.242  -1.283  0.00  0.00     0.065 A 
ATOM     21  C   UNL d   1      24.053 -17.029  -1.667  0.00  0.00     0.020 A 
ATOM     22  C   UNL d   1      23.657 -18.168  -0.965  0.00  0.00     0.001 A 
ATOM     23  C   UNL d   1      24.379 -18.554   0.150  0.00  0.00     0.003 A 
ATOM     24  C   UNL d   1      25.432 -17.747   0.601  0.00  0.00     0.038 A 
ATOM     25  C   UNL d   1      25.826 -16.582  -0.097  0.00  0.00     0.084 A 
BRANCH  25  26
ATOM     26  O   UNL d   1      26.930 -15.953   0.395  0.00  0.00    -0.350 OA
BRANCH  26  27
ATOM     27  C   UNL d   1      28.186 -16.620   0.228  0.00  0.00     0.175 C 
BRANCH  27  28
ATOM     28  C   UNL d   1      28.982 -15.708  -0.703  0.00  0.00     0.027 C 
BRANCH  28  29
ATOM     29  C   UNL d   1      29.706 -16.509  -1.769  0.00  0.00     0.002 C 
BRANCH  29  30
ATOM     30  C   UNL d   1      28.905 -16.534  -3.061  0.00  0.00    -0.000 C 
BRANCH  30  31
ATOM     31  C   UNL d   1      28.938 -15.167  -3.729  0.00  0.00    -0.005 C 
ATOM     32  C   UNL d   1      28.160 -15.188  -5.028  0.00  0.00     0.005 C 
ENDBRANCH  30  31
ENDBRANCH  29  30
ENDBRANCH  28  29
ENDBRANCH  27  28
ENDBRANCH  26  27
ENDBRANCH  25  26
ENDBRANCH   1  20
TORSDOF 12
ENDMDL
