MODEL 1
REMARK VINA RESULT:    -8.003      0.000      0.000
REMARK INTER + INTRA:         -11.209
REMARK INTER:                 -10.092
REMARK INTRA:                  -1.118
REMARK CONF_INDEPENDENT:        2.088
REMARK UNBOUND:                -1.118
REMARK  7 active torsions:
REMARK  status: ('A' for Active; 'I' for Inactive)
REMARK    1  A    between atoms: C_2  and  C_3 
REMARK    2  A    between atoms: C_2  and  S_6 
REMARK    3  A    between atoms: S_6  and  C_7 
REMARK    4  A    between atoms: C_12  and  N_13 
REMARK       I    between atoms: N_13  and  C_14 
REMARK       I    between atoms: C_14  and  N_16 
REMARK    5  A    between atoms: N_16  and  C_17 
REMARK    6  A    between atoms: C_17  and  C_18 
REMARK    7  A    between atoms: C_23  and  O_24 
ROOT
ATOM      1  C   UNL d   1      21.434 -19.286   0.040  0.00  0.00     0.123 C 
ATOM      2  C   UNL d   1      19.984 -19.716  -0.100  0.00  0.00    -0.019 C 
ATOM      3  N   UNL d   1      18.781 -20.074  -0.217  0.00  0.00    -0.102 N 
ENDROOT
BRANCH   1   4
ATOM      4  C   UNL d   1      21.904 -18.392  -1.047  0.00  0.00     0.060 C 
ATOM      5  C   UNL d   1      22.986 -19.013  -1.919  0.00  0.00     0.022 C 
BRANCH   4   6
ATOM      6  S   UNL d   1      22.577 -16.895  -0.201  0.00  0.00    -0.122 SA
BRANCH   6   7
ATOM      7  C   UNL d   1      24.349 -17.004  -0.551  0.00  0.00     0.027 A 
ATOM      8  C   UNL d   1      25.004 -17.937   0.280  0.00  0.00     0.021 A 
ATOM      9  C   UNL d   1      26.393 -17.998   0.356  0.00  0.00     0.002 A 
ATOM     10  C   UNL d   1      27.153 -17.156  -0.442  0.00  0.00     0.002 A 
ATOM     11  C   UNL d   1      26.523 -16.275  -1.336  0.00  0.00     0.031 A 
ATOM     12  C   UNL d   1      25.114 -16.214  -1.442  0.00  0.00     0.053 A 
BRANCH  12  13
ATOM     13  N   UNL d   1      24.575 -15.330  -2.432  0.00  0.00    -0.308 N 
ATOM     14  C   UNL d   1      25.180 -14.161  -2.864  0.00  0.00     0.321 C 
ATOM     15  O   UNL d   1      26.109 -13.585  -2.307  0.00  0.00    -0.247 OA
ATOM     16  N   UNL d   1      24.767 -13.755  -4.110  0.00  0.00    -0.339 N 
ATOM     17  H   UNL d   1      23.867 -14.037  -4.457  0.00  0.00     0.164 HD
ATOM     18  H   UNL d   1      23.593 -15.426  -2.650  0.00  0.00     0.170 HD
BRANCH  16  19
ATOM     19  C   UNL d   1      25.626 -12.872  -4.903  0.00  0.00     0.165 C 
BRANCH  19  20
ATOM     20  C   UNL d   1      27.015 -13.378  -5.157  0.00  0.00    -0.007 A 
ATOM     21  C   UNL d   1      28.112 -12.511  -5.143  0.00  0.00     0.011 A 
ATOM     22  C   UNL d   1      29.368 -12.952  -5.536  0.00  0.00     0.001 A 
ATOM     23  C   UNL d   1      29.569 -14.296  -5.836  0.00  0.00     0.003 A 
ATOM     24  C   UNL d   1      28.508 -15.200  -5.768  0.00  0.00     0.037 A 
ATOM     25  C   UNL d   1      27.236 -14.737  -5.439  0.00  0.00     0.073 A 
BRANCH  25  26
ATOM     26  O   UNL d   1      26.180 -15.606  -5.395  0.00  0.00    -0.360 OA
ATOM     27  H   UNL d   1      26.075 -15.941  -4.487  0.00  0.00     0.217 HD
ENDBRANCH  25  26
ENDBRANCH  19  20
ENDBRANCH  16  19
ENDBRANCH  12  13
ENDBRANCH   6   7
ENDBRANCH   4   6
ENDBRANCH   1   4
TORSDOF 7
ENDMDL
MODEL 2
REMARK VINA RESULT:    -7.455      5.087      7.344
REMARK INTER + INTRA:         -10.926
REMARK INTER:                  -9.543
REMARK INTRA:                  -1.383
REMARK CONF_INDEPENDENT:        2.088
REMARK UNBOUND:                -1.383
REMARK  7 active torsions:
REMARK  status: ('A' for Active; 'I' for Inactive)
REMARK    1  A    between atoms: C_2  and  C_3 
REMARK    2  A    between atoms: C_2  and  S_6 
REMARK    3  A    between atoms: S_6  and  C_7 
REMARK    4  A    between atoms: C_12  and  N_13 
REMARK       I    between atoms: N_13  and  C_14 
REMARK       I    between atoms: C_14  and  N_16 
REMARK    5  A    between atoms: N_16  and  C_17 
REMARK    6  A    between atoms: C_17  and  C_18 
REMARK    7  A    between atoms: C_23  and  O_24 
ROOT
ATOM      1  C   UNL d   1      23.972 -16.895  -1.047  0.00  0.00     0.123 C 
ATOM      2  C   UNL d   1      23.188 -18.178  -0.825  0.00  0.00    -0.019 C 
ATOM      3  N   UNL d   1      22.539 -19.242  -0.640  0.00  0.00    -0.102 N 
ENDROOT
BRANCH   1   4
ATOM      4  C   UNL d   1      25.439 -17.094  -1.135  0.00  0.00     0.060 C 
ATOM      5  C   UNL d   1      26.024 -17.843   0.054  0.00  0.00     0.022 C 
BRANCH   4   6
ATOM      6  S   UNL d   1      26.166 -15.398  -1.214  0.00  0.00    -0.122 SA
BRANCH   6   7
ATOM      7  C   UNL d   1      27.885 -15.724  -1.673  0.00  0.00     0.027 A 
ATOM      8  C   UNL d   1      28.058 -15.832  -3.070  0.00  0.00     0.021 A 
ATOM      9  C   UNL d   1      29.236 -16.325  -3.624  0.00  0.00     0.002 A 
ATOM     10  C   UNL d   1      30.286 -16.672  -2.786  0.00  0.00     0.002 A 
ATOM     11  C   UNL d   1      30.165 -16.498  -1.397  0.00  0.00     0.031 A 
ATOM     12  C   UNL d   1      28.985 -15.979  -0.818  0.00  0.00     0.053 A 
BRANCH  12  13
ATOM     13  N   UNL d   1      28.991 -15.778   0.600  0.00  0.00    -0.308 N 
ATOM     14  C   UNL d   1      28.644 -14.595   1.233  0.00  0.00     0.321 C 
ATOM     15  O   UNL d   1      28.529 -13.499   0.694  0.00  0.00    -0.247 OA
ATOM     16  N   UNL d   1      28.251 -14.765   2.538  0.00  0.00    -0.339 N 
ATOM     17  H   UNL d   1      28.570 -15.563   3.060  0.00  0.00     0.164 HD
ATOM     18  H   UNL d   1      29.508 -16.442   1.158  0.00  0.00     0.170 HD
BRANCH  16  19
ATOM     19  C   UNL d   1      27.405 -13.752   3.175  0.00  0.00     0.165 C 
BRANCH  19  20
ATOM     20  C   UNL d   1      27.839 -13.312   4.541  0.00  0.00    -0.007 A 
ATOM     21  C   UNL d   1      27.782 -11.967   4.918  0.00  0.00     0.011 A 
ATOM     22  C   UNL d   1      28.332 -11.544   6.120  0.00  0.00     0.001 A 
ATOM     23  C   UNL d   1      28.845 -12.479   7.015  0.00  0.00     0.003 A 
ATOM     24  C   UNL d   1      28.830 -13.838   6.701  0.00  0.00     0.037 A 
ATOM     25  C   UNL d   1      28.337 -14.248   5.464  0.00  0.00     0.073 A 
BRANCH  25  26
ATOM     26  O   UNL d   1      28.341 -15.575   5.131  0.00  0.00    -0.360 OA
ATOM     27  H   UNL d   1      28.952 -15.720   4.388  0.00  0.00     0.217 HD
ENDBRANCH  25  26
ENDBRANCH  19  20
ENDBRANCH  16  19
ENDBRANCH  12  13
ENDBRANCH   6   7
ENDBRANCH   4   6
ENDBRANCH   1   4
TORSDOF 7
ENDMDL
MODEL 3
REMARK VINA RESULT:    -7.433      4.691      7.876
REMARK INTER + INTRA:         -10.720
REMARK INTER:                  -9.521
REMARK INTRA:                  -1.199
REMARK CONF_INDEPENDENT:        2.088
REMARK UNBOUND:                -1.199
REMARK  7 active torsions:
REMARK  status: ('A' for Active; 'I' for Inactive)
REMARK    1  A    between atoms: C_2  and  C_3 
REMARK    2  A    between atoms: C_2  and  S_6 
REMARK    3  A    between atoms: S_6  and  C_7 
REMARK    4  A    between atoms: C_12  and  N_13 
REMARK       I    between atoms: N_13  and  C_14 
REMARK       I    between atoms: C_14  and  N_16 
REMARK    5  A    between atoms: N_16  and  C_17 
REMARK    6  A    between atoms: C_17  and  C_18 
REMARK    7  A    between atoms: C_23  and  O_24 
ROOT
ATOM      1  C   UNL d   1      26.421 -15.572  -4.137  0.00  0.00     0.123 C 
ATOM      2  C   UNL d   1      27.333 -14.817  -5.089  0.00  0.00    -0.019 C 
ATOM      3  N   UNL d   1      28.090 -14.190  -5.878  0.00  0.00    -0.102 N 
ENDROOT
BRANCH   1   4
ATOM      4  C   UNL d   1      25.367 -14.730  -3.519  0.00  0.00     0.060 C 
ATOM      5  C   UNL d   1      25.187 -13.382  -4.204  0.00  0.00     0.022 C 
BRANCH   4   6
ATOM      6  S   UNL d   1      25.903 -14.468  -1.772  0.00  0.00    -0.122 SA
BRANCH   6   7
ATOM      7  C   UNL d   1      25.707 -16.114  -1.046  0.00  0.00     0.027 A 
ATOM      8  C   UNL d   1      24.651 -16.840  -1.637  0.00  0.00     0.021 A 
ATOM      9  C   UNL d   1      24.166 -18.016  -1.069  0.00  0.00     0.002 A 
ATOM     10  C   UNL d   1      24.767 -18.513   0.077  0.00  0.00     0.002 A 
ATOM     11  C   UNL d   1      25.871 -17.849   0.638  0.00  0.00     0.031 A 
ATOM     12  C   UNL d   1      26.391 -16.667   0.064  0.00  0.00     0.053 A 
BRANCH  12  13
ATOM     13  N   UNL d   1      27.560 -16.107   0.674  0.00  0.00    -0.308 N 
ATOM     14  C   UNL d   1      27.714 -14.773   1.014  0.00  0.00     0.321 C 
ATOM     15  O   UNL d   1      27.007 -13.848   0.630  0.00  0.00    -0.247 OA
ATOM     16  N   UNL d   1      28.653 -14.561   1.995  0.00  0.00    -0.339 N 
ATOM     17  H   UNL d   1      29.396 -15.224   2.132  0.00  0.00     0.164 HD
ATOM     18  H   UNL d   1      28.409 -16.653   0.630  0.00  0.00     0.170 HD
BRANCH  16  19
ATOM     19  C   UNL d   1      28.590 -13.339   2.802  0.00  0.00     0.165 C 
BRANCH  19  20
ATOM     20  C   UNL d   1      28.657 -13.540   4.286  0.00  0.00    -0.007 A 
ATOM     21  C   UNL d   1      27.751 -12.906   5.141  0.00  0.00     0.011 A 
ATOM     22  C   UNL d   1      27.916 -12.966   6.518  0.00  0.00     0.001 A 
ATOM     23  C   UNL d   1      28.923 -13.758   7.063  0.00  0.00     0.003 A 
ATOM     24  C   UNL d   1      29.783 -14.475   6.231  0.00  0.00     0.037 A 
ATOM     25  C   UNL d   1      29.654 -14.356   4.849  0.00  0.00     0.073 A 
BRANCH  25  26
ATOM     26  O   UNL d   1      30.508 -15.031   4.020  0.00  0.00    -0.360 OA
ATOM     27  H   UNL d   1      30.435 -15.986   4.189  0.00  0.00     0.217 HD
ENDBRANCH  25  26
ENDBRANCH  19  20
ENDBRANCH  16  19
ENDBRANCH  12  13
ENDBRANCH   6   7
ENDBRANCH   4   6
ENDBRANCH   1   4
TORSDOF 7
ENDMDL
MODEL 4
REMARK VINA RESULT:    -6.810      3.944      7.329
REMARK INTER + INTRA:         -10.388
REMARK INTER:                  -8.898
REMARK INTRA:                  -1.490
REMARK CONF_INDEPENDENT:        2.088
REMARK UNBOUND:                -1.490
REMARK  7 active torsions:
REMARK  status: ('A' for Active; 'I' for Inactive)
REMARK    1  A    between atoms: C_2  and  C_3 
REMARK    2  A    between atoms: C_2  and  S_6 
REMARK    3  A    between atoms: S_6  and  C_7 
REMARK    4  A    between atoms: C_12  and  N_13 
REMARK       I    between atoms: N_13  and  C_14 
REMARK       I    between atoms: C_14  and  N_16 
REMARK    5  A    between atoms: N_16  and  C_17 
REMARK    6  A    between atoms: C_17  and  C_18 
REMARK    7  A    between atoms: C_23  and  O_24 
ROOT
ATOM      1  C   UNL d   1      25.893 -15.562  -4.392  0.00  0.00     0.123 C 
ATOM      2  C   UNL d   1      26.972 -15.021  -5.317  0.00  0.00    -0.019 C 
ATOM      3  N   UNL d   1      27.866 -14.572  -6.082  0.00  0.00    -0.102 N 
ENDROOT
BRANCH   1   4
ATOM      4  C   UNL d   1      25.189 -14.514  -3.613  0.00  0.00     0.060 C 
ATOM      5  C   UNL d   1      25.234 -13.139  -4.264  0.00  0.00     0.022 C 
BRANCH   4   6
ATOM      6  S   UNL d   1      26.046 -14.452  -1.979  0.00  0.00    -0.122 SA
BRANCH   6   7
ATOM      7  C   UNL d   1      25.600 -16.041  -1.236  0.00  0.00     0.027 A 
ATOM      8  C   UNL d   1      24.285 -16.437  -1.563  0.00  0.00     0.021 A 
ATOM      9  C   UNL d   1      23.654 -17.488  -0.904  0.00  0.00     0.002 A 
ATOM     10  C   UNL d   1      24.350 -18.197   0.065  0.00  0.00     0.002 A 
ATOM     11  C   UNL d   1      25.686 -17.871   0.351  0.00  0.00     0.031 A 
ATOM     12  C   UNL d   1      26.351 -16.821  -0.323  0.00  0.00     0.053 A 
BRANCH  12  13
ATOM     13  N   UNL d   1      27.732 -16.616  -0.005  0.00  0.00    -0.308 N 
ATOM     14  C   UNL d   1      28.302 -15.388   0.293  0.00  0.00     0.321 C 
ATOM     15  O   UNL d   1      27.792 -14.291   0.090  0.00  0.00    -0.247 OA
ATOM     16  N   UNL d   1      29.461 -15.484   1.024  0.00  0.00    -0.339 N 
ATOM     17  H   UNL d   1      30.016 -16.320   0.980  0.00  0.00     0.164 HD
ATOM     18  H   UNL d   1      28.376 -17.354  -0.251  0.00  0.00     0.170 HD
BRANCH  16  19
ATOM     19  C   UNL d   1      29.904 -14.341   1.827  0.00  0.00     0.165 C 
BRANCH  19  20
ATOM     20  C   UNL d   1      29.258 -14.207   3.174  0.00  0.00    -0.007 A 
ATOM     21  C   UNL d   1      29.811 -14.817   4.303  0.00  0.00     0.011 A 
ATOM     22  C   UNL d   1      29.127 -14.825   5.511  0.00  0.00     0.001 A 
ATOM     23  C   UNL d   1      27.932 -14.122   5.636  0.00  0.00     0.003 A 
ATOM     24  C   UNL d   1      27.405 -13.428   4.546  0.00  0.00     0.037 A 
ATOM     25  C   UNL d   1      28.063 -13.481   3.320  0.00  0.00     0.073 A 
BRANCH  25  26
ATOM     26  O   UNL d   1      27.545 -12.827   2.235  0.00  0.00    -0.360 OA
ATOM     27  H   UNL d   1      27.548 -13.424   1.466  0.00  0.00     0.217 HD
ENDBRANCH  25  26
ENDBRANCH  19  20
ENDBRANCH  16  19
ENDBRANCH  12  13
ENDBRANCH   6   7
ENDBRANCH   4   6
ENDBRANCH   1   4
TORSDOF 7
ENDMDL
MODEL 5
REMARK VINA RESULT:    -6.707      2.278      4.388
REMARK INTER + INTRA:         -10.835
REMARK INTER:                  -8.796
REMARK INTRA:                  -2.040
REMARK CONF_INDEPENDENT:        2.088
REMARK UNBOUND:                -2.040
REMARK  7 active torsions:
REMARK  status: ('A' for Active; 'I' for Inactive)
REMARK    1  A    between atoms: C_2  and  C_3 
REMARK    2  A    between atoms: C_2  and  S_6 
REMARK    3  A    between atoms: S_6  and  C_7 
REMARK    4  A    between atoms: C_12  and  N_13 
REMARK       I    between atoms: N_13  and  C_14 
REMARK       I    between atoms: C_14  and  N_16 
REMARK    5  A    between atoms: N_16  and  C_17 
REMARK    6  A    between atoms: C_17  and  C_18 
REMARK    7  A    between atoms: C_23  and  O_24 
ROOT
ATOM      1  C   UNL d   1      28.945 -16.887  -0.883  0.00  0.00     0.123 C 
ATOM      2  C   UNL d   1      29.129 -16.664  -2.375  0.00  0.00    -0.019 C 
ATOM      3  N   UNL d   1      29.280 -16.478  -3.612  0.00  0.00    -0.102 N 
ENDROOT
BRANCH   1   4
ATOM      4  C   UNL d   1      27.593 -16.535  -0.384  0.00  0.00     0.060 C 
ATOM      5  C   UNL d   1      27.605 -15.856   0.978  0.00  0.00     0.022 C 
BRANCH   4   6
ATOM      6  S   UNL d   1      26.676 -18.133  -0.269  0.00  0.00    -0.122 SA
BRANCH   6   7
ATOM      7  C   UNL d   1      24.946 -17.600  -0.279  0.00  0.00     0.027 A 
ATOM      8  C   UNL d   1      24.080 -18.575   0.259  0.00  0.00     0.021 A 
ATOM      9  C   UNL d   1      22.698 -18.481   0.119  0.00  0.00     0.002 A 
ATOM     10  C   UNL d   1      22.155 -17.376  -0.521  0.00  0.00     0.002 A 
ATOM     11  C   UNL d   1      22.995 -16.354  -0.994  0.00  0.00     0.031 A 
ATOM     12  C   UNL d   1      24.398 -16.422  -0.842  0.00  0.00     0.053 A 
BRANCH  12  13
ATOM     13  N   UNL d   1      25.157 -15.295  -1.298  0.00  0.00    -0.308 N 
ATOM     14  C   UNL d   1      25.548 -15.084  -2.611  0.00  0.00     0.321 C 
ATOM     15  O   UNL d   1      25.531 -15.919  -3.509  0.00  0.00    -0.247 OA
ATOM     16  N   UNL d   1      25.811 -13.767  -2.900  0.00  0.00    -0.339 N 
ATOM     17  H   UNL d   1      26.079 -13.135  -2.167  0.00  0.00     0.164 HD
ATOM     18  H   UNL d   1      25.646 -14.755  -0.599  0.00  0.00     0.170 HD
BRANCH  16  19
ATOM     19  C   UNL d   1      25.744 -13.307  -4.290  0.00  0.00     0.165 C 
BRANCH  19  20
ATOM     20  C   UNL d   1      27.043 -13.323  -5.040  0.00  0.00    -0.007 A 
ATOM     21  C   UNL d   1      27.890 -12.211  -5.041  0.00  0.00     0.011 A 
ATOM     22  C   UNL d   1      29.007 -12.173  -5.863  0.00  0.00     0.001 A 
ATOM     23  C   UNL d   1      29.358 -13.293  -6.610  0.00  0.00     0.003 A 
ATOM     24  C   UNL d   1      28.578 -14.449  -6.556  0.00  0.00     0.037 A 
ATOM     25  C   UNL d   1      27.421 -14.457  -5.781  0.00  0.00     0.073 A 
BRANCH  25  26
ATOM     26  O   UNL d   1      26.632 -15.574  -5.738  0.00  0.00    -0.360 OA
ATOM     27  H   UNL d   1      26.685 -15.973  -4.853  0.00  0.00     0.217 HD
ENDBRANCH  25  26
ENDBRANCH  19  20
ENDBRANCH  16  19
ENDBRANCH  12  13
ENDBRANCH   6   7
ENDBRANCH   4   6
ENDBRANCH   1   4
TORSDOF 7
ENDMDL
MODEL 6
REMARK VINA RESULT:    -6.589      5.855      8.374
REMARK INTER + INTRA:         -10.367
REMARK INTER:                  -8.677
REMARK INTRA:                  -1.690
REMARK CONF_INDEPENDENT:        2.088
REMARK UNBOUND:                -1.690
REMARK  7 active torsions:
REMARK  status: ('A' for Active; 'I' for Inactive)
REMARK    1  A    between atoms: C_2  and  C_3 
REMARK    2  A    between atoms: C_2  and  S_6 
REMARK    3  A    between atoms: S_6  and  C_7 
REMARK    4  A    between atoms: C_12  and  N_13 
REMARK       I    between atoms: N_13  and  C_14 
REMARK       I    between atoms: C_14  and  N_16 
REMARK    5  A    between atoms: N_16  and  C_17 
REMARK    6  A    between atoms: C_17  and  C_18 
REMARK    7  A    between atoms: C_23  and  O_24 
ROOT
ATOM      1  C   UNL d   1      29.806 -13.300   6.719  0.00  0.00     0.123 C 
ATOM      2  C   UNL d   1      28.999 -12.486   7.718  0.00  0.00    -0.019 C 
ATOM      3  N   UNL d   1      28.330 -11.813   8.546  0.00  0.00    -0.102 N 
ENDROOT
BRANCH   1   4
ATOM      4  C   UNL d   1      29.071 -14.457   6.152  0.00  0.00     0.060 C 
ATOM      5  C   UNL d   1      29.846 -15.198   5.071  0.00  0.00     0.022 C 
BRANCH   4   6
ATOM      6  S   UNL d   1      27.523 -13.754   5.430  0.00  0.00    -0.122 SA
BRANCH   6   7
ATOM      7  C   UNL d   1      28.143 -12.767   4.047  0.00  0.00     0.027 A 
ATOM      8  C   UNL d   1      28.279 -11.402   4.378  0.00  0.00     0.021 A 
ATOM      9  C   UNL d   1      28.496 -10.431   3.404  0.00  0.00     0.002 A 
ATOM     10  C   UNL d   1      28.632 -10.820   2.079  0.00  0.00     0.002 A 
ATOM     11  C   UNL d   1      28.580 -12.181   1.736  0.00  0.00     0.031 A 
ATOM     12  C   UNL d   1      28.382 -13.182   2.714  0.00  0.00     0.053 A 
BRANCH  12  13
ATOM     13  N   UNL d   1      28.413 -14.543   2.268  0.00  0.00    -0.308 N 
ATOM     14  C   UNL d   1      27.535 -15.095   1.349  0.00  0.00     0.321 C 
ATOM     15  O   UNL d   1      26.476 -14.598   0.979  0.00  0.00    -0.247 OA
ATOM     16  N   UNL d   1      28.030 -16.209   0.717  0.00  0.00    -0.339 N 
ATOM     17  H   UNL d   1      28.740 -16.766   1.160  0.00  0.00     0.164 HD
ATOM     18  H   UNL d   1      28.937 -15.200   2.828  0.00  0.00     0.170 HD
BRANCH  16  19
ATOM     19  C   UNL d   1      27.481 -16.605  -0.583  0.00  0.00     0.165 C 
BRANCH  19  20
ATOM     20  C   UNL d   1      26.027 -16.972  -0.587  0.00  0.00    -0.007 A 
ATOM     21  C   UNL d   1      25.584 -18.173  -0.025  0.00  0.00     0.011 A 
ATOM     22  C   UNL d   1      24.266 -18.580  -0.173  0.00  0.00     0.001 A 
ATOM     23  C   UNL d   1      23.344 -17.737  -0.786  0.00  0.00     0.003 A 
ATOM     24  C   UNL d   1      23.742 -16.492  -1.274  0.00  0.00     0.037 A 
ATOM     25  C   UNL d   1      25.081 -16.119  -1.182  0.00  0.00     0.073 A 
BRANCH  25  26
ATOM     26  O   UNL d   1      25.492 -14.913  -1.681  0.00  0.00    -0.360 OA
ATOM     27  H   UNL d   1      25.560 -14.269  -0.955  0.00  0.00     0.217 HD
ENDBRANCH  25  26
ENDBRANCH  19  20
ENDBRANCH  16  19
ENDBRANCH  12  13
ENDBRANCH   6   7
ENDBRANCH   4   6
ENDBRANCH   1   4
TORSDOF 7
ENDMDL
MODEL 7
REMARK VINA RESULT:    -6.456      4.157      7.401
REMARK INTER + INTRA:         -10.374
REMARK INTER:                  -8.544
REMARK INTRA:                  -1.830
REMARK CONF_INDEPENDENT:        2.088
REMARK UNBOUND:                -1.830
REMARK  7 active torsions:
REMARK  status: ('A' for Active; 'I' for Inactive)
REMARK    1  A    between atoms: C_2  and  C_3 
REMARK    2  A    between atoms: C_2  and  S_6 
REMARK    3  A    between atoms: S_6  and  C_7 
REMARK    4  A    between atoms: C_12  and  N_13 
REMARK       I    between atoms: N_13  and  C_14 
REMARK       I    between atoms: C_14  and  N_16 
REMARK    5  A    between atoms: N_16  and  C_17 
REMARK    6  A    between atoms: C_17  and  C_18 
REMARK    7  A    between atoms: C_23  and  O_24 
ROOT
ATOM      1  C   UNL d   1      28.208 -15.093  -3.355  0.00  0.00     0.123 C 
ATOM      2  C   UNL d   1      29.125 -16.177  -2.814  0.00  0.00    -0.019 C 
ATOM      3  N   UNL d   1      29.886 -17.077  -2.366  0.00  0.00    -0.102 N 
ENDROOT
BRANCH   1   4
ATOM      4  C   UNL d   1      26.834 -15.563  -3.657  0.00  0.00     0.060 C 
ATOM      5  C   UNL d   1      26.285 -15.029  -4.973  0.00  0.00     0.022 C 
BRANCH   4   6
ATOM      6  S   UNL d   1      25.786 -14.962  -2.261  0.00  0.00    -0.122 SA
BRANCH   6   7
ATOM      7  C   UNL d   1      25.462 -16.477  -1.327  0.00  0.00     0.027 A 
ATOM      8  C   UNL d   1      24.217 -17.055  -1.654  0.00  0.00     0.021 A 
ATOM      9  C   UNL d   1      23.659 -18.072  -0.885  0.00  0.00     0.002 A 
ATOM     10  C   UNL d   1      24.366 -18.566   0.202  0.00  0.00     0.002 A 
ATOM     11  C   UNL d   1      25.642 -18.061   0.499  0.00  0.00     0.031 A 
ATOM     12  C   UNL d   1      26.234 -17.043  -0.283  0.00  0.00     0.053 A 
BRANCH  12  13
ATOM     13  N   UNL d   1      27.567 -16.647   0.065  0.00  0.00    -0.308 N 
ATOM     14  C   UNL d   1      27.968 -15.343   0.301  0.00  0.00     0.321 C 
ATOM     15  O   UNL d   1      27.335 -14.332   0.012  0.00  0.00    -0.247 OA
ATOM     16  N   UNL d   1      29.101 -15.248   1.073  0.00  0.00    -0.339 N 
ATOM     17  H   UNL d   1      29.756 -16.009   1.100  0.00  0.00     0.164 HD
ATOM     18  H   UNL d   1      28.306 -17.312  -0.113  0.00  0.00     0.170 HD
BRANCH  16  19
ATOM     19  C   UNL d   1      29.368 -14.012   1.815  0.00  0.00     0.165 C 
BRANCH  19  20
ATOM     20  C   UNL d   1      29.039 -14.051   3.277  0.00  0.00    -0.007 A 
ATOM     21  C   UNL d   1      29.988 -14.462   4.219  0.00  0.00     0.011 A 
ATOM     22  C   UNL d   1      29.632 -14.649   5.547  0.00  0.00     0.001 A 
ATOM     23  C   UNL d   1      28.350 -14.318   5.975  0.00  0.00     0.003 A 
ATOM     24  C   UNL d   1      27.412 -13.819   5.071  0.00  0.00     0.037 A 
ATOM     25  C   UNL d   1      27.756 -13.697   3.727  0.00  0.00     0.073 A 
BRANCH  25  26
ATOM     26  O   UNL d   1      26.838 -13.235   2.824  0.00  0.00    -0.360 OA
ATOM     27  H   UNL d   1      27.136 -13.446   1.923  0.00  0.00     0.217 HD
ENDBRANCH  25  26
ENDBRANCH  19  20
ENDBRANCH  16  19
ENDBRANCH  12  13
ENDBRANCH   6   7
ENDBRANCH   4   6
ENDBRANCH   1   4
TORSDOF 7
ENDMDL
MODEL 8
REMARK VINA RESULT:    -6.058      2.959      5.502
REMARK INTER + INTRA:         -10.347
REMARK INTER:                  -8.146
REMARK INTRA:                  -2.201
REMARK CONF_INDEPENDENT:        2.088
REMARK UNBOUND:                -2.201
REMARK  7 active torsions:
REMARK  status: ('A' for Active; 'I' for Inactive)
REMARK    1  A    between atoms: C_2  and  C_3 
REMARK    2  A    between atoms: C_2  and  S_6 
REMARK    3  A    between atoms: S_6  and  C_7 
REMARK    4  A    between atoms: C_12  and  N_13 
REMARK       I    between atoms: N_13  and  C_14 
REMARK       I    between atoms: C_14  and  N_16 
REMARK    5  A    between atoms: N_16  and  C_17 
REMARK    6  A    between atoms: C_17  and  C_18 
REMARK    7  A    between atoms: C_23  and  O_24 
ROOT
ATOM      1  C   UNL d   1      25.939 -15.575  -3.975  0.00  0.00     0.123 C 
ATOM      2  C   UNL d   1      26.803 -14.976  -5.072  0.00  0.00    -0.019 C 
ATOM      3  N   UNL d   1      27.520 -14.477  -5.981  0.00  0.00    -0.102 N 
ENDROOT
BRANCH   1   4
ATOM      4  C   UNL d   1      25.228 -14.567  -3.151  0.00  0.00     0.060 C 
ATOM      5  C   UNL d   1      25.458 -13.134  -3.611  0.00  0.00     0.022 C 
BRANCH   4   6
ATOM      6  S   UNL d   1      25.882 -14.778  -1.437  0.00  0.00    -0.122 SA
BRANCH   6   7
ATOM      7  C   UNL d   1      25.049 -16.283  -0.877  0.00  0.00     0.027 A 
ATOM      8  C   UNL d   1      23.662 -16.258  -1.134  0.00  0.00     0.021 A 
ATOM      9  C   UNL d   1      22.797 -17.190  -0.567  0.00  0.00     0.002 A 
ATOM     10  C   UNL d   1      23.316 -18.200   0.230  0.00  0.00     0.002 A 
ATOM     11  C   UNL d   1      24.703 -18.291   0.436  0.00  0.00     0.031 A 
ATOM     12  C   UNL d   1      25.599 -17.367  -0.149  0.00  0.00     0.053 A 
BRANCH  12  13
ATOM     13  N   UNL d   1      26.997 -17.590   0.068  0.00  0.00    -0.308 N 
ATOM     14  C   UNL d   1      27.995 -17.309  -0.851  0.00  0.00     0.321 C 
ATOM     15  O   UNL d   1      27.828 -17.075  -2.044  0.00  0.00    -0.247 OA
ATOM     16  N   UNL d   1      29.233 -17.133  -0.282  0.00  0.00    -0.339 N 
ATOM     17  H   UNL d   1      29.443 -17.556   0.605  0.00  0.00     0.164 HD
ATOM     18  H   UNL d   1      27.253 -18.210   0.823  0.00  0.00     0.170 HD
BRANCH  16  19
ATOM     19  C   UNL d   1      30.255 -16.366  -0.999  0.00  0.00     0.165 C 
BRANCH  19  20
ATOM     20  C   UNL d   1      30.437 -16.724  -2.444  0.00  0.00    -0.007 A 
ATOM     21  C   UNL d   1      31.143 -17.872  -2.819  0.00  0.00     0.011 A 
ATOM     22  C   UNL d   1      31.446 -18.113  -4.151  0.00  0.00     0.001 A 
ATOM     23  C   UNL d   1      30.949 -17.269  -5.140  0.00  0.00     0.003 A 
ATOM     24  C   UNL d   1      30.165 -16.167  -4.797  0.00  0.00     0.037 A 
ATOM     25  C   UNL d   1      29.921 -15.894  -3.453  0.00  0.00     0.073 A 
BRANCH  25  26
ATOM     26  O   UNL d   1      29.176 -14.801  -3.100  0.00  0.00    -0.360 OA
ATOM     27  H   UNL d   1      28.313 -15.095  -2.760  0.00  0.00     0.217 HD
ENDBRANCH  25  26
ENDBRANCH  19  20
ENDBRANCH  16  19
ENDBRANCH  12  13
ENDBRANCH   6   7
ENDBRANCH   4   6
ENDBRANCH   1   4
TORSDOF 7
ENDMDL
MODEL 9
REMARK VINA RESULT:    -5.545      2.966      5.437
REMARK INTER + INTRA:         -10.318
REMARK INTER:                  -7.634
REMARK INTRA:                  -2.685
REMARK CONF_INDEPENDENT:        2.088
REMARK UNBOUND:                -2.685
REMARK  7 active torsions:
REMARK  status: ('A' for Active; 'I' for Inactive)
REMARK    1  A    between atoms: C_2  and  C_3 
REMARK    2  A    between atoms: C_2  and  S_6 
REMARK    3  A    between atoms: S_6  and  C_7 
REMARK    4  A    between atoms: C_12  and  N_13 
REMARK       I    between atoms: N_13  and  C_14 
REMARK       I    between atoms: C_14  and  N_16 
REMARK    5  A    between atoms: N_16  and  C_17 
REMARK    6  A    between atoms: C_17  and  C_18 
REMARK    7  A    between atoms: C_23  and  O_24 
ROOT
ATOM      1  C   UNL d   1      25.902 -15.576  -3.956  0.00  0.00     0.123 C 
ATOM      2  C   UNL d   1      26.816 -14.998  -5.023  0.00  0.00    -0.019 C 
ATOM      3  N   UNL d   1      27.574 -14.517  -5.908  0.00  0.00    -0.102 N 
ENDROOT
BRANCH   1   4
ATOM      4  C   UNL d   1      25.246 -14.552  -3.106  0.00  0.00     0.060 C 
ATOM      5  C   UNL d   1      25.564 -13.122  -3.523  0.00  0.00     0.022 C 
BRANCH   4   6
ATOM      6  S   UNL d   1      25.872 -14.851  -1.396  0.00  0.00    -0.122 SA
BRANCH   6   7
ATOM      7  C   UNL d   1      25.109 -16.434  -0.965  0.00  0.00     0.027 A 
ATOM      8  C   UNL d   1      23.732 -16.469  -1.272  0.00  0.00     0.021 A 
ATOM      9  C   UNL d   1      22.903 -17.483  -0.799  0.00  0.00     0.002 A 
ATOM     10  C   UNL d   1      23.453 -18.513  -0.049  0.00  0.00     0.002 A 
ATOM     11  C   UNL d   1      24.835 -18.541   0.202  0.00  0.00     0.031 A 
ATOM     12  C   UNL d   1      25.695 -17.532  -0.289  0.00  0.00     0.053 A 
BRANCH  12  13
ATOM     13  N   UNL d   1      27.096 -17.692  -0.035  0.00  0.00    -0.308 N 
ATOM     14  C   UNL d   1      28.107 -17.263  -0.880  0.00  0.00     0.321 C 
ATOM     15  O   UNL d   1      27.969 -16.922  -2.050  0.00  0.00    -0.247 OA
ATOM     16  N   UNL d   1      29.309 -17.070  -0.243  0.00  0.00    -0.339 N 
ATOM     17  H   UNL d   1      29.514 -17.565   0.607  0.00  0.00     0.164 HD
ATOM     18  H   UNL d   1      27.363 -18.367   0.667  0.00  0.00     0.170 HD
BRANCH  16  19
ATOM     19  C   UNL d   1      30.306 -16.176  -0.840  0.00  0.00     0.165 C 
BRANCH  19  20
ATOM     20  C   UNL d   1      29.794 -14.836  -1.279  0.00  0.00    -0.007 A 
ATOM     21  C   UNL d   1      29.509 -13.834  -0.348  0.00  0.00     0.011 A 
ATOM     22  C   UNL d   1      28.886 -12.658  -0.742  0.00  0.00     0.001 A 
ATOM     23  C   UNL d   1      28.645 -12.419  -2.092  0.00  0.00     0.003 A 
ATOM     24  C   UNL d   1      29.005 -13.367  -3.050  0.00  0.00     0.037 A 
ATOM     25  C   UNL d   1      29.568 -14.574  -2.640  0.00  0.00     0.073 A 
BRANCH  25  26
ATOM     26  O   UNL d   1      29.901 -15.524  -3.567  0.00  0.00    -0.360 OA
ATOM     27  H   UNL d   1      29.161 -16.147  -3.671  0.00  0.00     0.217 HD
ENDBRANCH  25  26
ENDBRANCH  19  20
ENDBRANCH  16  19
ENDBRANCH  12  13
ENDBRANCH   6   7
ENDBRANCH   4   6
ENDBRANCH   1   4
TORSDOF 7
ENDMDL
