MODEL 1
REMARK VINA RESULT:   -31.150      0.000      0.000
REMARK INTER + INTRA:         -33.579
REMARK INTER:                 -32.642
REMARK INTRA:                  -0.938
REMARK CONF_INDEPENDENT:        1.492
REMARK UNBOUND:                -0.938
REMARK  5 active torsions:
REMARK  status: ('A' for Active; 'I' for Inactive)
REMARK       I    between atoms: C_2  and  N_3 
REMARK    1  A    between atoms: C_2  and  C_10 
REMARK    2  A    between atoms: N_3  and  C_4 
REMARK    3  A    between atoms: C_15  and  N_16 
REMARK    4  A    between atoms: N_16  and  C_17 
REMARK    5  A    between atoms: C_21  and  C_22 
ROOT
ATOM      1  C   UNL d   1      24.468 -17.962  -0.644  0.00  0.00     0.078 A 
ATOM      2  C   UNL d   1      25.101 -18.527   0.476  0.00  0.00     0.022 A 
ATOM      3  C   UNL d   1      26.308 -18.024   0.941  0.00  0.00     0.020 A 
ATOM      4  C   UNL d   1      26.840 -16.935   0.285  0.00  0.00     0.119 A 
ATOM      5  N   UNL d   1      26.245 -16.333  -0.774  0.00  0.00    -0.242 NA
ATOM      6  C   UNL d   1      25.058 -16.831  -1.231  0.00  0.00     0.143 A 
ENDROOT
BRANCH   6   7
ATOM      7  N   UNL d   1      24.536 -16.146  -2.332  0.00  0.00    -0.340 N 
ATOM      8  H   UNL d   1      23.783 -16.671  -2.770  0.00  0.00     0.167 HD
BRANCH   7   9
ATOM      9  C   UNL d   1      25.156 -15.201  -3.156  0.00  0.00     0.034 A 
ATOM     10  C   UNL d   1      24.713 -13.879  -3.119  0.00  0.00     0.029 A 
ATOM     11  C   UNL d   1      25.416 -12.896  -3.815  0.00  0.00     0.003 A 
ATOM     12  C   UNL d   1      26.558 -13.235  -4.571  0.00  0.00     0.016 A 
ATOM     13  C   UNL d   1      27.014 -14.569  -4.647  0.00  0.00     0.050 A 
ATOM     14  C   UNL d   1      26.279 -15.532  -3.932  0.00  0.00     0.045 A 
BRANCH  13  15
ATOM     15  C   UNL d   1      28.285 -15.034  -5.367  0.00  0.00     0.417 C 
ATOM     16  F   UNL d   1      28.673 -16.279  -4.985  0.00  0.00    -0.166 F 
ATOM     17  F   UNL d   1      28.261 -15.104  -6.726  0.00  0.00    -0.166 F 
ATOM     18  F   UNL d   1      29.347 -14.211  -5.122  0.00  0.00    -0.166 F 
ENDBRANCH  13  15
ENDBRANCH   7   9
ENDBRANCH   6   7
BRANCH   1  19
ATOM     19  C   UNL d   1      23.137 -18.543  -0.969  0.00  0.00     0.261 C 
ATOM     20  O   UNL d   1      23.018 -18.921  -2.150  0.00  0.00    -0.267 OA
ATOM     21  N   UNL d   1      22.126 -18.598  -0.021  0.00  0.00    -0.307 N 
ATOM     22  H   UNL d   1      22.309 -18.272   0.922  0.00  0.00     0.170 HD
BRANCH  21  23
ATOM     23  C   UNL d   1      20.897 -19.313  -0.148  0.00  0.00     0.129 C 
ATOM     24  C   UNL d   1      20.645 -20.448   0.610  0.00  0.00     0.050 C 
ATOM     25  C   UNL d   1      19.340 -20.951   0.746  0.00  0.00     0.005 C 
ATOM     26  C   UNL d   1      18.339 -20.456  -0.045  0.00  0.00     0.019 C 
ATOM     27  C   UNL d   1      18.689 -19.416  -0.882  0.00  0.00     0.119 C 
ATOM     28  N   UNL d   1      19.905 -18.781  -0.895  0.00  0.00    -0.243 NA
ENDBRANCH  21  23
ENDBRANCH   1  19
TORSDOF 5
ENDMDL
MODEL 2
REMARK VINA RESULT:   -29.742      1.769      2.288
REMARK INTER + INTRA:         -32.352
REMARK INTER:                 -31.233
REMARK INTRA:                  -1.118
REMARK CONF_INDEPENDENT:        1.492
REMARK UNBOUND:                -1.118
REMARK  5 active torsions:
REMARK  status: ('A' for Active; 'I' for Inactive)
REMARK       I    between atoms: C_2  and  N_3 
REMARK    1  A    between atoms: C_2  and  C_10 
REMARK    2  A    between atoms: N_3  and  C_4 
REMARK    3  A    between atoms: C_15  and  N_16 
REMARK    4  A    between atoms: N_16  and  C_17 
REMARK    5  A    between atoms: C_21  and  C_22 
ROOT
ATOM      1  C   UNL d   1      24.336 -17.945  -0.480  0.00  0.00     0.078 A 
ATOM      2  C   UNL d   1      24.929 -18.570   0.630  0.00  0.00     0.022 A 
ATOM      3  C   UNL d   1      26.155 -18.141   1.119  0.00  0.00     0.020 A 
ATOM      4  C   UNL d   1      26.747 -17.063   0.497  0.00  0.00     0.119 A 
ATOM      5  N   UNL d   1      26.193 -16.404  -0.551  0.00  0.00    -0.242 NA
ATOM      6  C   UNL d   1      24.987 -16.829  -1.030  0.00  0.00     0.143 A 
ENDROOT
BRANCH   6   7
ATOM      7  N   UNL d   1      24.510 -16.090  -2.117  0.00  0.00    -0.340 N 
ATOM      8  H   UNL d   1      23.624 -16.457  -2.452  0.00  0.00     0.167 HD
BRANCH   7   9
ATOM      9  C   UNL d   1      25.228 -15.331  -3.047  0.00  0.00     0.034 A 
ATOM     10  C   UNL d   1      25.609 -15.923  -4.251  0.00  0.00     0.029 A 
ATOM     11  C   UNL d   1      26.188 -15.142  -5.251  0.00  0.00     0.003 A 
ATOM     12  C   UNL d   1      26.409 -13.764  -5.043  0.00  0.00     0.016 A 
ATOM     13  C   UNL d   1      26.056 -13.144  -3.825  0.00  0.00     0.050 A 
ATOM     14  C   UNL d   1      25.476 -13.964  -2.841  0.00  0.00     0.045 A 
BRANCH  13  15
ATOM     15  C   UNL d   1      26.173 -11.645  -3.524  0.00  0.00     0.417 C 
ATOM     16  F   UNL d   1      26.051 -11.370  -2.200  0.00  0.00    -0.166 F 
ATOM     17  F   UNL d   1      27.321 -11.009  -3.884  0.00  0.00    -0.166 F 
ATOM     18  F   UNL d   1      25.208 -10.915  -4.157  0.00  0.00    -0.166 F 
ENDBRANCH  13  15
ENDBRANCH   7   9
ENDBRANCH   6   7
BRANCH   1  19
ATOM     19  C   UNL d   1      22.981 -18.450  -0.832  0.00  0.00     0.261 C 
ATOM     20  O   UNL d   1      22.763 -18.520  -2.056  0.00  0.00    -0.267 OA
ATOM     21  N   UNL d   1      22.053 -18.761   0.151  0.00  0.00    -0.307 N 
ATOM     22  H   UNL d   1      22.315 -18.681   1.128  0.00  0.00     0.170 HD
BRANCH  21  23
ATOM     23  C   UNL d   1      20.815 -19.444  -0.053  0.00  0.00     0.129 C 
ATOM     24  C   UNL d   1      20.466 -20.542   0.721  0.00  0.00     0.050 C 
ATOM     25  C   UNL d   1      19.138 -21.001   0.766  0.00  0.00     0.005 C 
ATOM     26  C   UNL d   1      18.222 -20.505  -0.121  0.00  0.00     0.019 C 
ATOM     27  C   UNL d   1      18.672 -19.507  -0.962  0.00  0.00     0.119 C 
ATOM     28  N   UNL d   1      19.905 -18.910  -0.896  0.00  0.00    -0.243 NA
ENDBRANCH  21  23
ENDBRANCH   1  19
TORSDOF 5
ENDMDL
