MODEL 1
REMARK VINA RESULT:    -7.271      0.000      0.000
REMARK INTER + INTRA:         -10.515
REMARK INTER:                  -8.763
REMARK INTRA:                  -1.752
REMARK CONF_INDEPENDENT:        1.492
REMARK UNBOUND:                -1.752
REMARK  5 active torsions:
REMARK  status: ('A' for Active; 'I' for Inactive)
REMARK    1  A    between atoms: C_3  and  C_2 
REMARK    2  A    between atoms: C_3  and  C_5 
REMARK       I    between atoms: C_5  and  N_7 
REMARK    3  A    between atoms: N_7  and  N_8 
REMARK       I    between atoms: N_8  and  C_9 
REMARK    4  A    between atoms: C_9  and  C_11 
REMARK    5  A    between atoms: C_17  and  O_18 
ROOT
ATOM      1  N   UNL d   1      22.978 -17.901  -0.696  0.00  0.00    -0.263 N 
ATOM      2  C   UNL d   1      24.356 -17.832  -0.510  0.00  0.00     0.272 C 
ATOM      3  O   UNL d   1      24.935 -18.575   0.294  0.00  0.00    -0.266 OA
ATOM      4  H   UNL d   1      22.470 -17.358  -1.392  0.00  0.00     0.190 HD
ENDROOT
BRANCH   2   5
ATOM      5  C   UNL d   1      25.119 -16.795  -1.292  0.00  0.00     0.066 A 
ATOM      6  C   UNL d   1      24.436 -15.805  -2.020  0.00  0.00     0.020 A 
ATOM      7  C   UNL d   1      25.140 -14.790  -2.700  0.00  0.00     0.008 A 
ATOM      8  C   UNL d   1      26.538 -14.732  -2.658  0.00  0.00    -0.059 A 
ATOM      9  C   UNL d   1      27.321 -13.659  -3.365  0.00  0.00     0.048 C 
ATOM     10  C   UNL d   1      27.222 -15.711  -1.930  0.00  0.00     0.044 A 
ATOM     11  C   UNL d   1      26.523 -16.730  -1.259  0.00  0.00     0.082 A 
BRANCH  11  12
ATOM     12  O   UNL d   1      27.250 -17.684  -0.601  0.00  0.00    -0.360 OA
ATOM     13  H   UNL d   1      26.926 -17.768   0.310  0.00  0.00     0.217 HD
ENDBRANCH  11  12
ENDBRANCH   2   5
BRANCH   1  14
ATOM     14  N   UNL d   1      22.218 -18.879   0.020  0.00  0.00    -0.267 N 
ATOM     15  C   UNL d   1      20.850 -18.990  -0.198  0.00  0.00     0.239 C 
ATOM     16  O   UNL d   1      20.268 -18.214  -0.962  0.00  0.00    -0.271 OA
ATOM     17  H   UNL d   1      22.762 -19.512   0.606  0.00  0.00     0.190 HD
BRANCH  15  18
ATOM     18  C   UNL d   1      20.105 -20.148   0.556  0.00  0.00     0.075 C 
ATOM     19  C   UNL d   1      19.963 -19.780   2.044  0.00  0.00     0.020 C 
BRANCH  18  20
ATOM     20  C   UNL d   1      18.745 -20.352  -0.146  0.00  0.00     0.009 C 
ATOM     21  C   UNL d   1      17.655 -21.325   0.294  0.00  0.00     0.006 C 
ENDBRANCH  18  20
ENDBRANCH  15  18
ENDBRANCH   1  14
TORSDOF 5
ENDMDL
MODEL 2
REMARK VINA RESULT:    -7.234      1.402      7.604
REMARK INTER + INTRA:         -10.490
REMARK INTER:                  -8.725
REMARK INTRA:                  -1.765
REMARK CONF_INDEPENDENT:        1.492
REMARK UNBOUND:                -1.765
REMARK  5 active torsions:
REMARK  status: ('A' for Active; 'I' for Inactive)
REMARK    1  A    between atoms: C_3  and  C_2 
REMARK    2  A    between atoms: C_3  and  C_5 
REMARK       I    between atoms: C_5  and  N_7 
REMARK    3  A    between atoms: N_7  and  N_8 
REMARK       I    between atoms: N_8  and  C_9 
REMARK    4  A    between atoms: C_9  and  C_11 
REMARK    5  A    between atoms: C_17  and  O_18 
ROOT
ATOM      1  N   UNL d   1      23.240 -18.453   0.212  0.00  0.00    -0.263 N 
ATOM      2  C   UNL d   1      21.954 -18.253  -0.281  0.00  0.00     0.272 C 
ATOM      3  O   UNL d   1      21.707 -17.345  -1.086  0.00  0.00    -0.266 OA
ATOM      4  H   UNL d   1      23.502 -19.225   0.822  0.00  0.00     0.190 HD
ENDROOT
BRANCH   2   5
ATOM      5  C   UNL d   1      20.859 -19.155   0.226  0.00  0.00     0.066 A 
ATOM      6  C   UNL d   1      20.656 -19.322   1.607  0.00  0.00     0.020 A 
ATOM      7  C   UNL d   1      19.592 -20.110   2.093  0.00  0.00     0.008 A 
ATOM      8  C   UNL d   1      18.701 -20.736   1.213  0.00  0.00    -0.059 A 
ATOM      9  C   UNL d   1      17.551 -21.578   1.696  0.00  0.00     0.048 C 
ATOM     10  C   UNL d   1      18.895 -20.568  -0.162  0.00  0.00     0.044 A 
ATOM     11  C   UNL d   1      19.961 -19.791  -0.648  0.00  0.00     0.082 A 
BRANCH  11  12
ATOM     12  O   UNL d   1      20.125 -19.700  -2.003  0.00  0.00    -0.360 OA
ATOM     13  H   UNL d   1      20.593 -18.878  -2.220  0.00  0.00     0.217 HD
ENDBRANCH  11  12
ENDBRANCH   2   5
BRANCH   1  14
ATOM     14  N   UNL d   1      24.310 -17.624  -0.253  0.00  0.00    -0.267 N 
ATOM     15  C   UNL d   1      25.585 -17.773   0.281  0.00  0.00     0.239 C 
ATOM     16  O   UNL d   1      25.796 -18.575   1.196  0.00  0.00    -0.271 OA
ATOM     17  H   UNL d   1      24.079 -17.009  -1.033  0.00  0.00     0.190 HD
BRANCH  15  18
ATOM     18  C   UNL d   1      26.722 -16.891  -0.347  0.00  0.00     0.075 C 
ATOM     19  C   UNL d   1      28.058 -17.651  -0.275  0.00  0.00     0.020 C 
BRANCH  18  20
ATOM     20  C   UNL d   1      26.297 -16.557  -1.793  0.00  0.00     0.009 C 
ATOM     21  C   UNL d   1      25.324 -15.455  -2.202  0.00  0.00     0.006 C 
ENDBRANCH  18  20
ENDBRANCH  15  18
ENDBRANCH   1  14
TORSDOF 5
ENDMDL
MODEL 3
REMARK VINA RESULT:    -6.669      1.785      2.457
REMARK INTER + INTRA:          -9.257
REMARK INTER:                  -8.160
REMARK INTRA:                  -1.097
REMARK CONF_INDEPENDENT:        1.492
REMARK UNBOUND:                -1.097
REMARK  5 active torsions:
REMARK  status: ('A' for Active; 'I' for Inactive)
REMARK    1  A    between atoms: C_3  and  C_2 
REMARK    2  A    between atoms: C_3  and  C_5 
REMARK       I    between atoms: C_5  and  N_7 
REMARK    3  A    between atoms: N_7  and  N_8 
REMARK       I    between atoms: N_8  and  C_9 
REMARK    4  A    between atoms: C_9  and  C_11 
REMARK    5  A    between atoms: C_17  and  O_18 
ROOT
ATOM      1  N   UNL d   1      23.576 -18.020   0.184  0.00  0.00    -0.263 N 
ATOM      2  C   UNL d   1      23.906 -16.870  -0.527  0.00  0.00     0.272 C 
ATOM      3  O   UNL d   1      23.033 -16.086  -0.926  0.00  0.00    -0.266 OA
ATOM      4  H   UNL d   1      24.261 -18.656   0.588  0.00  0.00     0.190 HD
ENDROOT
BRANCH   2   5
ATOM      5  C   UNL d   1      25.361 -16.625  -0.832  0.00  0.00     0.066 A 
ATOM      6  C   UNL d   1      26.361 -17.133   0.015  0.00  0.00     0.020 A 
ATOM      7  C   UNL d   1      27.728 -16.969  -0.296  0.00  0.00     0.008 A 
ATOM      8  C   UNL d   1      28.124 -16.308  -1.465  0.00  0.00    -0.059 A 
ATOM      9  C   UNL d   1      29.571 -16.121  -1.833  0.00  0.00     0.048 C 
ATOM     10  C   UNL d   1      27.132 -15.807  -2.315  0.00  0.00     0.044 A 
ATOM     11  C   UNL d   1      25.770 -15.961  -2.001  0.00  0.00     0.082 A 
BRANCH  11  12
ATOM     12  O   UNL d   1      24.849 -15.411  -2.849  0.00  0.00    -0.360 OA
ATOM     13  H   UNL d   1      24.192 -14.912  -2.336  0.00  0.00     0.217 HD
ENDBRANCH  11  12
ENDBRANCH   2   5
BRANCH   1  14
ATOM     14  N   UNL d   1      22.206 -18.282   0.503  0.00  0.00    -0.267 N 
ATOM     15  C   UNL d   1      21.400 -18.958  -0.406  0.00  0.00     0.239 C 
ATOM     16  O   UNL d   1      21.835 -19.286  -1.513  0.00  0.00    -0.271 OA
ATOM     17  H   UNL d   1      21.919 -18.019   1.445  0.00  0.00     0.190 HD
BRANCH  15  18
ATOM     18  C   UNL d   1      19.936 -19.288   0.056  0.00  0.00     0.075 C 
ATOM     19  C   UNL d   1      19.095 -19.700  -1.165  0.00  0.00     0.020 C 
BRANCH  18  20
ATOM     20  C   UNL d   1      20.032 -20.400   1.123  0.00  0.00     0.009 C 
ATOM     21  C   UNL d   1      19.588 -20.276   2.578  0.00  0.00     0.006 C 
ENDBRANCH  18  20
ENDBRANCH  15  18
ENDBRANCH   1  14
TORSDOF 5
ENDMDL
MODEL 4
REMARK VINA RESULT:    -6.594      1.002      1.472
REMARK INTER + INTRA:          -9.844
REMARK INTER:                  -8.085
REMARK INTRA:                  -1.758
REMARK CONF_INDEPENDENT:        1.492
REMARK UNBOUND:                -1.758
REMARK  5 active torsions:
REMARK  status: ('A' for Active; 'I' for Inactive)
REMARK    1  A    between atoms: C_3  and  C_2 
REMARK    2  A    between atoms: C_3  and  C_5 
REMARK       I    between atoms: C_5  and  N_7 
REMARK    3  A    between atoms: N_7  and  N_8 
REMARK       I    between atoms: N_8  and  C_9 
REMARK    4  A    between atoms: C_9  and  C_11 
REMARK    5  A    between atoms: C_17  and  O_18 
ROOT
ATOM      1  N   UNL d   1      22.947 -18.253  -0.640  0.00  0.00    -0.263 N 
ATOM      2  C   UNL d   1      24.234 -18.117  -0.128  0.00  0.00     0.272 C 
ATOM      3  O   UNL d   1      24.528 -18.542   0.998  0.00  0.00    -0.266 OA
ATOM      4  H   UNL d   1      22.678 -17.979  -1.583  0.00  0.00     0.190 HD
ENDROOT
BRANCH   2   5
ATOM      5  C   UNL d   1      25.254 -17.399  -0.973  0.00  0.00     0.066 A 
ATOM      6  C   UNL d   1      24.848 -16.616  -2.068  0.00  0.00     0.020 A 
ATOM      7  C   UNL d   1      25.788 -15.885  -2.825  0.00  0.00     0.008 A 
ATOM      8  C   UNL d   1      27.148 -15.908  -2.497  0.00  0.00    -0.059 A 
ATOM      9  C   UNL d   1      28.177 -15.135  -3.277  0.00  0.00     0.048 C 
ATOM     10  C   UNL d   1      27.556 -16.680  -1.404  0.00  0.00     0.044 A 
ATOM     11  C   UNL d   1      26.623 -17.417  -0.655  0.00  0.00     0.082 A 
BRANCH  11  12
ATOM     12  O   UNL d   1      27.089 -18.187   0.375  0.00  0.00    -0.360 OA
ATOM     13  H   UNL d   1      26.467 -18.146   1.119  0.00  0.00     0.217 HD
ENDBRANCH  11  12
ENDBRANCH   2   5
BRANCH   1  14
ATOM     14  N   UNL d   1      21.953 -18.938   0.128  0.00  0.00    -0.267 N 
ATOM     15  C   UNL d   1      20.623 -18.911  -0.278  0.00  0.00     0.239 C 
ATOM     16  O   UNL d   1      20.278 -18.252  -1.263  0.00  0.00    -0.271 OA
ATOM     17  H   UNL d   1      22.307 -19.493   0.906  0.00  0.00     0.190 HD
BRANCH  15  18
ATOM     18  C   UNL d   1      19.609 -19.763   0.565  0.00  0.00     0.075 C 
ATOM     19  C   UNL d   1      19.792 -21.254   0.229  0.00  0.00     0.020 C 
BRANCH  18  20
ATOM     20  C   UNL d   1      19.870 -19.445   2.053  0.00  0.00     0.009 C 
ATOM     21  C   UNL d   1      19.814 -20.451   3.200  0.00  0.00     0.006 C 
ENDBRANCH  18  20
ENDBRANCH  15  18
ENDBRANCH   1  14
TORSDOF 5
ENDMDL
MODEL 5
REMARK VINA RESULT:    -6.069      3.327      5.112
REMARK INTER + INTRA:          -9.355
REMARK INTER:                  -7.561
REMARK INTRA:                  -1.794
REMARK CONF_INDEPENDENT:        1.492
REMARK UNBOUND:                -1.794
REMARK  5 active torsions:
REMARK  status: ('A' for Active; 'I' for Inactive)
REMARK    1  A    between atoms: C_3  and  C_2 
REMARK    2  A    between atoms: C_3  and  C_5 
REMARK       I    between atoms: C_5  and  N_7 
REMARK    3  A    between atoms: N_7  and  N_8 
REMARK       I    between atoms: N_8  and  C_9 
REMARK    4  A    between atoms: C_9  and  C_11 
REMARK    5  A    between atoms: C_17  and  O_18 
ROOT
ATOM      1  N   UNL d   1      25.627 -15.590  -3.041  0.00  0.00    -0.263 N 
ATOM      2  C   UNL d   1      25.375 -14.577  -3.962  0.00  0.00     0.272 C 
ATOM      3  O   UNL d   1      24.248 -14.074  -4.074  0.00  0.00    -0.266 OA
ATOM      4  H   UNL d   1      26.549 -15.986  -2.869  0.00  0.00     0.190 HD
ENDROOT
BRANCH   2   5
ATOM      5  C   UNL d   1      26.509 -14.135  -4.849  0.00  0.00     0.066 A 
ATOM      6  C   UNL d   1      27.485 -15.056  -5.270  0.00  0.00     0.020 A 
ATOM      7  C   UNL d   1      28.513 -14.669  -6.155  0.00  0.00     0.008 A 
ATOM      8  C   UNL d   1      28.582 -13.362  -6.649  0.00  0.00    -0.059 A 
ATOM      9  C   UNL d   1      29.659 -12.916  -7.600  0.00  0.00     0.048 C 
ATOM     10  C   UNL d   1      27.609 -12.443  -6.239  0.00  0.00     0.044 A 
ATOM     11  C   UNL d   1      26.589 -12.824  -5.349  0.00  0.00     0.082 A 
BRANCH  11  12
ATOM     12  O   UNL d   1      25.694 -11.870  -4.951  0.00  0.00    -0.360 OA
ATOM     13  H   UNL d   1      24.791 -12.217  -5.032  0.00  0.00     0.217 HD
ENDBRANCH  11  12
ENDBRANCH   2   5
BRANCH   1  14
ATOM     14  N   UNL d   1      24.578 -16.030  -2.173  0.00  0.00    -0.267 N 
ATOM     15  C   UNL d   1      24.832 -17.012  -1.222  0.00  0.00     0.239 C 
ATOM     16  O   UNL d   1      25.939 -17.553  -1.154  0.00  0.00    -0.271 OA
ATOM     17  H   UNL d   1      23.700 -15.519  -2.255  0.00  0.00     0.190 HD
BRANCH  15  18
ATOM     18  C   UNL d   1      23.655 -17.373  -0.247  0.00  0.00     0.075 C 
ATOM     19  C   UNL d   1      22.530 -16.333  -0.397  0.00  0.00     0.020 C 
BRANCH  18  20
ATOM     20  C   UNL d   1      23.198 -18.807  -0.592  0.00  0.00     0.009 C 
ATOM     21  C   UNL d   1      21.764 -19.325  -0.520  0.00  0.00     0.006 C 
ENDBRANCH  18  20
ENDBRANCH  15  18
ENDBRANCH   1  14
TORSDOF 5
ENDMDL
MODEL 6
REMARK VINA RESULT:    -5.703      2.722      7.722
REMARK INTER + INTRA:          -8.931
REMARK INTER:                  -7.194
REMARK INTRA:                  -1.737
REMARK CONF_INDEPENDENT:        1.492
REMARK UNBOUND:                -1.737
REMARK  5 active torsions:
REMARK  status: ('A' for Active; 'I' for Inactive)
REMARK    1  A    between atoms: C_3  and  C_2 
REMARK    2  A    between atoms: C_3  and  C_5 
REMARK       I    between atoms: C_5  and  N_7 
REMARK    3  A    between atoms: N_7  and  N_8 
REMARK       I    between atoms: N_8  and  C_9 
REMARK    4  A    between atoms: C_9  and  C_11 
REMARK    5  A    between atoms: C_17  and  O_18 
ROOT
ATOM      1  N   UNL d   1      25.867 -15.951  -2.898  0.00  0.00    -0.263 N 
ATOM      2  C   UNL d   1      25.775 -16.183  -1.528  0.00  0.00     0.272 C 
ATOM      3  O   UNL d   1      26.655 -15.794  -0.749  0.00  0.00    -0.266 OA
ATOM      4  H   UNL d   1      25.138 -16.194  -3.566  0.00  0.00     0.190 HD
ENDROOT
BRANCH   2   5
ATOM      5  C   UNL d   1      24.586 -16.960  -1.026  0.00  0.00     0.066 A 
ATOM      6  C   UNL d   1      23.280 -16.500  -1.270  0.00  0.00     0.020 A 
ATOM      7  C   UNL d   1      22.158 -17.253  -0.864  0.00  0.00     0.008 A 
ATOM      8  C   UNL d   1      22.316 -18.485  -0.218  0.00  0.00    -0.059 A 
ATOM      9  C   UNL d   1      21.143 -19.318   0.223  0.00  0.00     0.048 C 
ATOM     10  C   UNL d   1      23.613 -18.950   0.022  0.00  0.00     0.044 A 
ATOM     11  C   UNL d   1      24.732 -18.196  -0.374  0.00  0.00     0.082 A 
BRANCH  11  12
ATOM     12  O   UNL d   1      25.975 -18.683  -0.072  0.00  0.00    -0.360 OA
ATOM     13  H   UNL d   1      26.625 -17.964  -0.119  0.00  0.00     0.217 HD
ENDBRANCH  11  12
ENDBRANCH   2   5
BRANCH   1  14
ATOM     14  N   UNL d   1      26.976 -15.208  -3.414  0.00  0.00    -0.267 N 
ATOM     15  C   UNL d   1      27.120 -15.041  -4.786  0.00  0.00     0.239 C 
ATOM     16  O   UNL d   1      26.332 -15.575  -5.573  0.00  0.00    -0.271 OA
ATOM     17  H   UNL d   1      27.567 -14.763  -2.713  0.00  0.00     0.190 HD
BRANCH  15  18
ATOM     18  C   UNL d   1      28.309 -14.136  -5.267  0.00  0.00     0.075 C 
ATOM     19  C   UNL d   1      28.827 -14.650  -6.622  0.00  0.00     0.020 C 
BRANCH  18  20
ATOM     20  C   UNL d   1      27.783 -12.686  -5.336  0.00  0.00     0.009 C 
ATOM     21  C   UNL d   1      26.340 -12.252  -5.093  0.00  0.00     0.006 C 
ENDBRANCH  18  20
ENDBRANCH  15  18
ENDBRANCH   1  14
TORSDOF 5
ENDMDL
MODEL 7
REMARK VINA RESULT:    -5.633      2.695      4.668
REMARK INTER + INTRA:          -8.918
REMARK INTER:                  -7.125
REMARK INTRA:                  -1.793
REMARK CONF_INDEPENDENT:        1.492
REMARK UNBOUND:                -1.793
REMARK  5 active torsions:
REMARK  status: ('A' for Active; 'I' for Inactive)
REMARK    1  A    between atoms: C_3  and  C_2 
REMARK    2  A    between atoms: C_3  and  C_5 
REMARK       I    between atoms: C_5  and  N_7 
REMARK    3  A    between atoms: N_7  and  N_8 
REMARK       I    between atoms: N_8  and  C_9 
REMARK    4  A    between atoms: C_9  and  C_11 
REMARK    5  A    between atoms: C_17  and  O_18 
ROOT
ATOM      1  N   UNL d   1      24.818 -15.294  -2.201  0.00  0.00    -0.263 N 
ATOM      2  C   UNL d   1      26.055 -15.162  -2.827  0.00  0.00     0.272 C 
ATOM      3  O   UNL d   1      26.938 -16.021  -2.695  0.00  0.00    -0.266 OA
ATOM      4  H   UNL d   1      24.042 -14.648  -2.334  0.00  0.00     0.190 HD
ENDROOT
BRANCH   2   5
ATOM      5  C   UNL d   1      26.302 -13.919  -3.641  0.00  0.00     0.066 A 
ATOM      6  C   UNL d   1      27.599 -13.390  -3.759  0.00  0.00     0.020 A 
ATOM      7  C   UNL d   1      27.853 -12.267  -4.574  0.00  0.00     0.008 A 
ATOM      8  C   UNL d   1      26.822 -11.657  -5.298  0.00  0.00    -0.059 A 
ATOM      9  C   UNL d   1      27.058 -10.462  -6.182  0.00  0.00     0.048 C 
ATOM     10  C   UNL d   1      25.531 -12.183  -5.189  0.00  0.00     0.044 A 
ATOM     11  C   UNL d   1      25.274 -13.296  -4.370  0.00  0.00     0.082 A 
BRANCH  11  12
ATOM     12  O   UNL d   1      23.983 -13.737  -4.270  0.00  0.00    -0.360 OA
ATOM     13  H   UNL d   1      23.391 -13.112  -4.718  0.00  0.00     0.217 HD
ENDBRANCH  11  12
ENDBRANCH   2   5
BRANCH   1  14
ATOM     14  N   UNL d   1      24.541 -16.465  -1.428  0.00  0.00    -0.267 N 
ATOM     15  C   UNL d   1      23.271 -16.661  -0.897  0.00  0.00     0.239 C 
ATOM     16  O   UNL d   1      22.391 -15.806  -1.035  0.00  0.00    -0.271 OA
ATOM     17  H   UNL d   1      25.297 -17.147  -1.382  0.00  0.00     0.190 HD
BRANCH  15  18
ATOM     18  C   UNL d   1      23.022 -18.013  -0.140  0.00  0.00     0.075 C 
ATOM     19  C   UNL d   1      21.941 -18.821  -0.879  0.00  0.00     0.020 C 
BRANCH  18  20
ATOM     20  C   UNL d   1      24.376 -18.751  -0.062  0.00  0.00     0.009 C 
ATOM     21  C   UNL d   1      25.642 -18.217   0.604  0.00  0.00     0.006 C 
ENDBRANCH  18  20
ENDBRANCH  15  18
ENDBRANCH   1  14
TORSDOF 5
ENDMDL
MODEL 8
REMARK VINA RESULT:    -5.620      2.984      4.480
REMARK INTER + INTRA:          -8.911
REMARK INTER:                  -7.112
REMARK INTRA:                  -1.800
REMARK CONF_INDEPENDENT:        1.492
REMARK UNBOUND:                -1.800
REMARK  5 active torsions:
REMARK  status: ('A' for Active; 'I' for Inactive)
REMARK    1  A    between atoms: C_3  and  C_2 
REMARK    2  A    between atoms: C_3  and  C_5 
REMARK       I    between atoms: C_5  and  N_7 
REMARK    3  A    between atoms: N_7  and  N_8 
REMARK       I    between atoms: N_8  and  C_9 
REMARK    4  A    between atoms: C_9  and  C_11 
REMARK    5  A    between atoms: C_17  and  O_18 
ROOT
ATOM      1  N   UNL d   1      25.934 -16.386  -2.308  0.00  0.00    -0.263 N 
ATOM      2  C   UNL d   1      26.108 -15.446  -3.320  0.00  0.00     0.272 C 
ATOM      3  O   UNL d   1      25.148 -14.816  -3.786  0.00  0.00    -0.266 OA
ATOM      4  H   UNL d   1      26.700 -16.878  -1.851  0.00  0.00     0.190 HD
ENDROOT
BRANCH   2   5
ATOM      5  C   UNL d   1      27.499 -15.246  -3.862  0.00  0.00     0.066 A 
ATOM      6  C   UNL d   1      28.600 -15.179  -2.991  0.00  0.00     0.020 A 
ATOM      7  C   UNL d   1      29.914 -15.060  -3.490  0.00  0.00     0.008 A 
ATOM      8  C   UNL d   1      30.158 -15.018  -4.868  0.00  0.00    -0.059 A 
ATOM      9  C   UNL d   1      31.547 -14.899  -5.436  0.00  0.00     0.048 C 
ATOM     10  C   UNL d   1      29.067 -15.091  -5.739  0.00  0.00     0.044 A 
ATOM     11  C   UNL d   1      27.755 -15.200  -5.243  0.00  0.00     0.082 A 
BRANCH  11  12
ATOM     12  O   UNL d   1      26.727 -15.222  -6.145  0.00  0.00    -0.360 OA
ATOM     13  H   UNL d   1      25.939 -14.816  -5.748  0.00  0.00     0.217 HD
ENDBRANCH  11  12
ENDBRANCH   2   5
BRANCH   1  14
ATOM     14  N   UNL d   1      24.630 -16.598  -1.760  0.00  0.00    -0.267 N 
ATOM     15  C   UNL d   1      24.447 -17.533  -0.747  0.00  0.00     0.239 C 
ATOM     16  O   UNL d   1      25.388 -18.228  -0.353  0.00  0.00    -0.271 OA
ATOM     17  H   UNL d   1      23.905 -15.968  -2.101  0.00  0.00     0.190 HD
BRANCH  15  18
ATOM     18  C   UNL d   1      23.005 -17.640  -0.135  0.00  0.00     0.075 C 
ATOM     19  C   UNL d   1      22.193 -16.391  -0.520  0.00  0.00     0.020 C 
BRANCH  18  20
ATOM     20  C   UNL d   1      22.380 -18.950  -0.662  0.00  0.00     0.009 C 
ATOM     21  C   UNL d   1      20.897 -19.179  -0.939  0.00  0.00     0.006 C 
ENDBRANCH  18  20
ENDBRANCH  15  18
ENDBRANCH   1  14
TORSDOF 5
ENDMDL
MODEL 9
REMARK VINA RESULT:    -5.517      3.264      5.463
REMARK INTER + INTRA:          -8.773
REMARK INTER:                  -7.009
REMARK INTRA:                  -1.764
REMARK CONF_INDEPENDENT:        1.492
REMARK UNBOUND:                -1.764
REMARK  5 active torsions:
REMARK  status: ('A' for Active; 'I' for Inactive)
REMARK    1  A    between atoms: C_3  and  C_2 
REMARK    2  A    between atoms: C_3  and  C_5 
REMARK       I    between atoms: C_5  and  N_7 
REMARK    3  A    between atoms: N_7  and  N_8 
REMARK       I    between atoms: N_8  and  C_9 
REMARK    4  A    between atoms: C_9  and  C_11 
REMARK    5  A    between atoms: C_17  and  O_18 
ROOT
ATOM      1  N   UNL d   1      25.950 -15.408  -3.456  0.00  0.00    -0.263 N 
ATOM      2  C   UNL d   1      25.342 -14.310  -4.059  0.00  0.00     0.272 C 
ATOM      3  O   UNL d   1      24.136 -14.075  -3.901  0.00  0.00    -0.266 OA
ATOM      4  H   UNL d   1      26.948 -15.602  -3.503  0.00  0.00     0.190 HD
ENDROOT
BRANCH   2   5
ATOM      5  C   UNL d   1      26.191 -13.435  -4.943  0.00  0.00     0.066 A 
ATOM      6  C   UNL d   1      25.904 -12.065  -5.075  0.00  0.00     0.020 A 
ATOM      7  C   UNL d   1      26.732 -11.222  -5.847  0.00  0.00     0.008 A 
ATOM      8  C   UNL d   1      27.869 -11.724  -6.490  0.00  0.00    -0.059 A 
ATOM      9  C   UNL d   1      28.778 -10.854  -7.315  0.00  0.00     0.048 C 
ATOM     10  C   UNL d   1      28.162 -13.086  -6.356  0.00  0.00     0.044 A 
ATOM     11  C   UNL d   1      27.333 -13.929  -5.596  0.00  0.00     0.082 A 
BRANCH  11  12
ATOM     12  O   UNL d   1      27.647 -15.259  -5.540  0.00  0.00    -0.360 OA
ATOM     13  H   UNL d   1      28.604 -15.362  -5.411  0.00  0.00     0.217 HD
ENDBRANCH  11  12
ENDBRANCH   2   5
BRANCH   1  14
ATOM     14  N   UNL d   1      25.180 -16.258  -2.600  0.00  0.00    -0.267 N 
ATOM     15  C   UNL d   1      25.820 -17.050  -1.653  0.00  0.00     0.239 C 
ATOM     16  O   UNL d   1      27.052 -17.074  -1.579  0.00  0.00    -0.271 OA
ATOM     17  H   UNL d   1      24.169 -16.164  -2.686  0.00  0.00     0.190 HD
BRANCH  15  18
ATOM     18  C   UNL d   1      24.900 -17.883  -0.691  0.00  0.00     0.075 C 
ATOM     19  C   UNL d   1      25.665 -18.190   0.609  0.00  0.00     0.020 C 
BRANCH  18  20
ATOM     20  C   UNL d   1      23.618 -17.057  -0.453  0.00  0.00     0.009 C 
ATOM     21  C   UNL d   1      22.190 -17.592  -0.522  0.00  0.00     0.006 C 
ENDBRANCH  18  20
ENDBRANCH  15  18
ENDBRANCH   1  14
TORSDOF 5
ENDMDL
