MODEL 1
REMARK VINA RESULT:    -7.994      0.000      0.000
REMARK INTER + INTRA:         -11.281
REMARK INTER:                 -10.082
REMARK INTRA:                  -1.199
REMARK CONF_INDEPENDENT:        2.088
REMARK UNBOUND:                -1.199
REMARK  7 active torsions:
REMARK  status: ('A' for Active; 'I' for Inactive)
REMARK    1  A    between atoms: C_6  and  N_7 
REMARK       I    between atoms: N_7  and  C_8 
REMARK    2  A    between atoms: C_8  and  C_10 
REMARK    3  A    between atoms: C_10  and  N_11 
REMARK    4  A    between atoms: N_11  and  C_12 
REMARK    5  A    between atoms: C_17  and  S_18 
REMARK    6  A    between atoms: S_18  and  C_19 
REMARK    7  A    between atoms: C_19  and  C_20 
REMARK       I    between atoms: C_20  and  N_21 
ROOT
ATOM      1  N   UNL d   1      25.692 -14.720  -1.521  0.00  0.00    -0.380 N 
ATOM      2  H   UNL d   1      26.576 -14.199  -1.541  0.00  0.00     0.160 HD
ENDROOT
BRANCH   1   3
ATOM      3  C   UNL d   1      24.936 -14.607  -2.756  0.00  0.00     0.223 C 
BRANCH   3   4
ATOM      4  C   UNL d   1      25.850 -14.807  -3.985  0.00  0.00     0.239 C 
ATOM      5  N   UNL d   1      27.215 -14.507  -3.868  0.00  0.00    -0.325 N 
ATOM      6  H   UNL d   1      27.520 -13.872  -3.141  0.00  0.00     0.169 HD
ATOM      7  O   UNL d   1      25.294 -15.192  -5.020  0.00  0.00    -0.271 OA
BRANCH   5   8
ATOM      8  C   UNL d   1      28.225 -14.907  -4.817  0.00  0.00     0.041 A 
ATOM      9  C   UNL d   1      28.260 -14.284  -6.073  0.00  0.00     0.030 A 
ATOM     10  C   UNL d   1      29.149 -14.638  -7.077  0.00  0.00     0.003 A 
ATOM     11  C   UNL d   1      30.032 -15.674  -6.871  0.00  0.00     0.007 A 
ATOM     12  C   UNL d   1      30.052 -16.345  -5.639  0.00  0.00    -0.054 A 
ATOM     13  C   UNL d   1      31.031 -17.487  -5.511  0.00  0.00     0.049 C 
ATOM     14  C   UNL d   1      29.164 -15.951  -4.581  0.00  0.00    -0.029 A 
ATOM     15  C   UNL d   1      29.281 -16.694  -3.270  0.00  0.00     0.051 C 
ENDBRANCH   5   8
ENDBRANCH   3   4
ENDBRANCH   1   3
BRANCH   1  16
ATOM     16  C   UNL d   1      25.800 -15.980  -0.911  0.00  0.00     0.045 A 
ATOM     17  C   UNL d   1      27.164 -16.311  -0.742  0.00  0.00     0.030 A 
ATOM     18  C   UNL d   1      27.592 -17.489  -0.153  0.00  0.00     0.002 A 
ATOM     19  C   UNL d   1      26.647 -18.372   0.334  0.00  0.00     0.002 A 
ATOM     20  C   UNL d   1      25.281 -18.104   0.151  0.00  0.00     0.021 A 
ATOM     21  C   UNL d   1      24.806 -16.925  -0.504  0.00  0.00     0.027 A 
BRANCH  21  22
ATOM     22  S   UNL d   1      22.948 -16.972  -0.629  0.00  0.00    -0.118 SA
BRANCH  22  23
ATOM     23  C   UNL d   1      22.341 -18.575  -0.015  0.00  0.00     0.182 C 
BRANCH  23  24
ATOM     24  C   UNL d   1      20.963 -19.046  -0.288  0.00  0.00     0.225 C 
ATOM     25  N   UNL d   1      20.591 -20.155   0.366  0.00  0.00    -0.369 N 
ATOM     26  H   UNL d   1      21.268 -20.597   0.979  0.00  0.00     0.159 HD
ATOM     27  H   UNL d   1      19.626 -20.444   0.336  0.00  0.00     0.159 HD
ATOM     28  O   UNL d   1      20.146 -18.333  -0.897  0.00  0.00    -0.273 OA
ENDBRANCH  23  24
ENDBRANCH  22  23
ENDBRANCH  21  22
ENDBRANCH   1  16
TORSDOF 7
ENDMDL
MODEL 2
REMARK VINA RESULT:    -7.530      2.713      3.940
REMARK INTER + INTRA:         -11.147
REMARK INTER:                  -9.618
REMARK INTRA:                  -1.529
REMARK CONF_INDEPENDENT:        2.088
REMARK UNBOUND:                -1.529
REMARK  7 active torsions:
REMARK  status: ('A' for Active; 'I' for Inactive)
REMARK    1  A    between atoms: C_6  and  N_7 
REMARK       I    between atoms: N_7  and  C_8 
REMARK    2  A    between atoms: C_8  and  C_10 
REMARK    3  A    between atoms: C_10  and  N_11 
REMARK    4  A    between atoms: N_11  and  C_12 
REMARK    5  A    between atoms: C_17  and  S_18 
REMARK    6  A    between atoms: S_18  and  C_19 
REMARK    7  A    between atoms: C_19  and  C_20 
REMARK       I    between atoms: C_20  and  N_21 
ROOT
ATOM      1  N   UNL d   1      25.155 -16.348  -2.766  0.00  0.00    -0.380 N 
ATOM      2  H   UNL d   1      24.232 -15.973  -3.019  0.00  0.00     0.160 HD
ENDROOT
BRANCH   1   3
ATOM      3  C   UNL d   1      26.238 -15.417  -3.028  0.00  0.00     0.223 C 
BRANCH   3   4
ATOM      4  C   UNL d   1      25.705 -14.108  -3.651  0.00  0.00     0.239 C 
ATOM      5  N   UNL d   1      26.478 -12.943  -3.537  0.00  0.00    -0.325 N 
ATOM      6  H   UNL d   1      27.168 -12.878  -2.798  0.00  0.00     0.169 HD
ATOM      7  O   UNL d   1      24.593 -14.172  -4.187  0.00  0.00    -0.271 OA
BRANCH   5   8
ATOM      8  C   UNL d   1      26.258 -11.738  -4.299  0.00  0.00     0.041 A 
ATOM      9  C   UNL d   1      25.530 -10.690  -3.716  0.00  0.00     0.030 A 
ATOM     10  C   UNL d   1      25.210  -9.518  -4.384  0.00  0.00     0.003 A 
ATOM     11  C   UNL d   1      25.585  -9.359  -5.699  0.00  0.00     0.007 A 
ATOM     12  C   UNL d   1      26.314 -10.367  -6.348  0.00  0.00    -0.054 A 
ATOM     13  C   UNL d   1      26.657 -10.122  -7.798  0.00  0.00     0.049 C 
ATOM     14  C   UNL d   1      26.686 -11.564  -5.646  0.00  0.00    -0.029 A 
ATOM     15  C   UNL d   1      27.510 -12.579  -6.403  0.00  0.00     0.051 C 
ENDBRANCH   5   8
ENDBRANCH   3   4
ENDBRANCH   1   3
BRANCH   1  16
ATOM     16  C   UNL d   1      25.156 -17.060  -1.556  0.00  0.00     0.045 A 
ATOM     17  C   UNL d   1      26.400 -16.888  -0.904  0.00  0.00     0.030 A 
ATOM     18  C   UNL d   1      26.699 -17.458   0.322  0.00  0.00     0.002 A 
ATOM     19  C   UNL d   1      25.728 -18.200   0.967  0.00  0.00     0.002 A 
ATOM     20  C   UNL d   1      24.494 -18.432   0.337  0.00  0.00     0.021 A 
ATOM     21  C   UNL d   1      24.173 -17.907  -0.953  0.00  0.00     0.027 A 
BRANCH  21  22
ATOM     22  S   UNL d   1      22.490 -18.501  -1.482  0.00  0.00    -0.118 SA
BRANCH  22  23
ATOM     23  C   UNL d   1      21.533 -18.992  -0.012  0.00  0.00     0.182 C 
BRANCH  23  24
ATOM     24  C   UNL d   1      20.112 -19.402  -0.104  0.00  0.00     0.225 C 
ATOM     25  N   UNL d   1      19.342 -18.642  -0.895  0.00  0.00    -0.369 N 
ATOM     26  H   UNL d   1      19.770 -17.846  -1.355  0.00  0.00     0.159 HD
ATOM     27  H   UNL d   1      18.407 -18.949  -1.113  0.00  0.00     0.159 HD
ATOM     28  O   UNL d   1      19.727 -20.499   0.336  0.00  0.00    -0.273 OA
ENDBRANCH  23  24
ENDBRANCH  22  23
ENDBRANCH  21  22
ENDBRANCH   1  16
TORSDOF 7
ENDMDL
MODEL 3
REMARK VINA RESULT:    -6.999      2.367      3.827
REMARK INTER + INTRA:         -11.871
REMARK INTER:                  -9.087
REMARK INTRA:                  -2.784
REMARK CONF_INDEPENDENT:        2.088
REMARK UNBOUND:                -2.784
REMARK  7 active torsions:
REMARK  status: ('A' for Active; 'I' for Inactive)
REMARK    1  A    between atoms: C_6  and  N_7 
REMARK       I    between atoms: N_7  and  C_8 
REMARK    2  A    between atoms: C_8  and  C_10 
REMARK    3  A    between atoms: C_10  and  N_11 
REMARK    4  A    between atoms: N_11  and  C_12 
REMARK    5  A    between atoms: C_17  and  S_18 
REMARK    6  A    between atoms: S_18  and  C_19 
REMARK    7  A    between atoms: C_19  and  C_20 
REMARK       I    between atoms: C_20  and  N_21 
ROOT
ATOM      1  N   UNL d   1      25.414 -15.414  -1.529  0.00  0.00    -0.380 N 
ATOM      2  H   UNL d   1      26.420 -15.572  -1.660  0.00  0.00     0.160 HD
ENDROOT
BRANCH   1   3
ATOM      3  C   UNL d   1      24.796 -14.725  -2.648  0.00  0.00     0.223 C 
BRANCH   3   4
ATOM      4  C   UNL d   1      25.718 -14.742  -3.887  0.00  0.00     0.239 C 
ATOM      5  N   UNL d   1      27.103 -14.618  -3.700  0.00  0.00    -0.325 N 
ATOM      6  H   UNL d   1      27.450 -14.194  -2.848  0.00  0.00     0.169 HD
ATOM      7  O   UNL d   1      25.155 -14.830  -4.984  0.00  0.00    -0.271 OA
BRANCH   5   8
ATOM      8  C   UNL d   1      28.093 -14.901  -4.710  0.00  0.00     0.041 A 
ATOM      9  C   UNL d   1      28.036 -14.208  -5.929  0.00  0.00     0.030 A 
ATOM     10  C   UNL d   1      28.900 -14.450  -6.986  0.00  0.00     0.003 A 
ATOM     11  C   UNL d   1      29.852 -15.437  -6.875  0.00  0.00     0.007 A 
ATOM     12  C   UNL d   1      29.967 -16.173  -5.686  0.00  0.00    -0.054 A 
ATOM     13  C   UNL d   1      31.018 -17.256  -5.663  0.00  0.00     0.049 C 
ATOM     14  C   UNL d   1      29.103 -15.895  -4.572  0.00  0.00    -0.029 A 
ATOM     15  C   UNL d   1      29.321 -16.700  -3.313  0.00  0.00     0.051 C 
ENDBRANCH   5   8
ENDBRANCH   3   4
ENDBRANCH   1   3
BRANCH   1  16
ATOM     16  C   UNL d   1      24.746 -16.510  -0.960  0.00  0.00     0.045 A 
ATOM     17  C   UNL d   1      23.368 -16.440  -1.270  0.00  0.00     0.030 A 
ATOM     18  C   UNL d   1      22.448 -17.391  -0.859  0.00  0.00     0.002 A 
ATOM     19  C   UNL d   1      22.896 -18.486  -0.146  0.00  0.00     0.002 A 
ATOM     20  C   UNL d   1      24.249 -18.575   0.221  0.00  0.00     0.021 A 
ATOM     21  C   UNL d   1      25.214 -17.583  -0.137  0.00  0.00     0.027 A 
BRANCH  21  22
ATOM     22  S   UNL d   1      26.869 -18.010   0.601  0.00  0.00    -0.118 SA
BRANCH  22  23
ATOM     23  C   UNL d   1      28.174 -17.074  -0.260  0.00  0.00     0.182 C 
BRANCH  23  24
ATOM     24  C   UNL d   1      28.333 -15.612  -0.085  0.00  0.00     0.225 C 
ATOM     25  N   UNL d   1      28.978 -15.230   1.026  0.00  0.00    -0.369 N 
ATOM     26  H   UNL d   1      29.294 -15.950   1.666  0.00  0.00     0.159 HD
ATOM     27  H   UNL d   1      29.243 -14.263   1.132  0.00  0.00     0.159 HD
ATOM     28  O   UNL d   1      28.088 -14.821  -1.013  0.00  0.00    -0.273 OA
ENDBRANCH  23  24
ENDBRANCH  22  23
ENDBRANCH  21  22
ENDBRANCH   1  16
TORSDOF 7
ENDMDL
MODEL 4
REMARK VINA RESULT:    -6.981      4.873      8.074
REMARK INTER + INTRA:         -11.217
REMARK INTER:                  -9.069
REMARK INTRA:                  -2.148
REMARK CONF_INDEPENDENT:        2.088
REMARK UNBOUND:                -2.148
REMARK  7 active torsions:
REMARK  status: ('A' for Active; 'I' for Inactive)
REMARK    1  A    between atoms: C_6  and  N_7 
REMARK       I    between atoms: N_7  and  C_8 
REMARK    2  A    between atoms: C_8  and  C_10 
REMARK    3  A    between atoms: C_10  and  N_11 
REMARK    4  A    between atoms: N_11  and  C_12 
REMARK    5  A    between atoms: C_17  and  S_18 
REMARK    6  A    between atoms: S_18  and  C_19 
REMARK    7  A    between atoms: C_19  and  C_20 
REMARK       I    between atoms: C_20  and  N_21 
ROOT
ATOM      1  N   UNL d   1      27.377 -15.184  -0.665  0.00  0.00    -0.380 N 
ATOM      2  H   UNL d   1      27.145 -14.219  -0.929  0.00  0.00     0.160 HD
ENDROOT
BRANCH   1   3
ATOM      3  C   UNL d   1      28.262 -15.264   0.482  0.00  0.00     0.223 C 
BRANCH   3   4
ATOM      4  C   UNL d   1      27.790 -14.323   1.613  0.00  0.00     0.239 C 
ATOM      5  N   UNL d   1      28.368 -14.451   2.884  0.00  0.00    -0.325 N 
ATOM      6  H   UNL d   1      28.809 -15.327   3.139  0.00  0.00     0.169 HD
ATOM      7  O   UNL d   1      26.889 -13.529   1.320  0.00  0.00    -0.271 OA
BRANCH   5   8
ATOM      8  C   UNL d   1      28.244 -13.478   3.941  0.00  0.00     0.041 A 
ATOM      9  C   UNL d   1      28.056 -12.130   3.603  0.00  0.00     0.030 A 
ATOM     10  C   UNL d   1      27.988 -11.109   4.539  0.00  0.00     0.003 A 
ATOM     11  C   UNL d   1      28.143 -11.400   5.876  0.00  0.00     0.007 A 
ATOM     12  C   UNL d   1      28.337 -12.727   6.288  0.00  0.00    -0.054 A 
ATOM     13  C   UNL d   1      28.528 -12.950   7.769  0.00  0.00     0.049 C 
ATOM     14  C   UNL d   1      28.363 -13.792   5.325  0.00  0.00    -0.029 A 
ATOM     15  C   UNL d   1      28.530 -15.197   5.855  0.00  0.00     0.051 C 
ENDBRANCH   5   8
ENDBRANCH   3   4
ENDBRANCH   1   3
BRANCH   1  16
ATOM     16  C   UNL d   1      26.281 -16.060  -0.734  0.00  0.00     0.045 A 
ATOM     17  C   UNL d   1      26.516 -17.181   0.096  0.00  0.00     0.030 A 
ATOM     18  C   UNL d   1      25.607 -18.214   0.251  0.00  0.00     0.002 A 
ATOM     19  C   UNL d   1      24.392 -18.137  -0.403  0.00  0.00     0.002 A 
ATOM     20  C   UNL d   1      24.134 -17.063  -1.271  0.00  0.00     0.021 A 
ATOM     21  C   UNL d   1      25.072 -16.009  -1.497  0.00  0.00     0.027 A 
BRANCH  21  22
ATOM     22  S   UNL d   1      24.405 -14.825  -2.770  0.00  0.00    -0.118 SA
BRANCH  22  23
ATOM     23  C   UNL d   1      25.788 -13.933  -3.551  0.00  0.00     0.182 C 
BRANCH  23  24
ATOM     24  C   UNL d   1      26.211 -12.590  -3.091  0.00  0.00     0.225 C 
ATOM     25  N   UNL d   1      25.520 -11.561  -3.602  0.00  0.00    -0.369 N 
ATOM     26  H   UNL d   1      24.780 -11.765  -4.265  0.00  0.00     0.159 HD
ATOM     27  H   UNL d   1      25.662 -10.638  -3.224  0.00  0.00     0.159 HD
ATOM     28  O   UNL d   1      26.991 -12.451  -2.134  0.00  0.00    -0.273 OA
ENDBRANCH  23  24
ENDBRANCH  22  23
ENDBRANCH  21  22
ENDBRANCH   1  16
TORSDOF 7
ENDMDL
MODEL 5
REMARK VINA RESULT:    -6.958      2.438      4.221
REMARK INTER + INTRA:         -11.637
REMARK INTER:                  -9.046
REMARK INTRA:                  -2.592
REMARK CONF_INDEPENDENT:        2.088
REMARK UNBOUND:                -2.592
REMARK  7 active torsions:
REMARK  status: ('A' for Active; 'I' for Inactive)
REMARK    1  A    between atoms: C_6  and  N_7 
REMARK       I    between atoms: N_7  and  C_8 
REMARK    2  A    between atoms: C_8  and  C_10 
REMARK    3  A    between atoms: C_10  and  N_11 
REMARK    4  A    between atoms: N_11  and  C_12 
REMARK    5  A    between atoms: C_17  and  S_18 
REMARK    6  A    between atoms: S_18  and  C_19 
REMARK    7  A    between atoms: C_19  and  C_20 
REMARK       I    between atoms: C_20  and  N_21 
ROOT
ATOM      1  N   UNL d   1      25.421 -15.651  -1.692  0.00  0.00    -0.380 N 
ATOM      2  H   UNL d   1      26.358 -15.976  -1.958  0.00  0.00     0.160 HD
ENDROOT
BRANCH   1   3
ATOM      3  C   UNL d   1      24.790 -14.834  -2.712  0.00  0.00     0.223 C 
BRANCH   3   4
ATOM      4  C   UNL d   1      25.715 -14.664  -3.937  0.00  0.00     0.239 C 
ATOM      5  N   UNL d   1      27.104 -14.718  -3.747  0.00  0.00    -0.325 N 
ATOM      6  H   UNL d   1      27.484 -14.531  -2.827  0.00  0.00     0.169 HD
ATOM      7  O   UNL d   1      25.155 -14.450  -5.018  0.00  0.00    -0.271 OA
BRANCH   5   8
ATOM      8  C   UNL d   1      28.070 -14.864  -4.809  0.00  0.00     0.041 A 
ATOM      9  C   UNL d   1      28.900 -15.994  -4.821  0.00  0.00     0.030 A 
ATOM     10  C   UNL d   1      29.901 -16.197  -5.759  0.00  0.00     0.003 A 
ATOM     11  C   UNL d   1      30.136 -15.242  -6.721  0.00  0.00     0.007 A 
ATOM     12  C   UNL d   1      29.345 -14.084  -6.770  0.00  0.00    -0.054 A 
ATOM     13  C   UNL d   1      29.692 -13.077  -7.840  0.00  0.00     0.049 C 
ATOM     14  C   UNL d   1      28.278 -13.891  -5.828  0.00  0.00    -0.029 A 
ATOM     15  C   UNL d   1      27.444 -12.640  -5.977  0.00  0.00     0.051 C 
ENDBRANCH   5   8
ENDBRANCH   3   4
ENDBRANCH   1   3
BRANCH   1  16
ATOM     16  C   UNL d   1      24.653 -16.634  -1.045  0.00  0.00     0.045 A 
ATOM     17  C   UNL d   1      23.279 -16.387  -1.270  0.00  0.00     0.030 A 
ATOM     18  C   UNL d   1      22.271 -17.196  -0.771  0.00  0.00     0.002 A 
ATOM     19  C   UNL d   1      22.617 -18.324  -0.051  0.00  0.00     0.002 A 
ATOM     20  C   UNL d   1      23.968 -18.584   0.232  0.00  0.00     0.021 A 
ATOM     21  C   UNL d   1      25.029 -17.739  -0.219  0.00  0.00     0.027 A 
BRANCH  21  22
ATOM     22  S   UNL d   1      26.659 -18.366   0.426  0.00  0.00    -0.118 SA
BRANCH  22  23
ATOM     23  C   UNL d   1      27.907 -17.045   0.302  0.00  0.00     0.182 C 
BRANCH  23  24
ATOM     24  C   UNL d   1      28.791 -16.912  -0.879  0.00  0.00     0.225 C 
ATOM     25  N   UNL d   1      29.834 -17.753  -0.917  0.00  0.00    -0.369 N 
ATOM     26  H   UNL d   1      29.955 -18.399  -0.145  0.00  0.00     0.159 HD
ATOM     27  H   UNL d   1      30.388 -17.811  -1.757  0.00  0.00     0.159 HD
ATOM     28  O   UNL d   1      28.455 -16.231  -1.864  0.00  0.00    -0.273 OA
ENDBRANCH  23  24
ENDBRANCH  22  23
ENDBRANCH  21  22
ENDBRANCH   1  16
TORSDOF 7
ENDMDL
MODEL 6
REMARK VINA RESULT:    -6.624      2.412      4.160
REMARK INTER + INTRA:         -11.615
REMARK INTER:                  -8.712
REMARK INTRA:                  -2.903
REMARK CONF_INDEPENDENT:        2.088
REMARK UNBOUND:                -2.903
REMARK  7 active torsions:
REMARK  status: ('A' for Active; 'I' for Inactive)
REMARK    1  A    between atoms: C_6  and  N_7 
REMARK       I    between atoms: N_7  and  C_8 
REMARK    2  A    between atoms: C_8  and  C_10 
REMARK    3  A    between atoms: C_10  and  N_11 
REMARK    4  A    between atoms: N_11  and  C_12 
REMARK    5  A    between atoms: C_17  and  S_18 
REMARK    6  A    between atoms: S_18  and  C_19 
REMARK    7  A    between atoms: C_19  and  C_20 
REMARK       I    between atoms: C_20  and  N_21 
ROOT
ATOM      1  N   UNL d   1      25.217 -15.190  -1.407  0.00  0.00    -0.380 N 
ATOM      2  H   UNL d   1      26.219 -15.094  -1.206  0.00  0.00     0.160 HD
ENDROOT
BRANCH   1   3
ATOM      3  C   UNL d   1      24.862 -14.769  -2.750  0.00  0.00     0.223 C 
BRANCH   3   4
ATOM      4  C   UNL d   1      25.958 -15.166  -3.763  0.00  0.00     0.239 C 
ATOM      5  N   UNL d   1      27.303 -14.995  -3.403  0.00  0.00    -0.325 N 
ATOM      6  H   UNL d   1      27.539 -14.334  -2.673  0.00  0.00     0.169 HD
ATOM      7  O   UNL d   1      25.564 -15.580  -4.858  0.00  0.00    -0.271 OA
BRANCH   5   8
ATOM      8  C   UNL d   1      28.419 -15.575  -4.110  0.00  0.00     0.041 A 
ATOM      9  C   UNL d   1      29.161 -16.591  -3.491  0.00  0.00     0.030 A 
ATOM     10  C   UNL d   1      30.287 -17.170  -4.057  0.00  0.00     0.003 A 
ATOM     11  C   UNL d   1      30.742 -16.721  -5.276  0.00  0.00     0.007 A 
ATOM     12  C   UNL d   1      30.051 -15.706  -5.954  0.00  0.00    -0.054 A 
ATOM     13  C   UNL d   1      30.638 -15.255  -7.270  0.00  0.00     0.049 C 
ATOM     14  C   UNL d   1      28.859 -15.135  -5.391  0.00  0.00    -0.029 A 
ATOM     15  C   UNL d   1      28.149 -14.079  -6.206  0.00  0.00     0.051 C 
ENDBRANCH   5   8
ENDBRANCH   3   4
ENDBRANCH   1   3
BRANCH   1  16
ATOM     16  C   UNL d   1      24.657 -16.376  -0.902  0.00  0.00     0.045 A 
ATOM     17  C   UNL d   1      23.255 -16.354  -1.084  0.00  0.00     0.030 A 
ATOM     18  C   UNL d   1      22.425 -17.394  -0.699  0.00  0.00     0.002 A 
ATOM     19  C   UNL d   1      22.988 -18.528  -0.147  0.00  0.00     0.002 A 
ATOM     20  C   UNL d   1      24.372 -18.575   0.091  0.00  0.00     0.021 A 
ATOM     21  C   UNL d   1      25.250 -17.497  -0.241  0.00  0.00     0.027 A 
BRANCH  21  22
ATOM     22  S   UNL d   1      26.985 -17.900   0.303  0.00  0.00    -0.118 SA
BRANCH  22  23
ATOM     23  C   UNL d   1      28.140 -16.687  -0.413  0.00  0.00     0.182 C 
BRANCH  23  24
ATOM     24  C   UNL d   1      28.218 -15.293   0.082  0.00  0.00     0.225 C 
ATOM     25  N   UNL d   1      28.873 -15.127   1.239  0.00  0.00    -0.369 N 
ATOM     26  H   UNL d   1      29.250 -15.950   1.696  0.00  0.00     0.159 HD
ATOM     27  H   UNL d   1      29.084 -14.194   1.555  0.00  0.00     0.159 HD
ATOM     28  O   UNL d   1      27.899 -14.333  -0.641  0.00  0.00    -0.273 OA
ENDBRANCH  23  24
ENDBRANCH  22  23
ENDBRANCH  21  22
ENDBRANCH   1  16
TORSDOF 7
ENDMDL
MODEL 7
REMARK VINA RESULT:    -6.610      2.660      4.587
REMARK INTER + INTRA:         -11.096
REMARK INTER:                  -8.698
REMARK INTRA:                  -2.398
REMARK CONF_INDEPENDENT:        2.088
REMARK UNBOUND:                -2.398
REMARK  7 active torsions:
REMARK  status: ('A' for Active; 'I' for Inactive)
REMARK    1  A    between atoms: C_6  and  N_7 
REMARK       I    between atoms: N_7  and  C_8 
REMARK    2  A    between atoms: C_8  and  C_10 
REMARK    3  A    between atoms: C_10  and  N_11 
REMARK    4  A    between atoms: N_11  and  C_12 
REMARK    5  A    between atoms: C_17  and  S_18 
REMARK    6  A    between atoms: S_18  and  C_19 
REMARK    7  A    between atoms: C_19  and  C_20 
REMARK       I    between atoms: C_20  and  N_21 
ROOT
ATOM      1  N   UNL d   1      25.177 -15.672  -1.725  0.00  0.00    -0.380 N 
ATOM      2  H   UNL d   1      25.926 -15.203  -1.202  0.00  0.00     0.160 HD
ENDROOT
BRANCH   1   3
ATOM      3  C   UNL d   1      25.536 -15.961  -3.101  0.00  0.00     0.223 C 
BRANCH   3   4
ATOM      4  C   UNL d   1      25.624 -14.663  -3.935  0.00  0.00     0.239 C 
ATOM      5  N   UNL d   1      26.885 -14.100  -4.177  0.00  0.00    -0.325 N 
ATOM      6  H   UNL d   1      27.654 -14.327  -3.559  0.00  0.00     0.169 HD
ATOM      7  O   UNL d   1      24.548 -14.182  -4.307  0.00  0.00    -0.271 OA
BRANCH   5   8
ATOM      8  C   UNL d   1      27.148 -13.076  -5.158  0.00  0.00     0.041 A 
ATOM      9  C   UNL d   1      26.470 -11.853  -5.062  0.00  0.00     0.030 A 
ATOM     10  C   UNL d   1      26.603 -10.829  -5.987  0.00  0.00     0.003 A 
ATOM     11  C   UNL d   1      27.413 -11.006  -7.086  0.00  0.00     0.007 A 
ATOM     12  C   UNL d   1      28.122 -12.205  -7.250  0.00  0.00    -0.054 A 
ATOM     13  C   UNL d   1      28.962 -12.325  -8.499  0.00  0.00     0.049 C 
ATOM     14  C   UNL d   1      28.021 -13.251  -6.270  0.00  0.00    -0.029 A 
ATOM     15  C   UNL d   1      28.852 -14.492  -6.498  0.00  0.00     0.051 C 
ENDBRANCH   5   8
ENDBRANCH   3   4
ENDBRANCH   1   3
BRANCH   1  16
ATOM     16  C   UNL d   1      24.512 -16.661  -0.981  0.00  0.00     0.045 A 
ATOM     17  C   UNL d   1      23.114 -16.505  -1.127  0.00  0.00     0.030 A 
ATOM     18  C   UNL d   1      22.190 -17.342  -0.523  0.00  0.00     0.002 A 
ATOM     19  C   UNL d   1      22.647 -18.408   0.228  0.00  0.00     0.002 A 
ATOM     20  C   UNL d   1      24.026 -18.575   0.436  0.00  0.00     0.021 A 
ATOM     21  C   UNL d   1      25.005 -17.696  -0.126  0.00  0.00     0.027 A 
BRANCH  21  22
ATOM     22  S   UNL d   1      26.707 -18.192   0.443  0.00  0.00    -0.118 SA
BRANCH  22  23
ATOM     23  C   UNL d   1      27.953 -17.450  -0.658  0.00  0.00     0.182 C 
BRANCH  23  24
ATOM     24  C   UNL d   1      28.262 -16.001  -0.625  0.00  0.00     0.225 C 
ATOM     25  N   UNL d   1      28.987 -15.589   0.423  0.00  0.00    -0.369 N 
ATOM     26  H   UNL d   1      29.258 -16.278   1.117  0.00  0.00     0.159 HD
ATOM     27  H   UNL d   1      29.351 -14.649   0.430  0.00  0.00     0.159 HD
ATOM     28  O   UNL d   1      28.058 -15.275  -1.614  0.00  0.00    -0.273 OA
ENDBRANCH  23  24
ENDBRANCH  22  23
ENDBRANCH  21  22
ENDBRANCH   1  16
TORSDOF 7
ENDMDL
MODEL 8
REMARK VINA RESULT:    -6.482      3.068      7.572
REMARK INTER + INTRA:         -11.106
REMARK INTER:                  -8.570
REMARK INTRA:                  -2.536
REMARK CONF_INDEPENDENT:        2.088
REMARK UNBOUND:                -2.536
REMARK  7 active torsions:
REMARK  status: ('A' for Active; 'I' for Inactive)
REMARK    1  A    between atoms: C_6  and  N_7 
REMARK       I    between atoms: N_7  and  C_8 
REMARK    2  A    between atoms: C_8  and  C_10 
REMARK    3  A    between atoms: C_10  and  N_11 
REMARK    4  A    between atoms: N_11  and  C_12 
REMARK    5  A    between atoms: C_17  and  S_18 
REMARK    6  A    between atoms: S_18  and  C_19 
REMARK    7  A    between atoms: C_19  and  C_20 
REMARK       I    between atoms: C_20  and  N_21 
ROOT
ATOM      1  N   UNL d   1      25.915 -12.928  -5.144  0.00  0.00    -0.380 N 
ATOM      2  H   UNL d   1      26.284 -13.795  -5.555  0.00  0.00     0.160 HD
ENDROOT
BRANCH   1   3
ATOM      3  C   UNL d   1      25.041 -13.163  -4.010  0.00  0.00     0.223 C 
BRANCH   3   4
ATOM      4  C   UNL d   1      25.249 -14.581  -3.434  0.00  0.00     0.239 C 
ATOM      5  N   UNL d   1      25.153 -14.767  -2.047  0.00  0.00    -0.325 N 
ATOM      6  H   UNL d   1      25.286 -13.974  -1.432  0.00  0.00     0.169 HD
ATOM      7  O   UNL d   1      25.529 -15.466  -4.250  0.00  0.00    -0.271 OA
BRANCH   5   8
ATOM      8  C   UNL d   1      25.037 -16.051  -1.400  0.00  0.00     0.041 A 
ATOM      9  C   UNL d   1      23.769 -16.634  -1.270  0.00  0.00     0.030 A 
ATOM     10  C   UNL d   1      23.542 -17.833  -0.611  0.00  0.00     0.003 A 
ATOM     11  C   UNL d   1      24.593 -18.492  -0.015  0.00  0.00     0.007 A 
ATOM     12  C   UNL d   1      25.891 -17.967  -0.103  0.00  0.00    -0.054 A 
ATOM     13  C   UNL d   1      26.978 -18.739   0.605  0.00  0.00     0.049 C 
ATOM     14  C   UNL d   1      26.137 -16.749  -0.823  0.00  0.00    -0.029 A 
ATOM     15  C   UNL d   1      27.569 -16.276  -0.909  0.00  0.00     0.051 C 
ENDBRANCH   5   8
ENDBRANCH   3   4
ENDBRANCH   1   3
BRANCH   1  16
ATOM     16  C   UNL d   1      26.869 -11.901  -5.059  0.00  0.00     0.045 A 
ATOM     17  C   UNL d   1      26.331 -10.707  -5.593  0.00  0.00     0.030 A 
ATOM     18  C   UNL d   1      27.030  -9.513  -5.635  0.00  0.00     0.002 A 
ATOM     19  C   UNL d   1      28.301  -9.464  -5.095  0.00  0.00     0.002 A 
ATOM     20  C   UNL d   1      28.890 -10.636  -4.592  0.00  0.00     0.021 A 
ATOM     21  C   UNL d   1      28.219 -11.898  -4.585  0.00  0.00     0.027 A 
BRANCH  21  22
ATOM     22  S   UNL d   1      29.352 -13.218  -3.923  0.00  0.00    -0.118 SA
BRANCH  22  23
ATOM     23  C   UNL d   1      29.465 -14.579  -5.128  0.00  0.00     0.182 C 
BRANCH  23  24
ATOM     24  C   UNL d   1      28.535 -14.686  -6.276  0.00  0.00     0.225 C 
ATOM     25  N   UNL d   1      29.070 -14.434  -7.479  0.00  0.00    -0.369 N 
ATOM     26  H   UNL d   1      30.050 -14.177  -7.521  0.00  0.00     0.159 HD
ATOM     27  H   UNL d   1      28.530 -14.628  -8.307  0.00  0.00     0.159 HD
ATOM     28  O   UNL d   1      27.408 -15.196  -6.148  0.00  0.00    -0.273 OA
ENDBRANCH  23  24
ENDBRANCH  22  23
ENDBRANCH  21  22
ENDBRANCH   1  16
TORSDOF 7
ENDMDL
MODEL 9
REMARK VINA RESULT:    -6.104      4.119      7.454
REMARK INTER + INTRA:         -11.089
REMARK INTER:                  -8.192
REMARK INTRA:                  -2.897
REMARK CONF_INDEPENDENT:        2.088
REMARK UNBOUND:                -2.897
REMARK  7 active torsions:
REMARK  status: ('A' for Active; 'I' for Inactive)
REMARK    1  A    between atoms: C_6  and  N_7 
REMARK       I    between atoms: N_7  and  C_8 
REMARK    2  A    between atoms: C_8  and  C_10 
REMARK    3  A    between atoms: C_10  and  N_11 
REMARK    4  A    between atoms: N_11  and  C_12 
REMARK    5  A    between atoms: C_17  and  S_18 
REMARK    6  A    between atoms: S_18  and  C_19 
REMARK    7  A    between atoms: C_19  and  C_20 
REMARK       I    between atoms: C_20  and  N_21 
ROOT
ATOM      1  N   UNL d   1      27.329 -16.758  -1.138  0.00  0.00    -0.380 N 
ATOM      2  H   UNL d   1      27.580 -16.136  -1.916  0.00  0.00     0.160 HD
ENDROOT
BRANCH   1   3
ATOM      3  C   UNL d   1      28.145 -16.548   0.044  0.00  0.00     0.223 C 
BRANCH   3   4
ATOM      4  C   UNL d   1      27.737 -15.250   0.775  0.00  0.00     0.239 C 
ATOM      5  N   UNL d   1      27.842 -15.201   2.173  0.00  0.00    -0.325 N 
ATOM      6  H   UNL d   1      27.850 -16.066   2.698  0.00  0.00     0.169 HD
ATOM      7  O   UNL d   1      27.301 -14.337   0.064  0.00  0.00    -0.271 OA
BRANCH   5   8
ATOM      8  C   UNL d   1      27.777 -13.991   2.956  0.00  0.00     0.041 A 
ATOM      9  C   UNL d   1      27.577 -12.768   2.300  0.00  0.00     0.030 A 
ATOM     10  C   UNL d   1      27.561 -11.544   2.952  0.00  0.00     0.003 A 
ATOM     11  C   UNL d   1      27.783 -11.493   4.309  0.00  0.00     0.007 A 
ATOM     12  C   UNL d   1      27.992 -12.677   5.032  0.00  0.00    -0.054 A 
ATOM     13  C   UNL d   1      28.257 -12.525   6.510  0.00  0.00     0.049 C 
ATOM     14  C   UNL d   1      27.965 -13.950   4.367  0.00  0.00    -0.029 A 
ATOM     15  C   UNL d   1      28.152 -15.180   5.225  0.00  0.00     0.051 C 
ENDBRANCH   5   8
ENDBRANCH   3   4
ENDBRANCH   1   3
BRANCH   1  16
ATOM     16  C   UNL d   1      25.943 -16.924  -0.981  0.00  0.00     0.045 A 
ATOM     17  C   UNL d   1      25.690 -18.024  -0.130  0.00  0.00     0.030 A 
ATOM     18  C   UNL d   1      24.415 -18.429   0.228  0.00  0.00     0.002 A 
ATOM     19  C   UNL d   1      23.332 -17.705  -0.232  0.00  0.00     0.002 A 
ATOM     20  C   UNL d   1      23.535 -16.630  -1.113  0.00  0.00     0.021 A 
ATOM     21  C   UNL d   1      24.834 -16.221  -1.548  0.00  0.00     0.027 A 
BRANCH  21  22
ATOM     22  S   UNL d   1      24.685 -14.825  -2.772  0.00  0.00    -0.118 SA
BRANCH  22  23
ATOM     23  C   UNL d   1      26.131 -14.836  -3.880  0.00  0.00     0.182 C 
BRANCH  23  24
ATOM     24  C   UNL d   1      27.511 -14.681  -3.366  0.00  0.00     0.225 C 
ATOM     25  N   UNL d   1      27.640 -13.908  -2.279  0.00  0.00    -0.369 N 
ATOM     26  H   UNL d   1      26.804 -13.477  -1.898  0.00  0.00     0.159 HD
ATOM     27  H   UNL d   1      28.525 -13.878  -1.799  0.00  0.00     0.159 HD
ATOM     28  O   UNL d   1      28.438 -15.401  -3.778  0.00  0.00    -0.273 OA
ENDBRANCH  23  24
ENDBRANCH  22  23
ENDBRANCH  21  22
ENDBRANCH   1  16
TORSDOF 7
ENDMDL
