MODEL 1
REMARK VINA RESULT:   -31.013      0.000      0.000
REMARK INTER + INTRA:         -36.197
REMARK INTER:                 -35.786
REMARK INTRA:                  -0.411
REMARK CONF_INDEPENDENT:        4.773
REMARK UNBOUND:                -0.411
REMARK  16 active torsions:
REMARK  status: ('A' for Active; 'I' for Inactive)
REMARK    1  A    between atoms: C_2  and  N_3 
REMARK    2  A    between atoms: C_2  and  C_8 
REMARK    3  A    between atoms: N_3  and  N_4 
REMARK    4  A    between atoms: N_4  and  C_5 
REMARK    5  A    between atoms: C_5  and  N_6 
REMARK    6  A    between atoms: C_11  and  O_12 
REMARK    7  A    between atoms: O_12  and  C_13 
REMARK    8  A    between atoms: C_13  and  C_14 
REMARK    9  A    between atoms: C_14  and  C_15 
REMARK   10  A    between atoms: C_15  and  O_16 
REMARK   11  A    between atoms: O_16  and  C_17 
REMARK   12  A    between atoms: C_20  and  C_21 
REMARK   13  A    between atoms: C_21  and  N_23 
REMARK   14  A    between atoms: N_23  and  N_24 
REMARK   15  A    between atoms: N_24  and  C_25 
REMARK   16  A    between atoms: C_25  and  N_26 
ROOT
ATOM      1  C   UNL d   1      28.117 -15.562  -0.142  0.00  0.00     0.053 C 
ENDROOT
BRANCH   1   2
ATOM      2  C   UNL d   1      26.819 -16.337   0.085  0.00  0.00     0.178 C 
BRANCH   2   3
ATOM      3  O   UNL d   1      25.885 -16.037  -0.954  0.00  0.00    -0.351 OA
BRANCH   3   4
ATOM      4  C   UNL d   1      24.659 -16.645  -0.863  0.00  0.00     0.068 A 
ATOM      5  C   UNL d   1      24.681 -18.040  -0.887  0.00  0.00     0.037 A 
ATOM      6  C   UNL d   1      23.489 -18.771  -0.882  0.00  0.00     0.016 A 
ATOM      7  C   UNL d   1      22.264 -18.119  -0.706  0.00  0.00    -0.010 A 
ATOM      8  C   UNL d   1      22.235 -16.722  -0.679  0.00  0.00     0.016 A 
ATOM      9  C   UNL d   1      23.428 -15.991  -0.765  0.00  0.00     0.037 A 
BRANCH   7  10
ATOM     10  C   UNL d   1      21.015 -18.914  -0.457  0.00  0.00     0.061 C 
ATOM     11  C   UNL d   1      21.176 -20.173   0.383  0.00  0.00     0.073 C 
BRANCH  10  12
ATOM     12  N   UNL d   1      19.819 -18.636  -0.895  0.00  0.00    -0.177 NA
BRANCH  12  13
ATOM     13  N   UNL d   1      18.831 -19.576  -0.760  0.00  0.00    -0.253 N 
ATOM     14  H   UNL d   1      18.371 -19.961  -1.576  0.00  0.00     0.191 HD
BRANCH  13  15
ATOM     15  C   UNL d   1      18.409 -20.076   0.431  0.00  0.00     0.185 C 
ATOM     16  S   UNL d   1      17.697 -21.574   0.530  0.00  0.00    -0.040 SA
BRANCH  15  17
ATOM     17  N   UNL d   1      18.595 -19.311   1.524  0.00  0.00    -0.375 N 
ATOM     18  H   UNL d   1      19.416 -18.721   1.564  0.00  0.00     0.158 HD
ATOM     19  H   UNL d   1      17.967 -19.380   2.310  0.00  0.00     0.158 HD
ENDBRANCH  15  17
ENDBRANCH  13  15
ENDBRANCH  12  13
ENDBRANCH  10  12
ENDBRANCH   7  10
ENDBRANCH   3   4
ENDBRANCH   2   3
ENDBRANCH   1   2
BRANCH   1  20
ATOM     20  C   UNL d   1      28.446 -14.701   1.077  0.00  0.00     0.178 C 
BRANCH  20  21
ATOM     21  O   UNL d   1      27.438 -14.873   2.079  0.00  0.00    -0.351 OA
BRANCH  21  22
ATOM     22  C   UNL d   1      27.745 -14.325   3.299  0.00  0.00     0.068 A 
ATOM     23  C   UNL d   1      28.218 -15.196   4.278  0.00  0.00     0.037 A 
ATOM     24  C   UNL d   1      28.504 -14.730   5.572  0.00  0.00     0.016 A 
ATOM     25  C   UNL d   1      28.379 -13.370   5.893  0.00  0.00    -0.010 A 
ATOM     26  C   UNL d   1      27.861 -12.513   4.914  0.00  0.00     0.016 A 
ATOM     27  C   UNL d   1      27.532 -12.991   3.635  0.00  0.00     0.037 A 
BRANCH  25  28
ATOM     28  C   UNL d   1      28.824 -12.776   7.216  0.00  0.00     0.061 C 
ATOM     29  C   UNL d   1      30.112 -13.285   7.849  0.00  0.00     0.073 C 
BRANCH  28  30
ATOM     30  N   UNL d   1      28.109 -11.819   7.749  0.00  0.00    -0.177 NA
BRANCH  30  31
ATOM     31  N   UNL d   1      28.426 -11.396   9.016  0.00  0.00    -0.253 N 
ATOM     32  H   UNL d   1      28.529 -10.408   9.221  0.00  0.00     0.191 HD
BRANCH  31  33
ATOM     33  C   UNL d   1      28.617 -12.248  10.065  0.00  0.00     0.185 C 
ATOM     34  S   UNL d   1      27.813 -13.698  10.170  0.00  0.00    -0.040 SA
BRANCH  33  35
ATOM     35  N   UNL d   1      29.490 -11.864  11.021  0.00  0.00    -0.375 N 
ATOM     36  H   UNL d   1      30.406 -12.291  11.040  0.00  0.00     0.158 HD
ATOM     37  H   UNL d   1      29.234 -11.160  11.698  0.00  0.00     0.158 HD
ENDBRANCH  33  35
ENDBRANCH  31  33
ENDBRANCH  30  31
ENDBRANCH  28  30
ENDBRANCH  25  28
ENDBRANCH  21  22
ENDBRANCH  20  21
ENDBRANCH   1  20
TORSDOF 16
ENDMDL
MODEL 2
REMARK VINA RESULT:   -30.345      6.756      8.743
REMARK INTER + INTRA:         -36.145
REMARK INTER:                 -35.118
REMARK INTRA:                  -1.027
REMARK CONF_INDEPENDENT:        4.773
REMARK UNBOUND:                -1.027
REMARK  16 active torsions:
REMARK  status: ('A' for Active; 'I' for Inactive)
REMARK    1  A    between atoms: C_2  and  N_3 
REMARK    2  A    between atoms: C_2  and  C_8 
REMARK    3  A    between atoms: N_3  and  N_4 
REMARK    4  A    between atoms: N_4  and  C_5 
REMARK    5  A    between atoms: C_5  and  N_6 
REMARK    6  A    between atoms: C_11  and  O_12 
REMARK    7  A    between atoms: O_12  and  C_13 
REMARK    8  A    between atoms: C_13  and  C_14 
REMARK    9  A    between atoms: C_14  and  C_15 
REMARK   10  A    between atoms: C_15  and  O_16 
REMARK   11  A    between atoms: O_16  and  C_17 
REMARK   12  A    between atoms: C_20  and  C_21 
REMARK   13  A    between atoms: C_21  and  N_23 
REMARK   14  A    between atoms: N_23  and  N_24 
REMARK   15  A    between atoms: N_24  and  C_25 
REMARK   16  A    between atoms: C_25  and  N_26 
ROOT
ATOM      1  C   UNL d   1      28.090 -17.068  -1.134  0.00  0.00     0.053 C 
ENDROOT
BRANCH   1   2
ATOM      2  C   UNL d   1      26.998 -17.034  -0.065  0.00  0.00     0.178 C 
BRANCH   2   3
ATOM      3  O   UNL d   1      25.910 -16.218  -0.505  0.00  0.00    -0.351 OA
BRANCH   3   4
ATOM      4  C   UNL d   1      24.677 -16.817  -0.540  0.00  0.00     0.068 A 
ATOM      5  C   UNL d   1      24.683 -18.204  -0.391  0.00  0.00     0.037 A 
ATOM      6  C   UNL d   1      23.496 -18.936  -0.490  0.00  0.00     0.016 A 
ATOM      7  C   UNL d   1      22.268 -18.275  -0.595  0.00  0.00    -0.010 A 
ATOM      8  C   UNL d   1      22.255 -16.885  -0.744  0.00  0.00     0.016 A 
ATOM      9  C   UNL d   1      23.456 -16.163  -0.724  0.00  0.00     0.037 A 
BRANCH   7  10
ATOM     10  C   UNL d   1      20.984 -19.040  -0.457  0.00  0.00     0.061 C 
ATOM     11  C   UNL d   1      21.073 -20.381   0.257  0.00  0.00     0.073 C 
BRANCH  10  12
ATOM     12  N   UNL d   1      19.812 -18.674  -0.895  0.00  0.00    -0.177 NA
BRANCH  12  13
ATOM     13  N   UNL d   1      18.737 -19.494  -0.673  0.00  0.00    -0.253 N 
ATOM     14  H   UNL d   1      18.122 -19.755  -1.434  0.00  0.00     0.191 HD
BRANCH  13  15
ATOM     15  C   UNL d   1      18.422 -20.031   0.535  0.00  0.00     0.185 C 
ATOM     16  S   UNL d   1      17.882 -21.597   0.664  0.00  0.00    -0.040 SA
BRANCH  15  17
ATOM     17  N   UNL d   1      18.569 -19.245   1.619  0.00  0.00    -0.375 N 
ATOM     18  H   UNL d   1      18.887 -18.295   1.484  0.00  0.00     0.158 HD
ATOM     19  H   UNL d   1      18.433 -19.621   2.545  0.00  0.00     0.158 HD
ENDBRANCH  15  17
ENDBRANCH  13  15
ENDBRANCH  12  13
ENDBRANCH  10  12
ENDBRANCH   7  10
ENDBRANCH   3   4
ENDBRANCH   2   3
ENDBRANCH   1   2
BRANCH   1  20
ATOM     20  C   UNL d   1      28.052 -15.793  -1.977  0.00  0.00     0.178 C 
BRANCH  20  21
ATOM     21  O   UNL d   1      27.260 -16.009  -3.149  0.00  0.00    -0.351 OA
BRANCH  21  22
ATOM     22  C   UNL d   1      27.003 -14.879  -3.882  0.00  0.00     0.068 A 
ATOM     23  C   UNL d   1      28.029 -14.413  -4.702  0.00  0.00     0.037 A 
ATOM     24  C   UNL d   1      27.870 -13.231  -5.445  0.00  0.00     0.016 A 
ATOM     25  C   UNL d   1      26.658 -12.525  -5.428  0.00  0.00    -0.010 A 
ATOM     26  C   UNL d   1      25.651 -12.979  -4.567  0.00  0.00     0.016 A 
ATOM     27  C   UNL d   1      25.829 -14.135  -3.791  0.00  0.00     0.037 A 
BRANCH  25  28
ATOM     28  C   UNL d   1      26.366 -11.339  -6.327  0.00  0.00     0.061 C 
ATOM     29  C   UNL d   1      27.352 -11.005  -7.439  0.00  0.00     0.073 C 
BRANCH  28  30
ATOM     30  N   UNL d   1      25.258 -10.668  -6.145  0.00  0.00    -0.177 NA
BRANCH  30  31
ATOM     31  N   UNL d   1      25.233  -9.342  -6.497  0.00  0.00    -0.253 N 
ATOM     32  H   UNL d   1      25.641  -9.030  -7.371  0.00  0.00     0.191 HD
BRANCH  31  33
ATOM     33  C   UNL d   1      24.669  -8.370  -5.720  0.00  0.00     0.185 C 
ATOM     34  S   UNL d   1      24.398  -6.837  -6.300  0.00  0.00    -0.040 SA
BRANCH  33  35
ATOM     35  N   UNL d   1      24.338  -8.706  -4.455  0.00  0.00    -0.375 N 
ATOM     36  H   UNL d   1      24.030  -9.651  -4.270  0.00  0.00     0.158 HD
ATOM     37  H   UNL d   1      24.404  -8.028  -3.710  0.00  0.00     0.158 HD
ENDBRANCH  33  35
ENDBRANCH  31  33
ENDBRANCH  30  31
ENDBRANCH  28  30
ENDBRANCH  25  28
ENDBRANCH  21  22
ENDBRANCH  20  21
ENDBRANCH   1  20
TORSDOF 16
ENDMDL
MODEL 3
REMARK VINA RESULT:   -30.243      1.620     11.809
REMARK INTER + INTRA:         -35.317
REMARK INTER:                 -35.016
REMARK INTRA:                  -0.301
REMARK CONF_INDEPENDENT:        4.773
REMARK UNBOUND:                -0.301
REMARK  16 active torsions:
REMARK  status: ('A' for Active; 'I' for Inactive)
REMARK    1  A    between atoms: C_2  and  N_3 
REMARK    2  A    between atoms: C_2  and  C_8 
REMARK    3  A    between atoms: N_3  and  N_4 
REMARK    4  A    between atoms: N_4  and  C_5 
REMARK    5  A    between atoms: C_5  and  N_6 
REMARK    6  A    between atoms: C_11  and  O_12 
REMARK    7  A    between atoms: O_12  and  C_13 
REMARK    8  A    between atoms: C_13  and  C_14 
REMARK    9  A    between atoms: C_14  and  C_15 
REMARK   10  A    between atoms: C_15  and  O_16 
REMARK   11  A    between atoms: O_16  and  C_17 
REMARK   12  A    between atoms: C_20  and  C_21 
REMARK   13  A    between atoms: C_21  and  N_23 
REMARK   14  A    between atoms: N_23  and  N_24 
REMARK   15  A    between atoms: N_24  and  C_25 
REMARK   16  A    between atoms: C_25  and  N_26 
ROOT
ATOM      1  C   UNL d   1      27.748 -15.384  -0.172  0.00  0.00     0.053 C 
ENDROOT
BRANCH   1   2
ATOM      2  C   UNL d   1      28.443 -15.033   1.143  0.00  0.00     0.178 C 
BRANCH   2   3
ATOM      3  O   UNL d   1      27.474 -14.618   2.109  0.00  0.00    -0.351 OA
BRANCH   3   4
ATOM      4  C   UNL d   1      27.956 -14.293   3.352  0.00  0.00     0.068 A 
ATOM      5  C   UNL d   1      28.251 -12.942   3.542  0.00  0.00     0.037 A 
ATOM      6  C   UNL d   1      28.824 -12.502   4.739  0.00  0.00     0.016 A 
ATOM      7  C   UNL d   1      28.976 -13.383   5.815  0.00  0.00    -0.010 A 
ATOM      8  C   UNL d   1      28.681 -14.736   5.630  0.00  0.00     0.016 A 
ATOM      9  C   UNL d   1      28.181 -15.188   4.401  0.00  0.00     0.037 A 
BRANCH   7  10
ATOM     10  C   UNL d   1      29.361 -12.862   7.169  0.00  0.00     0.061 C 
ATOM     11  C   UNL d   1      28.536 -11.700   7.702  0.00  0.00     0.073 C 
BRANCH  10  12
ATOM     12  N   UNL d   1      30.331 -13.301   7.921  0.00  0.00    -0.177 NA
BRANCH  12  13
ATOM     13  N   UNL d   1      31.603 -12.847   7.690  0.00  0.00    -0.253 N 
ATOM     14  H   UNL d   1      31.938 -12.709   6.744  0.00  0.00     0.191 HD
BRANCH  13  15
ATOM     15  C   UNL d   1      32.492 -12.530   8.669  0.00  0.00     0.185 C 
ATOM     16  S   UNL d   1      32.019 -11.674  10.012  0.00  0.00    -0.040 SA
BRANCH  15  17
ATOM     17  N   UNL d   1      33.765 -12.940   8.506  0.00  0.00    -0.375 N 
ATOM     18  H   UNL d   1      34.500 -12.246   8.527  0.00  0.00     0.158 HD
ATOM     19  H   UNL d   1      33.968 -13.905   8.298  0.00  0.00     0.158 HD
ENDBRANCH  15  17
ENDBRANCH  13  15
ENDBRANCH  12  13
ENDBRANCH  10  12
ENDBRANCH   7  10
ENDBRANCH   3   4
ENDBRANCH   2   3
ENDBRANCH   1   2
BRANCH   1  20
ATOM     20  C   UNL d   1      26.520 -16.256   0.089  0.00  0.00     0.178 C 
BRANCH  20  21
ATOM     21  O   UNL d   1      25.522 -16.000  -0.905  0.00  0.00    -0.351 OA
BRANCH  21  22
ATOM     22  C   UNL d   1      24.391 -16.767  -0.790  0.00  0.00     0.068 A 
ATOM     23  C   UNL d   1      24.574 -18.130  -0.568  0.00  0.00     0.037 A 
ATOM     24  C   UNL d   1      23.471 -18.997  -0.493  0.00  0.00     0.016 A 
ATOM     25  C   UNL d   1      22.160 -18.506  -0.580  0.00  0.00    -0.010 A 
ATOM     26  C   UNL d   1      21.990 -17.142  -0.847  0.00  0.00     0.016 A 
ATOM     27  C   UNL d   1      23.096 -16.285  -0.967  0.00  0.00     0.037 A 
BRANCH  25  28
ATOM     28  C   UNL d   1      20.928 -19.359  -0.346  0.00  0.00     0.061 C 
ATOM     29  C   UNL d   1      21.030 -20.544   0.605  0.00  0.00     0.073 C 
BRANCH  28  30
ATOM     30  N   UNL d   1      19.809 -19.025  -0.936  0.00  0.00    -0.177 NA
BRANCH  30  31
ATOM     31  N   UNL d   1      18.660 -19.686  -0.578  0.00  0.00    -0.253 N 
ATOM     32  H   UNL d   1      17.950 -19.901  -1.269  0.00  0.00     0.191 HD
BRANCH  31  33
ATOM     33  C   UNL d   1      18.397 -20.097   0.697  0.00  0.00     0.185 C 
ATOM     34  S   UNL d   1      17.717 -21.579   1.014  0.00  0.00    -0.040 SA
BRANCH  33  35
ATOM     35  N   UNL d   1      18.713 -19.246   1.697  0.00  0.00    -0.375 N 
ATOM     36  H   UNL d   1      19.390 -18.518   1.517  0.00  0.00     0.158 HD
ATOM     37  H   UNL d   1      18.275 -19.333   2.603  0.00  0.00     0.158 HD
ENDBRANCH  33  35
ENDBRANCH  31  33
ENDBRANCH  30  31
ENDBRANCH  28  30
ENDBRANCH  25  28
ENDBRANCH  21  22
ENDBRANCH  20  21
ENDBRANCH   1  20
TORSDOF 16
ENDMDL
MODEL 4
REMARK VINA RESULT:   -30.118      6.954     10.954
REMARK INTER + INTRA:         -35.478
REMARK INTER:                 -34.891
REMARK INTRA:                  -0.586
REMARK CONF_INDEPENDENT:        4.773
REMARK UNBOUND:                -0.586
REMARK  16 active torsions:
REMARK  status: ('A' for Active; 'I' for Inactive)
REMARK    1  A    between atoms: C_2  and  N_3 
REMARK    2  A    between atoms: C_2  and  C_8 
REMARK    3  A    between atoms: N_3  and  N_4 
REMARK    4  A    between atoms: N_4  and  C_5 
REMARK    5  A    between atoms: C_5  and  N_6 
REMARK    6  A    between atoms: C_11  and  O_12 
REMARK    7  A    between atoms: O_12  and  C_13 
REMARK    8  A    between atoms: C_13  and  C_14 
REMARK    9  A    between atoms: C_14  and  C_15 
REMARK   10  A    between atoms: C_15  and  O_16 
REMARK   11  A    between atoms: O_16  and  C_17 
REMARK   12  A    between atoms: C_20  and  C_21 
REMARK   13  A    between atoms: C_21  and  N_23 
REMARK   14  A    between atoms: N_23  and  N_24 
REMARK   15  A    between atoms: N_24  and  C_25 
REMARK   16  A    between atoms: C_25  and  N_26 
ROOT
ATOM      1  C   UNL d   1      25.374 -16.107  -2.904  0.00  0.00     0.053 C 
ENDROOT
BRANCH   1   2
ATOM      2  C   UNL d   1      26.087 -15.537  -4.130  0.00  0.00     0.178 C 
BRANCH   2   3
ATOM      3  O   UNL d   1      25.266 -14.546  -4.753  0.00  0.00    -0.351 OA
BRANCH   3   4
ATOM      4  C   UNL d   1      25.568 -13.239  -4.466  0.00  0.00     0.068 A 
ATOM      5  C   UNL d   1      25.857 -12.974  -3.127  0.00  0.00     0.037 A 
ATOM      6  C   UNL d   1      26.100 -11.666  -2.697  0.00  0.00     0.016 A 
ATOM      7  C   UNL d   1      26.201 -10.626  -3.628  0.00  0.00    -0.010 A 
ATOM      8  C   UNL d   1      25.916 -10.886  -4.971  0.00  0.00     0.016 A 
ATOM      9  C   UNL d   1      25.593 -12.186  -5.384  0.00  0.00     0.037 A 
BRANCH   7  10
ATOM     10  C   UNL d   1      26.700  -9.276  -3.200  0.00  0.00     0.061 C 
ATOM     11  C   UNL d   1      27.542  -9.240  -1.933  0.00  0.00     0.073 C 
BRANCH  10  12
ATOM     12  N   UNL d   1      26.474  -8.141  -3.800  0.00  0.00    -0.177 NA
BRANCH  12  13
ATOM     13  N   UNL d   1      25.184  -7.692  -3.901  0.00  0.00    -0.253 N 
ATOM     14  H   UNL d   1      24.686  -7.365  -3.081  0.00  0.00     0.191 HD
BRANCH  13  15
ATOM     15  C   UNL d   1      24.487  -7.622  -5.066  0.00  0.00     0.185 C 
ATOM     16  S   UNL d   1      24.642  -6.317  -6.083  0.00  0.00    -0.040 SA
BRANCH  15  17
ATOM     17  N   UNL d   1      23.672  -8.653  -5.362  0.00  0.00    -0.375 N 
ATOM     18  H   UNL d   1      23.889  -9.563  -4.976  0.00  0.00     0.158 HD
ATOM     19  H   UNL d   1      22.908  -8.532  -6.008  0.00  0.00     0.158 HD
ENDBRANCH  15  17
ENDBRANCH  13  15
ENDBRANCH  12  13
ENDBRANCH  10  12
ENDBRANCH   7  10
ENDBRANCH   3   4
ENDBRANCH   2   3
ENDBRANCH   1   2
BRANCH   1  20
ATOM     20  C   UNL d   1      26.218 -15.890  -1.648  0.00  0.00     0.178 C 
BRANCH  20  21
ATOM     21  O   UNL d   1      25.364 -15.726  -0.511  0.00  0.00    -0.351 OA
BRANCH  21  22
ATOM     22  C   UNL d   1      24.273 -16.556  -0.490  0.00  0.00     0.068 A 
ATOM     23  C   UNL d   1      24.494 -17.876  -0.103  0.00  0.00     0.037 A 
ATOM     24  C   UNL d   1      23.443 -18.808  -0.106  0.00  0.00     0.016 A 
ATOM     25  C   UNL d   1      22.136 -18.422  -0.439  0.00  0.00    -0.010 A 
ATOM     26  C   UNL d   1      21.936 -17.103  -0.868  0.00  0.00     0.016 A 
ATOM     27  C   UNL d   1      22.997 -16.186  -0.908  0.00  0.00     0.037 A 
BRANCH  25  28
ATOM     28  C   UNL d   1      20.932 -19.334  -0.307  0.00  0.00     0.061 C 
ATOM     29  C   UNL d   1      21.032 -20.547   0.609  0.00  0.00     0.073 C 
BRANCH  28  30
ATOM     30  N   UNL d   1      19.835 -19.027  -0.950  0.00  0.00    -0.177 NA
BRANCH  30  31
ATOM     31  N   UNL d   1      18.670 -19.658  -0.592  0.00  0.00    -0.253 N 
ATOM     32  H   UNL d   1      17.950 -19.845  -1.280  0.00  0.00     0.191 HD
BRANCH  31  33
ATOM     33  C   UNL d   1      18.403 -20.074   0.681  0.00  0.00     0.185 C 
ATOM     34  S   UNL d   1      17.961 -21.640   1.014  0.00  0.00    -0.040 SA
BRANCH  33  35
ATOM     35  N   UNL d   1      18.512 -19.156   1.666  0.00  0.00    -0.375 N 
ATOM     36  H   UNL d   1      19.091 -18.343   1.507  0.00  0.00     0.158 HD
ATOM     37  H   UNL d   1      18.020 -19.278   2.539  0.00  0.00     0.158 HD
ENDBRANCH  33  35
ENDBRANCH  31  33
ENDBRANCH  30  31
ENDBRANCH  28  30
ENDBRANCH  25  28
ENDBRANCH  21  22
ENDBRANCH  20  21
ENDBRANCH   1  20
TORSDOF 16
ENDMDL
MODEL 5
REMARK VINA RESULT:   -29.983      7.103      9.185
REMARK INTER + INTRA:         -35.435
REMARK INTER:                 -34.756
REMARK INTRA:                  -0.679
REMARK CONF_INDEPENDENT:        4.773
REMARK UNBOUND:                -0.679
REMARK  16 active torsions:
REMARK  status: ('A' for Active; 'I' for Inactive)
REMARK    1  A    between atoms: C_2  and  N_3 
REMARK    2  A    between atoms: C_2  and  C_8 
REMARK    3  A    between atoms: N_3  and  N_4 
REMARK    4  A    between atoms: N_4  and  C_5 
REMARK    5  A    between atoms: C_5  and  N_6 
REMARK    6  A    between atoms: C_11  and  O_12 
REMARK    7  A    between atoms: O_12  and  C_13 
REMARK    8  A    between atoms: C_13  and  C_14 
REMARK    9  A    between atoms: C_14  and  C_15 
REMARK   10  A    between atoms: C_15  and  O_16 
REMARK   11  A    between atoms: O_16  and  C_17 
REMARK   12  A    between atoms: C_20  and  C_21 
REMARK   13  A    between atoms: C_21  and  N_23 
REMARK   14  A    between atoms: N_23  and  N_24 
REMARK   15  A    between atoms: N_24  and  C_25 
REMARK   16  A    between atoms: C_25  and  N_26 
ROOT
ATOM      1  C   UNL d   1      26.033 -14.346  -1.956  0.00  0.00     0.053 C 
ENDROOT
BRANCH   1   2
ATOM      2  C   UNL d   1      26.321 -15.832  -1.746  0.00  0.00     0.178 C 
BRANCH   2   3
ATOM      3  O   UNL d   1      25.804 -16.254  -0.482  0.00  0.00    -0.351 OA
BRANCH   3   4
ATOM      4  C   UNL d   1      24.581 -16.874  -0.503  0.00  0.00     0.068 A 
ATOM      5  C   UNL d   1      24.618 -18.268  -0.462  0.00  0.00     0.037 A 
ATOM      6  C   UNL d   1      23.440 -19.015  -0.559  0.00  0.00     0.016 A 
ATOM      7  C   UNL d   1      22.197 -18.373  -0.553  0.00  0.00    -0.010 A 
ATOM      8  C   UNL d   1      22.153 -16.977  -0.593  0.00  0.00     0.016 A 
ATOM      9  C   UNL d   1      23.341 -16.233  -0.576  0.00  0.00     0.037 A 
BRANCH   7  10
ATOM     10  C   UNL d   1      20.935 -19.174  -0.412  0.00  0.00     0.061 C 
ATOM     11  C   UNL d   1      21.035 -20.447   0.414  0.00  0.00     0.073 C 
BRANCH  10  12
ATOM     12  N   UNL d   1      19.774 -18.889  -0.934  0.00  0.00    -0.177 NA
BRANCH  12  13
ATOM     13  N   UNL d   1      18.679 -19.615  -0.545  0.00  0.00    -0.253 N 
ATOM     14  H   UNL d   1      17.967 -19.873  -1.218  0.00  0.00     0.191 HD
BRANCH  13  15
ATOM     15  C   UNL d   1      18.466 -20.060   0.722  0.00  0.00     0.185 C 
ATOM     16  S   UNL d   1      17.956 -21.614   1.012  0.00  0.00    -0.040 SA
BRANCH  15  17
ATOM     17  N   UNL d   1      18.690 -19.191   1.727  0.00  0.00    -0.375 N 
ATOM     18  H   UNL d   1      18.802 -18.212   1.501  0.00  0.00     0.158 HD
ATOM     19  H   UNL d   1      18.811 -19.523   2.672  0.00  0.00     0.158 HD
ENDBRANCH  15  17
ENDBRANCH  13  15
ENDBRANCH  12  13
ENDBRANCH  10  12
ENDBRANCH   7  10
ENDBRANCH   3   4
ENDBRANCH   2   3
ENDBRANCH   1   2
BRANCH   1  20
ATOM     20  C   UNL d   1      24.929 -14.158  -2.997  0.00  0.00     0.178 C 
BRANCH  20  21
ATOM     21  O   UNL d   1      25.273 -14.851  -4.201  0.00  0.00    -0.351 OA
BRANCH  21  22
ATOM     22  C   UNL d   1      26.204 -14.216  -4.981  0.00  0.00     0.068 A 
ATOM     23  C   UNL d   1      27.096 -15.025  -5.683  0.00  0.00     0.037 A 
ATOM     24  C   UNL d   1      28.117 -14.456  -6.462  0.00  0.00     0.016 A 
ATOM     25  C   UNL d   1      28.228 -13.065  -6.603  0.00  0.00    -0.010 A 
ATOM     26  C   UNL d   1      27.354 -12.262  -5.858  0.00  0.00     0.016 A 
ATOM     27  C   UNL d   1      26.363 -12.833  -5.043  0.00  0.00     0.037 A 
BRANCH  25  28
ATOM     28  C   UNL d   1      29.200 -12.392  -7.552  0.00  0.00     0.061 C 
ATOM     29  C   UNL d   1      28.743 -12.095  -8.975  0.00  0.00     0.073 C 
BRANCH  28  30
ATOM     30  N   UNL d   1      30.382 -12.053  -7.108  0.00  0.00    -0.177 NA
BRANCH  30  31
ATOM     31  N   UNL d   1      30.975 -12.845  -6.157  0.00  0.00    -0.253 N 
ATOM     32  H   UNL d   1      31.176 -12.481  -5.232  0.00  0.00     0.191 HD
BRANCH  31  33
ATOM     33  C   UNL d   1      31.323 -14.147  -6.376  0.00  0.00     0.185 C 
ATOM     34  S   UNL d   1      31.679 -15.178  -5.123  0.00  0.00    -0.040 SA
BRANCH  33  35
ATOM     35  N   UNL d   1      31.368 -14.566  -7.658  0.00  0.00    -0.375 N 
ATOM     36  H   UNL d   1      30.657 -14.241  -8.299  0.00  0.00     0.158 HD
ATOM     37  H   UNL d   1      32.102 -15.186  -7.971  0.00  0.00     0.158 HD
ENDBRANCH  33  35
ENDBRANCH  31  33
ENDBRANCH  30  31
ENDBRANCH  28  30
ENDBRANCH  25  28
ENDBRANCH  21  22
ENDBRANCH  20  21
ENDBRANCH   1  20
TORSDOF 16
ENDMDL
MODEL 6
REMARK VINA RESULT:   -29.955      1.241     11.385
REMARK INTER + INTRA:         -35.369
REMARK INTER:                 -34.728
REMARK INTRA:                  -0.641
REMARK CONF_INDEPENDENT:        4.773
REMARK UNBOUND:                -0.641
REMARK  16 active torsions:
REMARK  status: ('A' for Active; 'I' for Inactive)
REMARK    1  A    between atoms: C_2  and  N_3 
REMARK    2  A    between atoms: C_2  and  C_8 
REMARK    3  A    between atoms: N_3  and  N_4 
REMARK    4  A    between atoms: N_4  and  C_5 
REMARK    5  A    between atoms: C_5  and  N_6 
REMARK    6  A    between atoms: C_11  and  O_12 
REMARK    7  A    between atoms: O_12  and  C_13 
REMARK    8  A    between atoms: C_13  and  C_14 
REMARK    9  A    between atoms: C_14  and  C_15 
REMARK   10  A    between atoms: C_15  and  O_16 
REMARK   11  A    between atoms: O_16  and  C_17 
REMARK   12  A    between atoms: C_20  and  C_21 
REMARK   13  A    between atoms: C_21  and  N_23 
REMARK   14  A    between atoms: N_23  and  N_24 
REMARK   15  A    between atoms: N_24  and  C_25 
REMARK   16  A    between atoms: C_25  and  N_26 
ROOT
ATOM      1  C   UNL d   1      26.470 -14.745   0.482  0.00  0.00     0.053 C 
ENDROOT
BRANCH   1   2
ATOM      2  C   UNL d   1      27.614 -14.755   1.496  0.00  0.00     0.178 C 
BRANCH   2   3
ATOM      3  O   UNL d   1      27.669 -13.501   2.180  0.00  0.00    -0.351 OA
BRANCH   3   4
ATOM      4  C   UNL d   1      28.074 -13.541   3.490  0.00  0.00     0.068 A 
ATOM      5  C   UNL d   1      28.352 -14.814   3.989  0.00  0.00     0.037 A 
ATOM      6  C   UNL d   1      28.695 -14.991   5.333  0.00  0.00     0.016 A 
ATOM      7  C   UNL d   1      28.906 -13.882   6.159  0.00  0.00    -0.010 A 
ATOM      8  C   UNL d   1      28.631 -12.604   5.663  0.00  0.00     0.016 A 
ATOM      9  C   UNL d   1      28.209 -12.438   4.337  0.00  0.00     0.037 A 
BRANCH   7  10
ATOM     10  C   UNL d   1      29.507 -14.059   7.523  0.00  0.00     0.061 C 
ATOM     11  C   UNL d   1      30.875 -13.431   7.743  0.00  0.00     0.073 C 
BRANCH  10  12
ATOM     12  N   UNL d   1      28.977 -14.703   8.525  0.00  0.00    -0.177 NA
BRANCH  12  13
ATOM     13  N   UNL d   1      29.345 -14.362   9.800  0.00  0.00    -0.253 N 
ATOM     14  H   UNL d   1      30.275 -14.572  10.142  0.00  0.00     0.191 HD
BRANCH  13  15
ATOM     15  C   UNL d   1      28.538 -13.712  10.681  0.00  0.00     0.185 C 
ATOM     16  S   UNL d   1      28.933 -12.204  11.256  0.00  0.00    -0.040 SA
BRANCH  15  17
ATOM     17  N   UNL d   1      27.409 -14.339  11.063  0.00  0.00    -0.375 N 
ATOM     18  H   UNL d   1      27.160 -15.205  10.602  0.00  0.00     0.158 HD
ATOM     19  H   UNL d   1      26.794 -13.916  11.741  0.00  0.00     0.158 HD
ENDBRANCH  15  17
ENDBRANCH  13  15
ENDBRANCH  12  13
ENDBRANCH  10  12
ENDBRANCH   7  10
ENDBRANCH   3   4
ENDBRANCH   2   3
ENDBRANCH   1   2
BRANCH   1  20
ATOM     20  C   UNL d   1      26.624 -15.899  -0.508  0.00  0.00     0.178 C 
BRANCH  20  21
ATOM     21  O   UNL d   1      25.615 -15.811  -1.519  0.00  0.00    -0.351 OA
BRANCH  21  22
ATOM     22  C   UNL d   1      24.477 -16.530  -1.256  0.00  0.00     0.068 A 
ATOM     23  C   UNL d   1      24.543 -17.908  -1.452  0.00  0.00     0.037 A 
ATOM     24  C   UNL d   1      23.409 -18.713  -1.260  0.00  0.00     0.016 A 
ATOM     25  C   UNL d   1      22.201 -18.163  -0.808  0.00  0.00    -0.010 A 
ATOM     26  C   UNL d   1      22.134 -16.771  -0.657  0.00  0.00     0.016 A 
ATOM     27  C   UNL d   1      23.257 -15.963  -0.894  0.00  0.00     0.037 A 
BRANCH  25  28
ATOM     28  C   UNL d   1      20.991 -18.993  -0.426  0.00  0.00     0.061 C 
ATOM     29  C   UNL d   1      21.180 -20.161   0.533  0.00  0.00     0.073 C 
BRANCH  28  30
ATOM     30  N   UNL d   1      19.819 -18.655  -0.898  0.00  0.00    -0.177 NA
BRANCH  30  31
ATOM     31  N   UNL d   1      18.767 -19.516  -0.713  0.00  0.00    -0.253 N 
ATOM     32  H   UNL d   1      18.174 -19.785  -1.491  0.00  0.00     0.191 HD
BRANCH  31  33
ATOM     33  C   UNL d   1      18.450 -20.064   0.497  0.00  0.00     0.185 C 
ATOM     34  S   UNL d   1      17.773 -21.576   0.620  0.00  0.00    -0.040 SA
BRANCH  33  35
ATOM     35  N   UNL d   1      18.710 -19.325   1.596  0.00  0.00    -0.375 N 
ATOM     36  H   UNL d   1      19.165 -18.430   1.481  0.00  0.00     0.158 HD
ATOM     37  H   UNL d   1      18.449 -19.659   2.513  0.00  0.00     0.158 HD
ENDBRANCH  33  35
ENDBRANCH  31  33
ENDBRANCH  30  31
ENDBRANCH  28  30
ENDBRANCH  25  28
ENDBRANCH  21  22
ENDBRANCH  20  21
ENDBRANCH   1  20
TORSDOF 16
ENDMDL
MODEL 7
REMARK VINA RESULT:   -29.921      7.205     11.900
REMARK INTER + INTRA:         -35.180
REMARK INTER:                 -34.693
REMARK INTRA:                  -0.486
REMARK CONF_INDEPENDENT:        4.773
REMARK UNBOUND:                -0.486
REMARK  16 active torsions:
REMARK  status: ('A' for Active; 'I' for Inactive)
REMARK    1  A    between atoms: C_2  and  N_3 
REMARK    2  A    between atoms: C_2  and  C_8 
REMARK    3  A    between atoms: N_3  and  N_4 
REMARK    4  A    between atoms: N_4  and  C_5 
REMARK    5  A    between atoms: C_5  and  N_6 
REMARK    6  A    between atoms: C_11  and  O_12 
REMARK    7  A    between atoms: O_12  and  C_13 
REMARK    8  A    between atoms: C_13  and  C_14 
REMARK    9  A    between atoms: C_14  and  C_15 
REMARK   10  A    between atoms: C_15  and  O_16 
REMARK   11  A    between atoms: O_16  and  C_17 
REMARK   12  A    between atoms: C_20  and  C_21 
REMARK   13  A    between atoms: C_21  and  N_23 
REMARK   14  A    between atoms: N_23  and  N_24 
REMARK   15  A    between atoms: N_24  and  C_25 
REMARK   16  A    between atoms: C_25  and  N_26 
ROOT
ATOM      1  C   UNL d   1      26.147 -15.851  -3.054  0.00  0.00     0.053 C 
ENDROOT
BRANCH   1   2
ATOM      2  C   UNL d   1      26.125 -14.887  -4.240  0.00  0.00     0.178 C 
BRANCH   2   3
ATOM      3  O   UNL d   1      26.686 -15.521  -5.392  0.00  0.00    -0.351 OA
BRANCH   3   4
ATOM      4  C   UNL d   1      27.985 -15.200  -5.690  0.00  0.00     0.068 A 
ATOM      5  C   UNL d   1      28.148 -14.231  -6.681  0.00  0.00     0.037 A 
ATOM      6  C   UNL d   1      29.425 -13.878  -7.128  0.00  0.00     0.016 A 
ATOM      7  C   UNL d   1      30.561 -14.386  -6.487  0.00  0.00    -0.010 A 
ATOM      8  C   UNL d   1      30.404 -15.355  -5.493  0.00  0.00     0.016 A 
ATOM      9  C   UNL d   1      29.121 -15.764  -5.103  0.00  0.00     0.037 A 
BRANCH   7  10
ATOM     10  C   UNL d   1      31.918 -13.826  -6.802  0.00  0.00     0.061 C 
ATOM     11  C   UNL d   1      32.863 -13.649  -5.622  0.00  0.00     0.073 C 
BRANCH  10  12
ATOM     12  N   UNL d   1      32.357 -13.471  -7.977  0.00  0.00    -0.177 NA
BRANCH  12  13
ATOM     13  N   UNL d   1      31.449 -13.228  -8.975  0.00  0.00    -0.253 N 
ATOM     14  H   UNL d   1      31.167 -13.968  -9.607  0.00  0.00     0.191 HD
BRANCH  13  15
ATOM     15  C   UNL d   1      30.849 -12.027  -9.186  0.00  0.00     0.185 C 
ATOM     16  S   UNL d   1      29.280 -11.934  -9.724  0.00  0.00    -0.040 SA
BRANCH  15  17
ATOM     17  N   UNL d   1      31.576 -10.920  -8.938  0.00  0.00    -0.375 N 
ATOM     18  H   UNL d   1      31.216 -10.247  -8.275  0.00  0.00     0.158 HD
ATOM     19  H   UNL d   1      32.422 -10.738  -9.456  0.00  0.00     0.158 HD
ENDBRANCH  15  17
ENDBRANCH  13  15
ENDBRANCH  12  13
ENDBRANCH  10  12
ENDBRANCH   7  10
ENDBRANCH   3   4
ENDBRANCH   2   3
ENDBRANCH   1   2
BRANCH   1  20
ATOM     20  C   UNL d   1      25.741 -15.126  -1.770  0.00  0.00     0.178 C 
BRANCH  20  21
ATOM     21  O   UNL d   1      25.688 -16.056  -0.683  0.00  0.00    -0.351 OA
BRANCH  21  22
ATOM     22  C   UNL d   1      24.532 -16.791  -0.613  0.00  0.00     0.068 A 
ATOM     23  C   UNL d   1      24.668 -18.155  -0.365  0.00  0.00     0.037 A 
ATOM     24  C   UNL d   1      23.540 -18.992  -0.332  0.00  0.00     0.016 A 
ATOM     25  C   UNL d   1      22.248 -18.468  -0.488  0.00  0.00    -0.010 A 
ATOM     26  C   UNL d   1      22.129 -17.103  -0.781  0.00  0.00     0.016 A 
ATOM     27  C   UNL d   1      23.261 -16.278  -0.859  0.00  0.00     0.037 A 
BRANCH  25  28
ATOM     28  C   UNL d   1      20.984 -19.285  -0.303  0.00  0.00     0.061 C 
ATOM     29  C   UNL d   1      21.030 -20.507   0.605  0.00  0.00     0.073 C 
BRANCH  28  30
ATOM     30  N   UNL d   1      19.886 -18.890  -0.895  0.00  0.00    -0.177 NA
BRANCH  30  31
ATOM     31  N   UNL d   1      18.733 -19.601  -0.674  0.00  0.00    -0.253 N 
ATOM     32  H   UNL d   1      18.093 -19.800  -1.435  0.00  0.00     0.191 HD
BRANCH  31  33
ATOM     33  C   UNL d   1      18.374 -20.085   0.552  0.00  0.00     0.185 C 
ATOM     34  S   UNL d   1      17.658 -21.574   0.727  0.00  0.00    -0.040 SA
BRANCH  33  35
ATOM     35  N   UNL d   1      18.625 -19.302   1.622  0.00  0.00    -0.375 N 
ATOM     36  H   UNL d   1      19.110 -18.427   1.478  0.00  0.00     0.158 HD
ATOM     37  H   UNL d   1      18.326 -19.582   2.545  0.00  0.00     0.158 HD
ENDBRANCH  33  35
ENDBRANCH  31  33
ENDBRANCH  30  31
ENDBRANCH  28  30
ENDBRANCH  25  28
ENDBRANCH  21  22
ENDBRANCH  20  21
ENDBRANCH   1  20
TORSDOF 16
ENDMDL
MODEL 8
REMARK VINA RESULT:   -29.858      2.183     10.647
REMARK INTER + INTRA:         -35.212
REMARK INTER:                 -34.631
REMARK INTRA:                  -0.581
REMARK CONF_INDEPENDENT:        4.773
REMARK UNBOUND:                -0.581
REMARK  16 active torsions:
REMARK  status: ('A' for Active; 'I' for Inactive)
REMARK    1  A    between atoms: C_2  and  N_3 
REMARK    2  A    between atoms: C_2  and  C_8 
REMARK    3  A    between atoms: N_3  and  N_4 
REMARK    4  A    between atoms: N_4  and  C_5 
REMARK    5  A    between atoms: C_5  and  N_6 
REMARK    6  A    between atoms: C_11  and  O_12 
REMARK    7  A    between atoms: O_12  and  C_13 
REMARK    8  A    between atoms: C_13  and  C_14 
REMARK    9  A    between atoms: C_14  and  C_15 
REMARK   10  A    between atoms: C_15  and  O_16 
REMARK   11  A    between atoms: O_16  and  C_17 
REMARK   12  A    between atoms: C_20  and  C_21 
REMARK   13  A    between atoms: C_21  and  N_23 
REMARK   14  A    between atoms: N_23  and  N_24 
REMARK   15  A    between atoms: N_24  and  C_25 
REMARK   16  A    between atoms: C_25  and  N_26 
ROOT
ATOM      1  C   UNL d   1      25.400 -14.635  -2.931  0.00  0.00     0.053 C 
ENDROOT
BRANCH   1   2
ATOM      2  C   UNL d   1      26.633 -13.747  -2.760  0.00  0.00     0.178 C 
BRANCH   2   3
ATOM      3  O   UNL d   1      26.361 -12.716  -1.808  0.00  0.00    -0.351 OA
BRANCH   3   4
ATOM      4  C   UNL d   1      26.792 -12.945  -0.526  0.00  0.00     0.068 A 
ATOM      5  C   UNL d   1      27.033 -11.801   0.235  0.00  0.00     0.037 A 
ATOM      6  C   UNL d   1      27.552 -11.904   1.529  0.00  0.00     0.016 A 
ATOM      7  C   UNL d   1      27.700 -13.158   2.132  0.00  0.00    -0.010 A 
ATOM      8  C   UNL d   1      27.457 -14.307   1.375  0.00  0.00     0.016 A 
ATOM      9  C   UNL d   1      27.013 -14.199   0.050  0.00  0.00     0.037 A 
BRANCH   7  10
ATOM     10  C   UNL d   1      28.022 -13.260   3.594  0.00  0.00     0.061 C 
ATOM     11  C   UNL d   1      28.988 -12.221   4.144  0.00  0.00     0.073 C 
BRANCH  10  12
ATOM     12  N   UNL d   1      27.565 -14.151   4.428  0.00  0.00    -0.177 NA
BRANCH  12  13
ATOM     13  N   UNL d   1      27.837 -14.009   5.764  0.00  0.00    -0.253 N 
ATOM     14  H   UNL d   1      27.127 -13.670   6.401  0.00  0.00     0.191 HD
BRANCH  13  15
ATOM     15  C   UNL d   1      29.029 -14.320   6.338  0.00  0.00     0.185 C 
ATOM     16  S   UNL d   1      29.270 -14.132   7.971  0.00  0.00    -0.040 SA
BRANCH  15  17
ATOM     17  N   UNL d   1      30.001 -14.789   5.532  0.00  0.00    -0.375 N 
ATOM     18  H   UNL d   1      30.958 -14.532   5.733  0.00  0.00     0.158 HD
ATOM     19  H   UNL d   1      29.768 -15.324   4.709  0.00  0.00     0.158 HD
ENDBRANCH  15  17
ENDBRANCH  13  15
ENDBRANCH  12  13
ENDBRANCH  10  12
ENDBRANCH   7  10
ENDBRANCH   3   4
ENDBRANCH   2   3
ENDBRANCH   1   2
BRANCH   1  20
ATOM     20  C   UNL d   1      25.668 -16.033  -2.375  0.00  0.00     0.178 C 
BRANCH  20  21
ATOM     21  O   UNL d   1      25.173 -16.126  -1.035  0.00  0.00    -0.351 OA
BRANCH  21  22
ATOM     22  C   UNL d   1      24.067 -16.924  -0.887  0.00  0.00     0.068 A 
ATOM     23  C   UNL d   1      24.295 -18.279  -0.658  0.00  0.00     0.037 A 
ATOM     24  C   UNL d   1      23.220 -19.177  -0.550  0.00  0.00     0.016 A 
ATOM     25  C   UNL d   1      21.894 -18.725  -0.609  0.00  0.00    -0.010 A 
ATOM     26  C   UNL d   1      21.678 -17.369  -0.884  0.00  0.00     0.016 A 
ATOM     27  C   UNL d   1      22.755 -16.481  -1.037  0.00  0.00     0.037 A 
BRANCH  25  28
ATOM     28  C   UNL d   1      20.693 -19.611  -0.339  0.00  0.00     0.061 C 
ATOM     29  C   UNL d   1      20.855 -20.792   0.609  0.00  0.00     0.073 C 
BRANCH  28  30
ATOM     30  N   UNL d   1      19.548 -19.309  -0.895  0.00  0.00    -0.177 NA
BRANCH  30  31
ATOM     31  N   UNL d   1      18.484 -20.153  -0.701  0.00  0.00    -0.253 N 
ATOM     32  H   UNL d   1      17.938 -20.487  -1.486  0.00  0.00     0.191 HD
BRANCH  31  33
ATOM     33  C   UNL d   1      18.095 -20.598   0.531  0.00  0.00     0.185 C 
ATOM     34  S   UNL d   1      18.431 -19.741   1.914  0.00  0.00    -0.040 SA
BRANCH  33  35
ATOM     35  N   UNL d   1      17.424 -21.767   0.581  0.00  0.00    -0.375 N 
ATOM     36  H   UNL d   1      17.051 -22.074   1.469  0.00  0.00     0.158 HD
ATOM     37  H   UNL d   1      17.291 -22.320  -0.254  0.00  0.00     0.158 HD
ENDBRANCH  33  35
ENDBRANCH  31  33
ENDBRANCH  30  31
ENDBRANCH  28  30
ENDBRANCH  25  28
ENDBRANCH  21  22
ENDBRANCH  20  21
ENDBRANCH   1  20
TORSDOF 16
ENDMDL
MODEL 9
REMARK VINA RESULT:   -29.831      7.047      9.557
REMARK INTER + INTRA:         -35.469
REMARK INTER:                 -34.603
REMARK INTRA:                  -0.865
REMARK CONF_INDEPENDENT:        4.773
REMARK UNBOUND:                -0.865
REMARK  16 active torsions:
REMARK  status: ('A' for Active; 'I' for Inactive)
REMARK    1  A    between atoms: C_2  and  N_3 
REMARK    2  A    between atoms: C_2  and  C_8 
REMARK    3  A    between atoms: N_3  and  N_4 
REMARK    4  A    between atoms: N_4  and  C_5 
REMARK    5  A    between atoms: C_5  and  N_6 
REMARK    6  A    between atoms: C_11  and  O_12 
REMARK    7  A    between atoms: O_12  and  C_13 
REMARK    8  A    between atoms: C_13  and  C_14 
REMARK    9  A    between atoms: C_14  and  C_15 
REMARK   10  A    between atoms: C_15  and  O_16 
REMARK   11  A    between atoms: O_16  and  C_17 
REMARK   12  A    between atoms: C_20  and  C_21 
REMARK   13  A    between atoms: C_21  and  N_23 
REMARK   14  A    between atoms: N_23  and  N_24 
REMARK   15  A    between atoms: N_24  and  C_25 
REMARK   16  A    between atoms: C_25  and  N_26 
ROOT
ATOM      1  C   UNL d   1      27.062 -15.157  -1.924  0.00  0.00     0.053 C 
ENDROOT
BRANCH   1   2
ATOM      2  C   UNL d   1      26.810 -16.442  -1.135  0.00  0.00     0.178 C 
BRANCH   2   3
ATOM      3  O   UNL d   1      25.865 -16.195  -0.092  0.00  0.00    -0.351 OA
BRANCH   3   4
ATOM      4  C   UNL d   1      24.655 -16.832  -0.204  0.00  0.00     0.068 A 
ATOM      5  C   UNL d   1      24.662 -18.187   0.128  0.00  0.00     0.037 A 
ATOM      6  C   UNL d   1      23.508 -18.962  -0.024  0.00  0.00     0.016 A 
ATOM      7  C   UNL d   1      22.295 -18.359  -0.373  0.00  0.00    -0.010 A 
ATOM      8  C   UNL d   1      22.282 -17.002  -0.704  0.00  0.00     0.016 A 
ATOM      9  C   UNL d   1      23.459 -16.245  -0.627  0.00  0.00     0.037 A 
BRANCH   7  10
ATOM     10  C   UNL d   1      21.015 -19.140  -0.299  0.00  0.00     0.061 C 
ATOM     11  C   UNL d   1      21.045 -20.402   0.550  0.00  0.00     0.073 C 
BRANCH  10  12
ATOM     12  N   UNL d   1      19.893 -18.848  -0.896  0.00  0.00    -0.177 NA
BRANCH  12  13
ATOM     13  N   UNL d   1      18.819 -19.682  -0.729  0.00  0.00    -0.253 N 
ATOM     14  H   UNL d   1      18.301 -20.023  -1.530  0.00  0.00     0.191 HD
BRANCH  13  15
ATOM     15  C   UNL d   1      18.379 -20.131   0.476  0.00  0.00     0.185 C 
ATOM     16  S   UNL d   1      17.563 -21.571   0.610  0.00  0.00    -0.040 SA
BRANCH  15  17
ATOM     17  N   UNL d   1      18.636 -19.363   1.553  0.00  0.00    -0.375 N 
ATOM     18  H   UNL d   1      19.413 -18.717   1.509  0.00  0.00     0.158 HD
ATOM     19  H   UNL d   1      18.108 -19.483   2.405  0.00  0.00     0.158 HD
ENDBRANCH  15  17
ENDBRANCH  13  15
ENDBRANCH  12  13
ENDBRANCH  10  12
ENDBRANCH   7  10
ENDBRANCH   3   4
ENDBRANCH   2   3
ENDBRANCH   1   2
BRANCH   1  20
ATOM     20  C   UNL d   1      25.748 -14.597  -2.467  0.00  0.00     0.178 C 
BRANCH  20  21
ATOM     21  O   UNL d   1      25.600 -14.954  -3.846  0.00  0.00    -0.351 OA
BRANCH  21  22
ATOM     22  C   UNL d   1      26.654 -14.594  -4.646  0.00  0.00     0.068 A 
ATOM     23  C   UNL d   1      27.607 -15.576  -4.910  0.00  0.00     0.037 A 
ATOM     24  C   UNL d   1      28.747 -15.279  -5.675  0.00  0.00     0.016 A 
ATOM     25  C   UNL d   1      28.926 -14.008  -6.241  0.00  0.00    -0.010 A 
ATOM     26  C   UNL d   1      27.984 -13.018  -5.932  0.00  0.00     0.016 A 
ATOM     27  C   UNL d   1      26.869 -13.306  -5.129  0.00  0.00     0.037 A 
BRANCH  25  28
ATOM     28  C   UNL d   1      30.045 -13.669  -7.206  0.00  0.00     0.061 C 
ATOM     29  C   UNL d   1      31.271 -14.571  -7.248  0.00  0.00     0.073 C 
BRANCH  28  30
ATOM     30  N   UNL d   1      29.904 -12.638  -7.999  0.00  0.00    -0.177 NA
BRANCH  30  31
ATOM     31  N   UNL d   1      28.788 -12.575  -8.796  0.00  0.00    -0.253 N 
ATOM     32  H   UNL d   1      28.542 -13.348  -9.403  0.00  0.00     0.191 HD
BRANCH  31  33
ATOM     33  C   UNL d   1      27.948 -11.499  -8.826  0.00  0.00     0.185 C 
ATOM     34  S   UNL d   1      26.860 -11.276 -10.062  0.00  0.00    -0.040 SA
BRANCH  33  35
ATOM     35  N   UNL d   1      28.036 -10.618  -7.808  0.00  0.00    -0.375 N 
ATOM     36  H   UNL d   1      27.573  -9.724  -7.900  0.00  0.00     0.158 HD
ATOM     37  H   UNL d   1      28.548 -10.852  -6.969  0.00  0.00     0.158 HD
ENDBRANCH  33  35
ENDBRANCH  31  33
ENDBRANCH  30  31
ENDBRANCH  28  30
ENDBRANCH  25  28
ENDBRANCH  21  22
ENDBRANCH  20  21
ENDBRANCH   1  20
TORSDOF 16
ENDMDL
