MODEL 1
REMARK VINA RESULT:    -7.380      0.000      0.000
REMARK INTER + INTRA:          -9.930
REMARK INTER:                  -8.573
REMARK INTRA:                  -1.357
REMARK CONF_INDEPENDENT:        1.193
REMARK UNBOUND:                -1.357
REMARK  4 active torsions:
REMARK  status: ('A' for Active; 'I' for Inactive)
REMARK    1  A    between atoms: O_2  and  C_3 
REMARK    2  A    between atoms: C_6  and  C_7 
REMARK       I    between atoms: C_7  and  N_9 
REMARK    3  A    between atoms: N_9  and  N_10 
REMARK       I    between atoms: N_10  and  C_11 
REMARK       I    between atoms: C_11  and  N_13 
REMARK    4  A    between atoms: N_13  and  C_14 
ROOT
ATOM      1  N   UNL d   1      23.940 -16.927  -0.561  0.00  0.00    -0.248 N 
ATOM      2  C   UNL d   1      22.924 -17.877  -0.635  0.00  0.00     0.339 C 
ATOM      3  O   UNL d   1      22.750 -18.513  -1.677  0.00  0.00    -0.245 OA
ATOM      4  N   UNL d   1      22.137 -18.002   0.506  0.00  0.00    -0.308 N 
ATOM      5  H   UNL d   1      24.178 -16.371   0.255  0.00  0.00     0.192 HD
ATOM      6  H   UNL d   1      22.202 -17.290   1.219  0.00  0.00     0.170 HD
ENDROOT
BRANCH   1   7
ATOM      7  N   UNL d   1      24.765 -16.739  -1.724  0.00  0.00    -0.262 N 
ATOM      8  C   UNL d   1      25.755 -15.761  -1.767  0.00  0.00     0.270 C 
ATOM      9  O   UNL d   1      25.981 -15.027  -0.798  0.00  0.00    -0.266 OA
ATOM     10  H   UNL d   1      24.518 -17.343  -2.505  0.00  0.00     0.190 HD
BRANCH   8  11
ATOM     11  C   UNL d   1      26.540 -15.576  -3.055  0.00  0.00     0.033 A 
ATOM     12  C   UNL d   1      27.937 -15.768  -3.068  0.00  0.00     0.020 A 
ATOM     13  C   UNL d   1      28.708 -15.464  -4.211  0.00  0.00     0.038 A 
ATOM     14  C   UNL d   1      28.092 -15.018  -5.380  0.00  0.00     0.068 A 
ATOM     15  C   UNL d   1      26.704 -14.912  -5.402  0.00  0.00     0.038 A 
ATOM     16  C   UNL d   1      25.937 -15.175  -4.254  0.00  0.00     0.020 A 
BRANCH  14  17
ATOM     17  O   UNL d   1      28.889 -14.792  -6.470  0.00  0.00    -0.356 OA
ATOM     18  C   UNL d   1      30.079 -15.583  -6.525  0.00  0.00     0.210 C 
ENDBRANCH  14  17
ENDBRANCH   8  11
ENDBRANCH   1   7
BRANCH   4  19
ATOM     19  C   UNL d   1      21.075 -18.950   0.630  0.00  0.00     0.036 A 
ATOM     20  C   UNL d   1      20.436 -19.477  -0.505  0.00  0.00     0.031 A 
ATOM     21  C   UNL d   1      19.352 -20.369  -0.373  0.00  0.00     0.026 A 
ATOM     22  C   UNL d   1      18.916 -20.756   0.893  0.00  0.00     0.034 A 
ATOM     23 CL   UNL d   1      17.656 -21.917   1.063  0.00  0.00    -0.084 Cl
ATOM     24  C   UNL d   1      19.524 -20.224   2.024  0.00  0.00     0.026 A 
ATOM     25  C   UNL d   1      20.599 -19.334   1.890  0.00  0.00     0.031 A 
ENDBRANCH   4  19
TORSDOF 4
ENDMDL
MODEL 2
REMARK VINA RESULT:    -6.910      3.092      4.631
REMARK INTER + INTRA:          -8.797
REMARK INTER:                  -8.103
REMARK INTRA:                  -0.695
REMARK CONF_INDEPENDENT:        1.193
REMARK UNBOUND:                -0.695
REMARK  4 active torsions:
REMARK  status: ('A' for Active; 'I' for Inactive)
REMARK    1  A    between atoms: O_2  and  C_3 
REMARK    2  A    between atoms: C_6  and  C_7 
REMARK       I    between atoms: C_7  and  N_9 
REMARK    3  A    between atoms: N_9  and  N_10 
REMARK       I    between atoms: N_10  and  C_11 
REMARK       I    between atoms: C_11  and  N_13 
REMARK    4  A    between atoms: N_13  and  C_14 
ROOT
ATOM      1  N   UNL d   1      27.175 -14.733  -2.570  0.00  0.00    -0.248 N 
ATOM      2  C   UNL d   1      25.940 -15.358  -2.422  0.00  0.00     0.339 C 
ATOM      3  O   UNL d   1      25.041 -15.148  -3.240  0.00  0.00    -0.245 OA
ATOM      4  N   UNL d   1      25.809 -16.168  -1.298  0.00  0.00    -0.308 N 
ATOM      5  H   UNL d   1      27.983 -14.857  -1.967  0.00  0.00     0.192 HD
ATOM      6  H   UNL d   1      26.506 -16.100  -0.570  0.00  0.00     0.170 HD
ENDROOT
BRANCH   1   7
ATOM      7  N   UNL d   1      27.353 -13.863  -3.702  0.00  0.00    -0.262 N 
ATOM      8  C   UNL d   1      27.455 -14.364  -4.998  0.00  0.00     0.270 C 
ATOM      9  O   UNL d   1      27.376 -15.575  -5.232  0.00  0.00    -0.266 OA
ATOM     10  H   UNL d   1      27.447 -12.880  -3.455  0.00  0.00     0.190 HD
BRANCH   8  11
ATOM     11  C   UNL d   1      27.712 -13.389  -6.135  0.00  0.00     0.033 A 
ATOM     12  C   UNL d   1      27.084 -12.126  -6.141  0.00  0.00     0.020 A 
ATOM     13  C   UNL d   1      27.189 -11.260  -7.252  0.00  0.00     0.038 A 
ATOM     14  C   UNL d   1      27.969 -11.615  -8.352  0.00  0.00     0.068 A 
ATOM     15  C   UNL d   1      28.664 -12.821  -8.314  0.00  0.00     0.038 A 
ATOM     16  C   UNL d   1      28.529 -13.703  -7.228  0.00  0.00     0.020 A 
BRANCH  14  17
ATOM     17  O   UNL d   1      28.074 -10.709  -9.374  0.00  0.00    -0.356 OA
ATOM     18  C   UNL d   1      26.900 -10.563 -10.175  0.00  0.00     0.210 C 
ENDBRANCH  14  17
ENDBRANCH   8  11
ENDBRANCH   1   7
BRANCH   4  19
ATOM     19  C   UNL d   1      24.632 -16.920  -1.001  0.00  0.00     0.036 A 
ATOM     20  C   UNL d   1      23.354 -16.348  -1.124  0.00  0.00     0.031 A 
ATOM     21  C   UNL d   1      22.200 -17.079  -0.777  0.00  0.00     0.026 A 
ATOM     22  C   UNL d   1      22.315 -18.393  -0.326  0.00  0.00     0.034 A 
ATOM     23 CL   UNL d   1      20.906 -19.324   0.011  0.00  0.00    -0.084 Cl
ATOM     24  C   UNL d   1      23.573 -18.963  -0.177  0.00  0.00     0.026 A 
ATOM     25  C   UNL d   1      24.720 -18.233  -0.520  0.00  0.00     0.031 A 
ENDBRANCH   4  19
TORSDOF 4
ENDMDL
MODEL 3
REMARK VINA RESULT:    -6.678      4.208      9.724
REMARK INTER + INTRA:          -9.312
REMARK INTER:                  -7.872
REMARK INTRA:                  -1.441
REMARK CONF_INDEPENDENT:        1.193
REMARK UNBOUND:                -1.441
REMARK  4 active torsions:
REMARK  status: ('A' for Active; 'I' for Inactive)
REMARK    1  A    between atoms: O_2  and  C_3 
REMARK    2  A    between atoms: C_6  and  C_7 
REMARK       I    between atoms: C_7  and  N_9 
REMARK    3  A    between atoms: N_9  and  N_10 
REMARK       I    between atoms: N_10  and  C_11 
REMARK       I    between atoms: C_11  and  N_13 
REMARK    4  A    between atoms: N_13  and  C_14 
ROOT
ATOM      1  N   UNL d   1      24.721 -16.468  -1.530  0.00  0.00    -0.248 N 
ATOM      2  C   UNL d   1      24.782 -15.338  -2.341  0.00  0.00     0.339 C 
ATOM      3  O   UNL d   1      23.742 -14.825  -2.763  0.00  0.00    -0.245 OA
ATOM      4  N   UNL d   1      26.063 -14.890  -2.651  0.00  0.00    -0.308 N 
ATOM      5  H   UNL d   1      25.515 -16.948  -1.116  0.00  0.00     0.192 HD
ATOM      6  H   UNL d   1      26.847 -15.497  -2.458  0.00  0.00     0.170 HD
ENDROOT
BRANCH   1   7
ATOM      7  N   UNL d   1      23.420 -16.987  -1.203  0.00  0.00    -0.262 N 
ATOM      8  C   UNL d   1      23.262 -18.213  -0.562  0.00  0.00     0.270 C 
ATOM      9  O   UNL d   1      24.236 -18.898  -0.228  0.00  0.00    -0.266 OA
ATOM     10  H   UNL d   1      22.652 -16.404  -1.529  0.00  0.00     0.190 HD
BRANCH   8  11
ATOM     11  C   UNL d   1      21.855 -18.728  -0.313  0.00  0.00     0.033 A 
ATOM     12  C   UNL d   1      21.405 -18.950   1.005  0.00  0.00     0.020 A 
ATOM     13  C   UNL d   1      20.158 -19.561   1.262  0.00  0.00     0.038 A 
ATOM     14  C   UNL d   1      19.313 -19.909   0.208  0.00  0.00     0.068 A 
ATOM     15  C   UNL d   1      19.712 -19.610  -1.092  0.00  0.00     0.038 A 
ATOM     16  C   UNL d   1      20.970 -19.039  -1.352  0.00  0.00     0.020 A 
BRANCH  14  17
ATOM     17  O   UNL d   1      18.095 -20.449   0.524  0.00  0.00    -0.356 OA
ATOM     18  C   UNL d   1      18.146 -21.740   1.135  0.00  0.00     0.210 C 
ENDBRANCH  14  17
ENDBRANCH   8  11
ENDBRANCH   1   7
BRANCH   4  19
ATOM     19  C   UNL d   1      26.323 -13.726  -3.436  0.00  0.00     0.036 A 
ATOM     20  C   UNL d   1      26.138 -12.437  -2.905  0.00  0.00     0.031 A 
ATOM     21  C   UNL d   1      26.343 -11.293  -3.703  0.00  0.00     0.026 A 
ATOM     22  C   UNL d   1      26.756 -11.430  -5.027  0.00  0.00     0.034 A 
ATOM     23 CL   UNL d   1      27.100 -10.037  -5.980  0.00  0.00    -0.084 Cl
ATOM     24  C   UNL d   1      26.920 -12.698  -5.571  0.00  0.00     0.026 A 
ATOM     25  C   UNL d   1      26.711 -13.835  -4.777  0.00  0.00     0.031 A 
ENDBRANCH   4  19
TORSDOF 4
ENDMDL
MODEL 4
REMARK VINA RESULT:    -6.553      3.018      3.498
REMARK INTER + INTRA:          -8.820
REMARK INTER:                  -7.746
REMARK INTRA:                  -1.073
REMARK CONF_INDEPENDENT:        1.193
REMARK UNBOUND:                -1.073
REMARK  4 active torsions:
REMARK  status: ('A' for Active; 'I' for Inactive)
REMARK    1  A    between atoms: O_2  and  C_3 
REMARK    2  A    between atoms: C_6  and  C_7 
REMARK       I    between atoms: C_7  and  N_9 
REMARK    3  A    between atoms: N_9  and  N_10 
REMARK       I    between atoms: N_10  and  C_11 
REMARK       I    between atoms: C_11  and  N_13 
REMARK    4  A    between atoms: N_13  and  C_14 
ROOT
ATOM      1  N   UNL d   1      24.379 -16.741  -2.123  0.00  0.00    -0.248 N 
ATOM      2  C   UNL d   1      23.340 -17.090  -1.264  0.00  0.00     0.339 C 
ATOM      3  O   UNL d   1      22.975 -16.303  -0.386  0.00  0.00    -0.245 OA
ATOM      4  N   UNL d   1      22.807 -18.362  -1.453  0.00  0.00    -0.308 N 
ATOM      5  H   UNL d   1      24.735 -17.305  -2.889  0.00  0.00     0.192 HD
ATOM      6  H   UNL d   1      23.313 -19.016  -2.033  0.00  0.00     0.170 HD
ENDROOT
BRANCH   1   7
ATOM      7  N   UNL d   1      24.982 -15.446  -1.951  0.00  0.00    -0.262 N 
ATOM      8  C   UNL d   1      25.361 -14.666  -3.041  0.00  0.00     0.270 C 
ATOM      9  O   UNL d   1      25.176 -15.045  -4.203  0.00  0.00    -0.266 OA
ATOM     10  H   UNL d   1      25.144 -15.195  -0.978  0.00  0.00     0.190 HD
BRANCH   8  11
ATOM     11  C   UNL d   1      26.056 -13.341  -2.780  0.00  0.00     0.033 A 
ATOM     12  C   UNL d   1      25.986 -12.304  -3.734  0.00  0.00     0.020 A 
ATOM     13  C   UNL d   1      26.738 -11.118  -3.585  0.00  0.00     0.038 A 
ATOM     14  C   UNL d   1      27.528 -10.921  -2.452  0.00  0.00     0.068 A 
ATOM     15  C   UNL d   1      27.530 -11.902  -1.464  0.00  0.00     0.038 A 
ATOM     16  C   UNL d   1      26.815 -13.101  -1.628  0.00  0.00     0.020 A 
BRANCH  14  17
ATOM     17  O   UNL d   1      28.190  -9.728  -2.340  0.00  0.00    -0.356 OA
ATOM     18  C   UNL d   1      27.357  -8.567  -2.383  0.00  0.00     0.210 C 
ENDBRANCH  14  17
ENDBRANCH   8  11
ENDBRANCH   1   7
BRANCH   4  19
ATOM     19  C   UNL d   1      21.712 -18.879  -0.696  0.00  0.00     0.036 A 
ATOM     20  C   UNL d   1      20.553 -19.357  -1.331  0.00  0.00     0.031 A 
ATOM     21  C   UNL d   1      19.454 -19.814  -0.575  0.00  0.00     0.026 A 
ATOM     22  C   UNL d   1      19.516 -19.816   0.817  0.00  0.00     0.034 A 
ATOM     23 CL   UNL d   1      18.217 -20.460   1.746  0.00  0.00    -0.084 Cl
ATOM     24  C   UNL d   1      20.647 -19.324   1.458  0.00  0.00     0.026 A 
ATOM     25  C   UNL d   1      21.737 -18.867   0.704  0.00  0.00     0.031 A 
ENDBRANCH   4  19
TORSDOF 4
ENDMDL
MODEL 5
REMARK VINA RESULT:    -6.366      4.824      9.847
REMARK INTER + INTRA:          -8.968
REMARK INTER:                  -7.559
REMARK INTRA:                  -1.408
REMARK CONF_INDEPENDENT:        1.193
REMARK UNBOUND:                -1.408
REMARK  4 active torsions:
REMARK  status: ('A' for Active; 'I' for Inactive)
REMARK    1  A    between atoms: O_2  and  C_3 
REMARK    2  A    between atoms: C_6  and  C_7 
REMARK       I    between atoms: C_7  and  N_9 
REMARK    3  A    between atoms: N_9  and  N_10 
REMARK       I    between atoms: N_10  and  C_11 
REMARK       I    between atoms: C_11  and  N_13 
REMARK    4  A    between atoms: N_13  and  C_14 
ROOT
ATOM      1  N   UNL d   1      26.064 -14.317  -2.698  0.00  0.00    -0.248 N 
ATOM      2  C   UNL d   1      25.923 -13.754  -3.964  0.00  0.00     0.339 C 
ATOM      3  O   UNL d   1      24.951 -14.047  -4.664  0.00  0.00    -0.245 OA
ATOM      4  N   UNL d   1      26.952 -12.905  -4.361  0.00  0.00    -0.308 N 
ATOM      5  H   UNL d   1      26.813 -14.123  -2.039  0.00  0.00     0.192 HD
ATOM      6  H   UNL d   1      27.810 -12.904  -3.828  0.00  0.00     0.170 HD
ENDROOT
BRANCH   1   7
ATOM      7  N   UNL d   1      25.040 -15.223  -2.252  0.00  0.00    -0.262 N 
ATOM      8  C   UNL d   1      25.237 -16.069  -1.163  0.00  0.00     0.270 C 
ATOM      9  O   UNL d   1      26.294 -16.062  -0.521  0.00  0.00    -0.266 OA
ATOM     10  H   UNL d   1      24.204 -15.216  -2.832  0.00  0.00     0.190 HD
BRANCH   8  11
ATOM     11  C   UNL d   1      24.135 -17.048  -0.794  0.00  0.00     0.033 A 
ATOM     12  C   UNL d   1      24.459 -18.352  -0.370  0.00  0.00     0.020 A 
ATOM     13  C   UNL d   1      23.457 -19.326  -0.159  0.00  0.00     0.038 A 
ATOM     14  C   UNL d   1      22.111 -18.997  -0.314  0.00  0.00     0.068 A 
ATOM     15  C   UNL d   1      21.780 -17.686  -0.646  0.00  0.00     0.038 A 
ATOM     16  C   UNL d   1      22.776 -16.726  -0.895  0.00  0.00     0.020 A 
BRANCH  14  17
ATOM     17  O   UNL d   1      21.185 -19.969  -0.044  0.00  0.00    -0.356 OA
ATOM     18  C   UNL d   1      19.823 -19.541  -0.105  0.00  0.00     0.210 C 
ENDBRANCH  14  17
ENDBRANCH   8  11
ENDBRANCH   1   7
BRANCH   4  19
ATOM     19  C   UNL d   1      26.962 -12.206  -5.607  0.00  0.00     0.036 A 
ATOM     20  C   UNL d   1      26.051 -11.167  -5.863  0.00  0.00     0.031 A 
ATOM     21  C   UNL d   1      26.030 -10.519  -7.114  0.00  0.00     0.026 A 
ATOM     22  C   UNL d   1      26.933 -10.891  -8.109  0.00  0.00     0.034 A 
ATOM     23 CL   UNL d   1      26.977 -10.042  -9.606  0.00  0.00    -0.084 Cl
ATOM     24  C   UNL d   1      27.824 -11.932  -7.877  0.00  0.00     0.026 A 
ATOM     25  C   UNL d   1      27.840 -12.578  -6.632  0.00  0.00     0.031 A 
ENDBRANCH   4  19
TORSDOF 4
ENDMDL
MODEL 6
REMARK VINA RESULT:    -6.363      2.988      3.802
REMARK INTER + INTRA:          -8.978
REMARK INTER:                  -7.556
REMARK INTRA:                  -1.422
REMARK CONF_INDEPENDENT:        1.193
REMARK UNBOUND:                -1.422
REMARK  4 active torsions:
REMARK  status: ('A' for Active; 'I' for Inactive)
REMARK    1  A    between atoms: O_2  and  C_3 
REMARK    2  A    between atoms: C_6  and  C_7 
REMARK       I    between atoms: C_7  and  N_9 
REMARK    3  A    between atoms: N_9  and  N_10 
REMARK       I    between atoms: N_10  and  C_11 
REMARK       I    between atoms: C_11  and  N_13 
REMARK    4  A    between atoms: N_13  and  C_14 
ROOT
ATOM      1  N   UNL d   1      24.660 -16.889  -0.947  0.00  0.00    -0.248 N 
ATOM      2  C   UNL d   1      23.777 -17.830  -0.424  0.00  0.00     0.339 C 
ATOM      3  O   UNL d   1      24.192 -18.708   0.337  0.00  0.00    -0.245 OA
ATOM      4  N   UNL d   1      22.458 -17.718  -0.853  0.00  0.00    -0.308 N 
ATOM      5  H   UNL d   1      24.415 -16.117  -1.559  0.00  0.00     0.192 HD
ATOM      6  H   UNL d   1      22.256 -17.123  -1.643  0.00  0.00     0.170 HD
ENDROOT
BRANCH   1   7
ATOM      7  N   UNL d   1      26.042 -16.979  -0.555  0.00  0.00    -0.262 N 
ATOM      8  C   UNL d   1      27.005 -16.116  -1.073  0.00  0.00     0.270 C 
ATOM      9  O   UNL d   1      26.709 -15.222  -1.874  0.00  0.00    -0.266 OA
ATOM     10  H   UNL d   1      26.240 -17.750   0.078  0.00  0.00     0.190 HD
BRANCH   8  11
ATOM     11  C   UNL d   1      28.455 -16.317  -0.666  0.00  0.00     0.033 A 
ATOM     12  C   UNL d   1      29.038 -15.484   0.311  0.00  0.00     0.020 A 
ATOM     13  C   UNL d   1      30.418 -15.553   0.605  0.00  0.00     0.038 A 
ATOM     14  C   UNL d   1      31.228 -16.493  -0.031  0.00  0.00     0.068 A 
ATOM     15  C   UNL d   1      30.641 -17.379  -0.930  0.00  0.00     0.038 A 
ATOM     16  C   UNL d   1      29.276 -17.286  -1.254  0.00  0.00     0.020 A 
BRANCH  14  17
ATOM     17  O   UNL d   1      32.547 -16.546   0.337  0.00  0.00    -0.356 OA
ATOM     18  C   UNL d   1      32.785 -16.988   1.675  0.00  0.00     0.210 C 
ENDBRANCH  14  17
ENDBRANCH   8  11
ENDBRANCH   1   7
BRANCH   4  19
ATOM     19  C   UNL d   1      21.405 -18.567  -0.394  0.00  0.00     0.036 A 
ATOM     20  C   UNL d   1      20.385 -18.992  -1.262  0.00  0.00     0.031 A 
ATOM     21  C   UNL d   1      19.319 -19.784  -0.789  0.00  0.00     0.026 A 
ATOM     22  C   UNL d   1      19.279 -20.174   0.548  0.00  0.00     0.034 A 
ATOM     23 CL   UNL d   1      18.032 -21.219   1.113  0.00  0.00    -0.084 Cl
ATOM     24  C   UNL d   1      20.269 -19.742   1.423  0.00  0.00     0.026 A 
ATOM     25  C   UNL d   1      21.326 -18.951   0.951  0.00  0.00     0.031 A 
ENDBRANCH   4  19
TORSDOF 4
ENDMDL
MODEL 7
REMARK VINA RESULT:    -6.287      6.070      9.869
REMARK INTER + INTRA:          -8.920
REMARK INTER:                  -7.480
REMARK INTRA:                  -1.440
REMARK CONF_INDEPENDENT:        1.193
REMARK UNBOUND:                -1.440
REMARK  4 active torsions:
REMARK  status: ('A' for Active; 'I' for Inactive)
REMARK    1  A    between atoms: O_2  and  C_3 
REMARK    2  A    between atoms: C_6  and  C_7 
REMARK       I    between atoms: C_7  and  N_9 
REMARK    3  A    between atoms: N_9  and  N_10 
REMARK       I    between atoms: N_10  and  C_11 
REMARK       I    between atoms: C_11  and  N_13 
REMARK    4  A    between atoms: N_13  and  C_14 
ROOT
ATOM      1  N   UNL d   1      27.786 -16.245   1.005  0.00  0.00    -0.248 N 
ATOM      2  C   UNL d   1      28.154 -14.974   1.440  0.00  0.00     0.339 C 
ATOM      3  O   UNL d   1      27.321 -14.064   1.461  0.00  0.00    -0.245 OA
ATOM      4  N   UNL d   1      29.492 -14.825   1.791  0.00  0.00    -0.308 N 
ATOM      5  H   UNL d   1      28.388 -17.062   0.973  0.00  0.00     0.192 HD
ATOM      6  H   UNL d   1      30.145 -15.550   1.527  0.00  0.00     0.170 HD
ENDROOT
BRANCH   1   7
ATOM      7  N   UNL d   1      26.418 -16.444   0.605  0.00  0.00    -0.262 N 
ATOM      8  C   UNL d   1      25.934 -17.704   0.262  0.00  0.00     0.270 C 
ATOM      9  O   UNL d   1      26.653 -18.708   0.308  0.00  0.00    -0.266 OA
ATOM     10  H   UNL d   1      25.877 -15.584   0.549  0.00  0.00     0.190 HD
BRANCH   8  11
ATOM     11  C   UNL d   1      24.497 -17.824  -0.218  0.00  0.00     0.033 A 
ATOM     12  C   UNL d   1      23.760 -16.667  -0.543  0.00  0.00     0.020 A 
ATOM     13  C   UNL d   1      22.383 -16.737  -0.852  0.00  0.00     0.038 A 
ATOM     14  C   UNL d   1      21.733 -17.970  -0.898  0.00  0.00     0.068 A 
ATOM     15  C   UNL d   1      22.476 -19.124  -0.666  0.00  0.00     0.038 A 
ATOM     16  C   UNL d   1      23.836 -19.054  -0.319  0.00  0.00     0.020 A 
BRANCH  14  17
ATOM     17  O   UNL d   1      20.411 -17.977  -1.256  0.00  0.00    -0.356 OA
ATOM     18  C   UNL d   1      19.671 -19.119  -0.819  0.00  0.00     0.210 C 
ENDBRANCH  14  17
ENDBRANCH   8  11
ENDBRANCH   1   7
BRANCH   4  19
ATOM     19  C   UNL d   1      30.044 -13.609   2.297  0.00  0.00     0.036 A 
ATOM     20  C   UNL d   1      31.199 -13.044   1.728  0.00  0.00     0.031 A 
ATOM     21  C   UNL d   1      31.769 -11.873   2.268  0.00  0.00     0.026 A 
ATOM     22  C   UNL d   1      31.177 -11.249   3.364  0.00  0.00     0.034 A 
ATOM     23 CL   UNL d   1      31.812  -9.768   3.970  0.00  0.00    -0.084 Cl
ATOM     24  C   UNL d   1      30.048 -11.809   3.950  0.00  0.00     0.026 A 
ATOM     25  C   UNL d   1      29.485 -12.976   3.414  0.00  0.00     0.031 A 
ENDBRANCH   4  19
TORSDOF 4
ENDMDL
MODEL 8
REMARK VINA RESULT:    -6.231      4.054      9.669
REMARK INTER + INTRA:          -8.880
REMARK INTER:                  -7.424
REMARK INTRA:                  -1.456
REMARK CONF_INDEPENDENT:        1.193
REMARK UNBOUND:                -1.456
REMARK  4 active torsions:
REMARK  status: ('A' for Active; 'I' for Inactive)
REMARK    1  A    between atoms: O_2  and  C_3 
REMARK    2  A    between atoms: C_6  and  C_7 
REMARK       I    between atoms: C_7  and  N_9 
REMARK    3  A    between atoms: N_9  and  N_10 
REMARK       I    between atoms: N_10  and  C_11 
REMARK       I    between atoms: C_11  and  N_13 
REMARK    4  A    between atoms: N_13  and  C_14 
ROOT
ATOM      1  N   UNL d   1      25.404 -16.804  -1.194  0.00  0.00    -0.248 N 
ATOM      2  C   UNL d   1      25.868 -16.291  -2.402  0.00  0.00     0.339 C 
ATOM      3  O   UNL d   1      25.155 -16.339  -3.408  0.00  0.00    -0.245 OA
ATOM      4  N   UNL d   1      27.164 -15.783  -2.379  0.00  0.00    -0.308 N 
ATOM      5  H   UNL d   1      25.903 -16.791  -0.310  0.00  0.00     0.192 HD
ATOM      6  H   UNL d   1      27.750 -15.991  -1.584  0.00  0.00     0.170 HD
ENDROOT
BRANCH   1   7
ATOM      7  N   UNL d   1      24.080 -17.367  -1.172  0.00  0.00    -0.262 N 
ATOM      8  C   UNL d   1      23.591 -18.040  -0.055  0.00  0.00     0.270 C 
ATOM      9  O   UNL d   1      24.266 -18.164   0.972  0.00  0.00    -0.266 OA
ATOM     10  H   UNL d   1      23.577 -17.269  -2.052  0.00  0.00     0.190 HD
BRANCH   8  11
ATOM     11  C   UNL d   1      22.209 -18.667  -0.132  0.00  0.00     0.033 A 
ATOM     12  C   UNL d   1      21.628 -18.950  -1.386  0.00  0.00     0.020 A 
ATOM     13  C   UNL d   1      20.293 -19.398  -1.491  0.00  0.00     0.038 A 
ATOM     14  C   UNL d   1      19.532 -19.625  -0.344  0.00  0.00     0.068 A 
ATOM     15  C   UNL d   1      20.129 -19.433   0.899  0.00  0.00     0.038 A 
ATOM     16  C   UNL d   1      21.444 -18.950   1.006  0.00  0.00     0.020 A 
BRANCH  14  17
ATOM     17  O   UNL d   1      18.262 -20.109  -0.511  0.00  0.00    -0.356 OA
ATOM     18  C   UNL d   1      17.913 -21.199   0.345  0.00  0.00     0.210 C 
ENDBRANCH  14  17
ENDBRANCH   8  11
ENDBRANCH   1   7
BRANCH   4  19
ATOM     19  C   UNL d   1      27.794 -15.179  -3.510  0.00  0.00     0.036 A 
ATOM     20  C   UNL d   1      27.273 -14.012  -4.094  0.00  0.00     0.031 A 
ATOM     21  C   UNL d   1      27.869 -13.453  -5.243  0.00  0.00     0.026 A 
ATOM     22  C   UNL d   1      29.001 -14.045  -5.801  0.00  0.00     0.034 A 
ATOM     23 CL   UNL d   1      29.790 -13.317  -7.147  0.00  0.00    -0.084 Cl
ATOM     24  C   UNL d   1      29.513 -15.212  -5.246  0.00  0.00     0.026 A 
ATOM     25  C   UNL d   1      28.916 -15.768  -4.106  0.00  0.00     0.031 A 
ENDBRANCH   4  19
TORSDOF 4
ENDMDL
MODEL 9
REMARK VINA RESULT:    -6.220      5.349     10.091
REMARK INTER + INTRA:          -8.857
REMARK INTER:                  -7.413
REMARK INTRA:                  -1.444
REMARK CONF_INDEPENDENT:        1.193
REMARK UNBOUND:                -1.444
REMARK  4 active torsions:
REMARK  status: ('A' for Active; 'I' for Inactive)
REMARK    1  A    between atoms: O_2  and  C_3 
REMARK    2  A    between atoms: C_6  and  C_7 
REMARK       I    between atoms: C_7  and  N_9 
REMARK    3  A    between atoms: N_9  and  N_10 
REMARK       I    between atoms: N_10  and  C_11 
REMARK       I    between atoms: C_11  and  N_13 
REMARK    4  A    between atoms: N_13  and  C_14 
ROOT
ATOM      1  N   UNL d   1      28.286 -17.836  -0.223  0.00  0.00    -0.248 N 
ATOM      2  C   UNL d   1      29.230 -17.447  -1.170  0.00  0.00     0.339 C 
ATOM      3  O   UNL d   1      28.864 -17.072  -2.287  0.00  0.00    -0.245 OA
ATOM      4  N   UNL d   1      30.559 -17.557  -0.772  0.00  0.00    -0.308 N 
ATOM      5  H   UNL d   1      28.483 -18.137   0.727  0.00  0.00     0.192 HD
ATOM      6  H   UNL d   1      30.771 -18.084   0.063  0.00  0.00     0.170 HD
ENDROOT
BRANCH   1   7
ATOM      7  N   UNL d   1      26.898 -17.767  -0.596  0.00  0.00    -0.262 N 
ATOM      8  C   UNL d   1      25.887 -18.162   0.277  0.00  0.00     0.270 C 
ATOM      9  O   UNL d   1      26.139 -18.568   1.418  0.00  0.00    -0.266 OA
ATOM     10  H   UNL d   1      26.745 -17.461  -1.554  0.00  0.00     0.190 HD
BRANCH   8  11
ATOM     11  C   UNL d   1      24.449 -18.127  -0.212  0.00  0.00     0.033 A 
ATOM     12  C   UNL d   1      23.783 -16.894  -0.364  0.00  0.00     0.020 A 
ATOM     13  C   UNL d   1      22.407 -16.837  -0.677  0.00  0.00     0.038 A 
ATOM     14  C   UNL d   1      21.685 -18.009  -0.901  0.00  0.00     0.068 A 
ATOM     15  C   UNL d   1      22.358 -19.227  -0.841  0.00  0.00     0.038 A 
ATOM     16  C   UNL d   1      23.718 -19.288  -0.490  0.00  0.00     0.020 A 
BRANCH  14  17
ATOM     17  O   UNL d   1      20.368 -17.886  -1.254  0.00  0.00    -0.356 OA
ATOM     18  C   UNL d   1      19.531 -18.976  -0.859  0.00  0.00     0.210 C 
ENDBRANCH  14  17
ENDBRANCH   8  11
ENDBRANCH   1   7
BRANCH   4  19
ATOM     19  C   UNL d   1      31.662 -17.168  -1.591  0.00  0.00     0.036 A 
ATOM     20  C   UNL d   1      32.619 -16.248  -1.130  0.00  0.00     0.031 A 
ATOM     21  C   UNL d   1      33.675 -15.827  -1.965  0.00  0.00     0.026 A 
ATOM     22  C   UNL d   1      33.791 -16.339  -3.256  0.00  0.00     0.034 A 
ATOM     23 CL   UNL d   1      35.129 -15.903  -4.248  0.00  0.00    -0.084 Cl
ATOM     24  C   UNL d   1      32.839 -17.232  -3.732  0.00  0.00     0.026 A 
ATOM     25  C   UNL d   1      31.788 -17.646  -2.901  0.00  0.00     0.031 A 
ENDBRANCH   4  19
TORSDOF 4
ENDMDL
