MODEL 1
REMARK VINA RESULT:   -30.358      0.000      0.000
REMARK INTER + INTRA:         -33.518
REMARK INTER:                 -31.849
REMARK INTRA:                  -1.669
REMARK CONF_INDEPENDENT:        1.492
REMARK UNBOUND:                -1.669
REMARK  5 active torsions:
REMARK  status: ('A' for Active; 'I' for Inactive)
REMARK       I    between atoms: C_2  and  N_3 
REMARK       I    between atoms: C_2  and  N_16 
REMARK    1  A    between atoms: N_3  and  C_4 
REMARK    2  A    between atoms: C_4  and  C_5 
REMARK    3  A    between atoms: C_5  and  N_6 
REMARK       I    between atoms: N_6  and  C_7 
REMARK       I    between atoms: C_7  and  N_9 
REMARK    4  A    between atoms: N_9  and  C_10 
REMARK    5  A    between atoms: N_16  and  C_17 
ROOT
ATOM      1  C   UNL d   1      26.095 -16.181  -1.364  0.00  0.00     0.144 C 
ENDROOT
BRANCH   1   2
ATOM      2  N   UNL d   1      26.235 -15.484  -2.642  0.00  0.00    -0.341 N 
ATOM      3  C   UNL d   1      25.200 -14.822  -3.257  0.00  0.00     0.321 C 
ATOM      4  O   UNL d   1      24.059 -14.798  -2.781  0.00  0.00    -0.247 OA
ATOM      5  N   UNL d   1      25.480 -14.126  -4.401  0.00  0.00    -0.293 N 
ATOM      6  H   UNL d   1      24.776 -13.456  -4.685  0.00  0.00     0.172 HD
ATOM      7  H   UNL d   1      27.171 -15.240  -2.931  0.00  0.00     0.164 HD
BRANCH   5   8
ATOM      8  C   UNL d   1      26.671 -14.081  -5.131  0.00  0.00     0.131 A 
ATOM      9  C   UNL d   1      27.051 -12.909  -5.769  0.00  0.00     0.050 A 
ATOM     10  C   UNL d   1      28.151 -12.918  -6.614  0.00  0.00     0.005 A 
ATOM     11  C   UNL d   1      28.872 -14.090  -6.764  0.00  0.00     0.019 A 
ATOM     12  C   UNL d   1      28.478 -15.196  -6.028  0.00  0.00     0.119 A 
ATOM     13  N   UNL d   1      27.406 -15.210  -5.194  0.00  0.00    -0.243 NA
ENDBRANCH   5   8
ENDBRANCH   1   2
BRANCH   1  14
ATOM     14  C   UNL d   1      25.274 -17.485  -1.465  0.00  0.00     0.144 C 
BRANCH  14  15
ATOM     15  N   UNL d   1      23.814 -17.321  -1.476  0.00  0.00    -0.341 N 
ATOM     16  C   UNL d   1      23.011 -18.259  -0.854  0.00  0.00     0.321 C 
ATOM     17  O   UNL d   1      23.515 -19.234  -0.292  0.00  0.00    -0.247 OA
ATOM     18  N   UNL d   1      21.652 -18.009  -0.918  0.00  0.00    -0.293 N 
ATOM     19  H   UNL d   1      21.285 -17.451  -1.673  0.00  0.00     0.172 HD
ATOM     20  H   UNL d   1      23.400 -16.525  -1.940  0.00  0.00     0.164 HD
BRANCH  18  21
ATOM     21  C   UNL d   1      20.709 -18.896  -0.337  0.00  0.00     0.131 A 
ATOM     22  C   UNL d   1      20.875 -19.327   0.976  0.00  0.00     0.050 A 
ATOM     23  C   UNL d   1      19.967 -20.222   1.539  0.00  0.00     0.005 A 
ATOM     24  C   UNL d   1      18.914 -20.687   0.771  0.00  0.00     0.019 A 
ATOM     25  C   UNL d   1      18.794 -20.191  -0.518  0.00  0.00     0.119 A 
ATOM     26  N   UNL d   1      19.641 -19.276  -1.077  0.00  0.00    -0.243 NA
ENDBRANCH  18  21
ENDBRANCH  14  15
ENDBRANCH   1  14
TORSDOF 5
ENDMDL
MODEL 2
REMARK VINA RESULT:   -30.169      3.183      4.831
REMARK INTER + INTRA:         -32.619
REMARK INTER:                 -31.660
REMARK INTRA:                  -0.958
REMARK CONF_INDEPENDENT:        1.492
REMARK UNBOUND:                -0.958
REMARK  5 active torsions:
REMARK  status: ('A' for Active; 'I' for Inactive)
REMARK       I    between atoms: C_2  and  N_3 
REMARK       I    between atoms: C_2  and  N_16 
REMARK    1  A    between atoms: N_3  and  C_4 
REMARK    2  A    between atoms: C_4  and  C_5 
REMARK    3  A    between atoms: C_5  and  N_6 
REMARK       I    between atoms: N_6  and  C_7 
REMARK       I    between atoms: C_7  and  N_9 
REMARK    4  A    between atoms: N_9  and  C_10 
REMARK    5  A    between atoms: N_16  and  C_17 
ROOT
ATOM      1  C   UNL d   1      25.497 -16.080  -1.906  0.00  0.00     0.144 C 
ENDROOT
BRANCH   1   2
ATOM      2  N   UNL d   1      26.252 -15.669  -0.723  0.00  0.00    -0.341 N 
ATOM      3  C   UNL d   1      27.040 -16.527   0.005  0.00  0.00     0.321 C 
ATOM      4  O   UNL d   1      27.141 -17.726  -0.277  0.00  0.00    -0.247 OA
ATOM      5  N   UNL d   1      27.773 -16.000   1.034  0.00  0.00    -0.293 N 
ATOM      6  H   UNL d   1      28.520 -16.589   1.380  0.00  0.00     0.172 HD
ATOM      7  H   UNL d   1      26.425 -14.680  -0.610  0.00  0.00     0.164 HD
BRANCH   5   8
ATOM      8  C   UNL d   1      27.750 -14.703   1.552  0.00  0.00     0.131 A 
ATOM      9  C   UNL d   1      28.387 -14.423   2.753  0.00  0.00     0.050 A 
ATOM     10  C   UNL d   1      28.230 -13.173   3.333  0.00  0.00     0.005 A 
ATOM     11  C   UNL d   1      27.475 -12.217   2.675  0.00  0.00     0.019 A 
ATOM     12  C   UNL d   1      26.941 -12.547   1.439  0.00  0.00     0.119 A 
ATOM     13  N   UNL d   1      27.083 -13.763   0.851  0.00  0.00    -0.243 NA
ENDBRANCH   5   8
ENDBRANCH   1   2
BRANCH   1  14
ATOM     14  C   UNL d   1      24.802 -17.450  -1.742  0.00  0.00     0.144 C 
BRANCH  14  15
ATOM     15  N   UNL d   1      23.784 -17.526  -0.685  0.00  0.00    -0.341 N 
ATOM     16  C   UNL d   1      22.701 -18.373  -0.832  0.00  0.00     0.321 C 
ATOM     17  O   UNL d   1      22.585 -19.063  -1.847  0.00  0.00    -0.247 OA
ATOM     18  N   UNL d   1      21.805 -18.375   0.221  0.00  0.00    -0.293 N 
ATOM     19  H   UNL d   1      21.734 -17.562   0.814  0.00  0.00     0.172 HD
ATOM     20  H   UNL d   1      23.876 -16.958   0.145  0.00  0.00     0.164 HD
BRANCH  18  21
ATOM     21  C   UNL d   1      20.638 -19.183   0.199  0.00  0.00     0.131 A 
ATOM     22  C   UNL d   1      20.318 -19.971   1.301  0.00  0.00     0.050 A 
ATOM     23  C   UNL d   1      19.190 -20.790   1.271  0.00  0.00     0.005 A 
ATOM     24  C   UNL d   1      18.409 -20.820   0.128  0.00  0.00     0.019 A 
ATOM     25  C   UNL d   1      18.772 -19.985  -0.917  0.00  0.00     0.119 A 
ATOM     26  N   UNL d   1      19.843 -19.137  -0.895  0.00  0.00    -0.243 NA
ENDBRANCH  18  21
ENDBRANCH  14  15
ENDBRANCH   1  14
TORSDOF 5
ENDMDL
MODEL 3
REMARK VINA RESULT:   -30.001      1.353      8.785
REMARK INTER + INTRA:         -31.720
REMARK INTER:                 -31.492
REMARK INTRA:                  -0.228
REMARK CONF_INDEPENDENT:        1.492
REMARK UNBOUND:                -0.228
REMARK  5 active torsions:
REMARK  status: ('A' for Active; 'I' for Inactive)
REMARK       I    between atoms: C_2  and  N_3 
REMARK       I    between atoms: C_2  and  N_16 
REMARK    1  A    between atoms: N_3  and  C_4 
REMARK    2  A    between atoms: C_4  and  C_5 
REMARK    3  A    between atoms: C_5  and  N_6 
REMARK       I    between atoms: N_6  and  C_7 
REMARK       I    between atoms: C_7  and  N_9 
REMARK    4  A    between atoms: N_9  and  C_10 
REMARK    5  A    between atoms: N_16  and  C_17 
ROOT
ATOM      1  C   UNL d   1      25.042 -18.201   0.514  0.00  0.00     0.144 C 
ENDROOT
BRANCH   1   2
ATOM      2  N   UNL d   1      23.684 -18.491   0.054  0.00  0.00    -0.341 N 
ATOM      3  C   UNL d   1      23.320 -18.486  -1.271  0.00  0.00     0.321 C 
ATOM      4  O   UNL d   1      24.117 -18.201  -2.171  0.00  0.00    -0.247 OA
ATOM      5  N   UNL d   1      22.043 -18.869  -1.581  0.00  0.00    -0.293 N 
ATOM      6  H   UNL d   1      21.883 -19.096  -2.554  0.00  0.00     0.172 HD
ATOM      7  H   UNL d   1      23.079 -18.984   0.694  0.00  0.00     0.164 HD
BRANCH   5   8
ATOM      8  C   UNL d   1      20.981 -19.159  -0.721  0.00  0.00     0.131 A 
ATOM      9  C   UNL d   1      21.207 -19.283   0.643  0.00  0.00     0.050 A 
ATOM     10  C   UNL d   1      20.181 -19.721   1.467  0.00  0.00     0.005 A 
ATOM     11  C   UNL d   1      18.939 -19.982   0.913  0.00  0.00     0.019 A 
ATOM     12  C   UNL d   1      18.771 -19.754  -0.444  0.00  0.00     0.119 A 
ATOM     13  N   UNL d   1      19.760 -19.324  -1.270  0.00  0.00    -0.243 NA
ENDBRANCH   5   8
ENDBRANCH   1   2
BRANCH   1  14
ATOM     14  C   UNL d   1      25.512 -16.771   0.169  0.00  0.00     0.144 C 
BRANCH  14  15
ATOM     15  N   UNL d   1      25.057 -16.243  -1.125  0.00  0.00    -0.341 N 
ATOM     16  C   UNL d   1      25.970 -15.688  -2.002  0.00  0.00     0.321 C 
ATOM     17  O   UNL d   1      27.165 -15.632  -1.702  0.00  0.00    -0.247 OA
ATOM     18  N   UNL d   1      25.440 -15.227  -3.193  0.00  0.00    -0.293 N 
ATOM     19  H   UNL d   1      24.470 -14.952  -3.232  0.00  0.00     0.172 HD
ATOM     20  H   UNL d   1      24.078 -16.286  -1.370  0.00  0.00     0.164 HD
BRANCH  18  21
ATOM     21  C   UNL d   1      26.258 -14.618  -4.180  0.00  0.00     0.131 A 
ATOM     22  C   UNL d   1      26.295 -13.232  -4.294  0.00  0.00     0.050 A 
ATOM     23  C   UNL d   1      27.073 -12.632  -5.283  0.00  0.00     0.005 A 
ATOM     24  C   UNL d   1      27.790 -13.432  -6.155  0.00  0.00     0.019 A 
ATOM     25  C   UNL d   1      27.730 -14.804  -5.961  0.00  0.00     0.119 A 
ATOM     26  N   UNL d   1      27.015 -15.414  -4.971  0.00  0.00    -0.243 NA
ENDBRANCH  18  21
ENDBRANCH  14  15
ENDBRANCH   1  14
TORSDOF 5
ENDMDL
MODEL 4
REMARK VINA RESULT:   -29.739      0.980      1.261
REMARK INTER + INTRA:         -32.212
REMARK INTER:                 -31.231
REMARK INTRA:                  -0.981
REMARK CONF_INDEPENDENT:        1.492
REMARK UNBOUND:                -0.981
REMARK  5 active torsions:
REMARK  status: ('A' for Active; 'I' for Inactive)
REMARK       I    between atoms: C_2  and  N_3 
REMARK       I    between atoms: C_2  and  N_16 
REMARK    1  A    between atoms: N_3  and  C_4 
REMARK    2  A    between atoms: C_4  and  C_5 
REMARK    3  A    between atoms: C_5  and  N_6 
REMARK       I    between atoms: N_6  and  C_7 
REMARK       I    between atoms: C_7  and  N_9 
REMARK    4  A    between atoms: N_9  and  C_10 
REMARK    5  A    between atoms: N_16  and  C_17 
ROOT
ATOM      1  C   UNL d   1      25.603 -15.312  -1.453  0.00  0.00     0.144 C 
ENDROOT
BRANCH   1   2
ATOM      2  N   UNL d   1      26.290 -15.146  -2.734  0.00  0.00    -0.341 N 
ATOM      3  C   UNL d   1      25.674 -14.663  -3.862  0.00  0.00     0.321 C 
ATOM      4  O   UNL d   1      24.475 -14.362  -3.880  0.00  0.00    -0.247 OA
ATOM      5  N   UNL d   1      26.448 -14.462  -4.973  0.00  0.00    -0.293 N 
ATOM      6  H   UNL d   1      26.034 -13.880  -5.691  0.00  0.00     0.172 HD
ATOM      7  H   UNL d   1      27.299 -15.112  -2.712  0.00  0.00     0.164 HD
BRANCH   5   8
ATOM      8  C   UNL d   1      27.788 -14.796  -5.180  0.00  0.00     0.131 A 
ATOM      9  C   UNL d   1      28.316 -14.792  -6.464  0.00  0.00     0.050 A 
ATOM     10  C   UNL d   1      29.600 -15.272  -6.676  0.00  0.00     0.005 A 
ATOM     11  C   UNL d   1      30.343 -15.703  -5.590  0.00  0.00     0.019 A 
ATOM     12  C   UNL d   1      29.776 -15.598  -4.329  0.00  0.00     0.119 A 
ATOM     13  N   UNL d   1      28.522 -15.130  -4.098  0.00  0.00    -0.243 NA
ENDBRANCH   5   8
ENDBRANCH   1   2
BRANCH   1  14
ATOM     14  C   UNL d   1      24.996 -16.719  -1.262  0.00  0.00     0.144 C 
BRANCH  14  15
ATOM     15  N   UNL d   1      23.537 -16.810  -1.415  0.00  0.00    -0.341 N 
ATOM     16  C   UNL d   1      22.842 -17.830  -0.792  0.00  0.00     0.321 C 
ATOM     17  O   UNL d   1      23.442 -18.665  -0.110  0.00  0.00    -0.247 OA
ATOM     18  N   UNL d   1      21.474 -17.823  -0.994  0.00  0.00    -0.293 N 
ATOM     19  H   UNL d   1      21.097 -17.386  -1.821  0.00  0.00     0.172 HD
ATOM     20  H   UNL d   1      23.045 -16.129  -1.976  0.00  0.00     0.164 HD
BRANCH  18  21
ATOM     21  C   UNL d   1      20.637 -18.820  -0.428  0.00  0.00     0.131 A 
ATOM     22  C   UNL d   1      20.944 -19.362   0.817  0.00  0.00     0.050 A 
ATOM     23  C   UNL d   1      20.141 -20.363   1.361  0.00  0.00     0.005 A 
ATOM     24  C   UNL d   1      19.052 -20.820   0.640  0.00  0.00     0.019 A 
ATOM     25  C   UNL d   1      18.790 -20.212  -0.578  0.00  0.00     0.119 A 
ATOM     26  N   UNL d   1      19.530 -19.196  -1.111  0.00  0.00    -0.243 NA
ENDBRANCH  18  21
ENDBRANCH  14  15
ENDBRANCH   1  14
TORSDOF 5
ENDMDL
MODEL 5
REMARK VINA RESULT:   -29.214      1.417      1.823
REMARK INTER + INTRA:         -31.687
REMARK INTER:                 -30.705
REMARK INTRA:                  -0.982
REMARK CONF_INDEPENDENT:        1.492
REMARK UNBOUND:                -0.982
REMARK  5 active torsions:
REMARK  status: ('A' for Active; 'I' for Inactive)
REMARK       I    between atoms: C_2  and  N_3 
REMARK       I    between atoms: C_2  and  N_16 
REMARK    1  A    between atoms: N_3  and  C_4 
REMARK    2  A    between atoms: C_4  and  C_5 
REMARK    3  A    between atoms: C_5  and  N_6 
REMARK       I    between atoms: N_6  and  C_7 
REMARK       I    between atoms: C_7  and  N_9 
REMARK    4  A    between atoms: N_9  and  C_10 
REMARK    5  A    between atoms: N_16  and  C_17 
ROOT
ATOM      1  C   UNL d   1      24.782 -16.102  -2.401  0.00  0.00     0.144 C 
ENDROOT
BRANCH   1   2
ATOM      2  N   UNL d   1      26.087 -15.676  -2.907  0.00  0.00    -0.341 N 
ATOM      3  C   UNL d   1      27.132 -15.319  -2.090  0.00  0.00     0.321 C 
ATOM      4  O   UNL d   1      27.028 -15.302  -0.858  0.00  0.00    -0.247 OA
ATOM      5  N   UNL d   1      28.333 -15.033  -2.681  0.00  0.00    -0.293 N 
ATOM      6  H   UNL d   1      29.131 -15.023  -2.058  0.00  0.00     0.172 HD
ATOM      7  H   UNL d   1      26.314 -15.926  -3.858  0.00  0.00     0.164 HD
BRANCH   5   8
ATOM      8  C   UNL d   1      28.638 -14.929  -4.040  0.00  0.00     0.131 A 
ATOM      9  C   UNL d   1      29.960 -14.984  -4.462  0.00  0.00     0.050 A 
ATOM     10  C   UNL d   1      30.263 -14.727  -5.790  0.00  0.00     0.005 A 
ATOM     11  C   UNL d   1      29.232 -14.465  -6.676  0.00  0.00     0.019 A 
ATOM     12  C   UNL d   1      27.933 -14.509  -6.194  0.00  0.00     0.119 A 
ATOM     13  N   UNL d   1      27.612 -14.760  -4.899  0.00  0.00    -0.243 NA
ENDBRANCH   5   8
ENDBRANCH   1   2
BRANCH   1  14
ATOM     14  C   UNL d   1      24.842 -17.404  -1.573  0.00  0.00     0.144 C 
BRANCH  14  15
ATOM     15  N   UNL d   1      23.826 -17.538  -0.520  0.00  0.00    -0.341 N 
ATOM     16  C   UNL d   1      22.713 -18.329  -0.734  0.00  0.00     0.321 C 
ATOM     17  O   UNL d   1      22.567 -18.921  -1.807  0.00  0.00    -0.247 OA
ATOM     18  N   UNL d   1      21.821 -18.393   0.321  0.00  0.00    -0.293 N 
ATOM     19  H   UNL d   1      21.782 -17.634   0.984  0.00  0.00     0.172 HD
ATOM     20  H   UNL d   1      23.943 -17.051   0.357  0.00  0.00     0.164 HD
BRANCH  18  21
ATOM     21  C   UNL d   1      20.626 -19.153   0.235  0.00  0.00     0.131 A 
ATOM     22  C   UNL d   1      20.222 -19.938   1.311  0.00  0.00     0.050 A 
ATOM     23  C   UNL d   1      19.065 -20.710   1.218  0.00  0.00     0.005 A 
ATOM     24  C   UNL d   1      18.339 -20.698   0.040  0.00  0.00     0.019 A 
ATOM     25  C   UNL d   1      18.784 -19.868  -0.978  0.00  0.00     0.119 A 
ATOM     26  N   UNL d   1      19.885 -19.065  -0.895  0.00  0.00    -0.243 NA
ENDBRANCH  18  21
ENDBRANCH  14  15
ENDBRANCH   1  14
TORSDOF 5
ENDMDL
MODEL 6
REMARK VINA RESULT:   -29.161      1.669      2.255
REMARK INTER + INTRA:         -31.546
REMARK INTER:                 -30.653
REMARK INTRA:                  -0.894
REMARK CONF_INDEPENDENT:        1.492
REMARK UNBOUND:                -0.894
REMARK  5 active torsions:
REMARK  status: ('A' for Active; 'I' for Inactive)
REMARK       I    between atoms: C_2  and  N_3 
REMARK       I    between atoms: C_2  and  N_16 
REMARK    1  A    between atoms: N_3  and  C_4 
REMARK    2  A    between atoms: C_4  and  C_5 
REMARK    3  A    between atoms: C_5  and  N_6 
REMARK       I    between atoms: N_6  and  C_7 
REMARK       I    between atoms: C_7  and  N_9 
REMARK    4  A    between atoms: N_9  and  C_10 
REMARK    5  A    between atoms: N_16  and  C_17 
ROOT
ATOM      1  C   UNL d   1      26.111 -16.652  -1.405  0.00  0.00     0.144 C 
ENDROOT
BRANCH   1   2
ATOM      2  N   UNL d   1      26.504 -15.591  -2.331  0.00  0.00    -0.341 N 
ATOM      3  C   UNL d   1      27.616 -15.666  -3.134  0.00  0.00     0.321 C 
ATOM      4  O   UNL d   1      28.386 -16.633  -3.104  0.00  0.00    -0.247 OA
ATOM      5  N   UNL d   1      27.825 -14.652  -4.030  0.00  0.00    -0.293 N 
ATOM      6  H   UNL d   1      28.490 -14.853  -4.765  0.00  0.00     0.172 HD
ATOM      7  H   UNL d   1      25.793 -14.924  -2.595  0.00  0.00     0.164 HD
BRANCH   5   8
ATOM      8  C   UNL d   1      27.123 -13.453  -4.175  0.00  0.00     0.131 A 
ATOM      9  C   UNL d   1      27.382 -12.623  -5.256  0.00  0.00     0.050 A 
ATOM     10  C   UNL d   1      26.793 -11.368  -5.310  0.00  0.00     0.005 A 
ATOM     11  C   UNL d   1      25.922 -10.991  -4.301  0.00  0.00     0.019 A 
ATOM     12  C   UNL d   1      25.651 -11.910  -3.299  0.00  0.00     0.119 A 
ATOM     13  N   UNL d   1      26.214 -13.144  -3.227  0.00  0.00    -0.243 NA
ENDBRANCH   5   8
ENDBRANCH   1   2
BRANCH   1  14
ATOM     14  C   UNL d   1      24.776 -17.330  -1.782  0.00  0.00     0.144 C 
BRANCH  14  15
ATOM     15  N   UNL d   1      23.778 -17.419  -0.707  0.00  0.00    -0.341 N 
ATOM     16  C   UNL d   1      22.699 -18.274  -0.838  0.00  0.00     0.321 C 
ATOM     17  O   UNL d   1      22.569 -18.960  -1.855  0.00  0.00    -0.247 OA
ATOM     18  N   UNL d   1      21.822 -18.287   0.231  0.00  0.00    -0.293 N 
ATOM     19  H   UNL d   1      21.756 -17.478   0.829  0.00  0.00     0.172 HD
ATOM     20  H   UNL d   1      23.882 -16.855   0.125  0.00  0.00     0.164 HD
BRANCH  18  21
ATOM     21  C   UNL d   1      20.662 -19.104   0.227  0.00  0.00     0.131 A 
ATOM     22  C   UNL d   1      20.306 -19.813   1.370  0.00  0.00     0.050 A 
ATOM     23  C   UNL d   1      19.184 -20.641   1.359  0.00  0.00     0.005 A 
ATOM     24  C   UNL d   1      18.445 -20.759   0.195  0.00  0.00     0.019 A 
ATOM     25  C   UNL d   1      18.841 -19.998  -0.894  0.00  0.00     0.119 A 
ATOM     26  N   UNL d   1      19.905 -19.143  -0.895  0.00  0.00    -0.243 NA
ENDBRANCH  18  21
ENDBRANCH  14  15
ENDBRANCH   1  14
TORSDOF 5
ENDMDL
MODEL 7
REMARK VINA RESULT:   -29.071      3.389      3.975
REMARK INTER + INTRA:         -32.258
REMARK INTER:                 -30.563
REMARK INTRA:                  -1.696
REMARK CONF_INDEPENDENT:        1.492
REMARK UNBOUND:                -1.696
REMARK  5 active torsions:
REMARK  status: ('A' for Active; 'I' for Inactive)
REMARK       I    between atoms: C_2  and  N_3 
REMARK       I    between atoms: C_2  and  N_16 
REMARK    1  A    between atoms: N_3  and  C_4 
REMARK    2  A    between atoms: C_4  and  C_5 
REMARK    3  A    between atoms: C_5  and  N_6 
REMARK       I    between atoms: N_6  and  C_7 
REMARK       I    between atoms: C_7  and  N_9 
REMARK    4  A    between atoms: N_9  and  C_10 
REMARK    5  A    between atoms: N_16  and  C_17 
ROOT
ATOM      1  C   UNL d   1      25.362 -15.763  -0.323  0.00  0.00     0.144 C 
ENDROOT
BRANCH   1   2
ATOM      2  N   UNL d   1      26.715 -16.305  -0.451  0.00  0.00    -0.341 N 
ATOM      3  C   UNL d   1      27.075 -17.548   0.009  0.00  0.00     0.321 C 
ATOM      4  O   UNL d   1      26.279 -18.288   0.598  0.00  0.00    -0.247 OA
ATOM      5  N   UNL d   1      28.346 -17.982  -0.257  0.00  0.00    -0.293 N 
ATOM      6  H   UNL d   1      28.500 -18.974  -0.135  0.00  0.00     0.172 HD
ATOM      7  H   UNL d   1      27.316 -15.880  -1.143  0.00  0.00     0.164 HD
BRANCH   5   8
ATOM      8  C   UNL d   1      29.406 -17.283  -0.840  0.00  0.00     0.131 A 
ATOM      9  C   UNL d   1      30.494 -17.974  -1.355  0.00  0.00     0.050 A 
ATOM     10  C   UNL d   1      31.606 -17.270  -1.791  0.00  0.00     0.005 A 
ATOM     11  C   UNL d   1      31.585 -15.886  -1.743  0.00  0.00     0.019 A 
ATOM     12  C   UNL d   1      30.430 -15.267  -1.292  0.00  0.00     0.119 A 
ATOM     13  N   UNL d   1      29.328 -15.936  -0.862  0.00  0.00    -0.243 NA
ENDBRANCH   5   8
ENDBRANCH   1   2
BRANCH   1  14
ATOM     14  C   UNL d   1      24.339 -16.445  -1.257  0.00  0.00     0.144 C 
BRANCH  14  15
ATOM     15  N   UNL d   1      23.866 -17.769  -0.828  0.00  0.00    -0.341 N 
ATOM     16  C   UNL d   1      22.512 -18.001  -0.678  0.00  0.00     0.321 C 
ATOM     17  O   UNL d   1      21.698 -17.100  -0.901  0.00  0.00    -0.247 OA
ATOM     18  N   UNL d   1      22.172 -19.280  -0.276  0.00  0.00    -0.293 N 
ATOM     19  H   UNL d   1      22.839 -19.831   0.241  0.00  0.00     0.172 HD
ATOM     20  H   UNL d   1      24.532 -18.505  -0.642  0.00  0.00     0.164 HD
BRANCH  18  21
ATOM     21  C   UNL d   1      20.819 -19.654  -0.066  0.00  0.00     0.131 A 
ATOM     22  C   UNL d   1      20.454 -20.314   1.104  0.00  0.00     0.050 A 
ATOM     23  C   UNL d   1      19.132 -20.711   1.299  0.00  0.00     0.005 A 
ATOM     24  C   UNL d   1      18.198 -20.457   0.311  0.00  0.00     0.019 A 
ATOM     25  C   UNL d   1      18.628 -19.768  -0.813  0.00  0.00     0.119 A 
ATOM     26  N   UNL d   1      19.905 -19.324  -1.008  0.00  0.00    -0.243 NA
ENDBRANCH  18  21
ENDBRANCH  14  15
ENDBRANCH   1  14
TORSDOF 5
ENDMDL
MODEL 8
REMARK VINA RESULT:   -29.063      3.353      9.360
REMARK INTER + INTRA:         -30.999
REMARK INTER:                 -30.554
REMARK INTRA:                  -0.445
REMARK CONF_INDEPENDENT:        1.492
REMARK UNBOUND:                -0.445
REMARK  5 active torsions:
REMARK  status: ('A' for Active; 'I' for Inactive)
REMARK       I    between atoms: C_2  and  N_3 
REMARK       I    between atoms: C_2  and  N_16 
REMARK    1  A    between atoms: N_3  and  C_4 
REMARK    2  A    between atoms: C_4  and  C_5 
REMARK    3  A    between atoms: C_5  and  N_6 
REMARK       I    between atoms: N_6  and  C_7 
REMARK       I    between atoms: C_7  and  N_9 
REMARK    4  A    between atoms: N_9  and  C_10 
REMARK    5  A    between atoms: N_16  and  C_17 
ROOT
ATOM      1  C   UNL d   1      24.938 -18.943  -0.151  0.00  0.00     0.144 C 
ENDROOT
BRANCH   1   2
ATOM      2  N   UNL d   1      23.478 -18.865  -0.215  0.00  0.00    -0.341 N 
ATOM      3  C   UNL d   1      22.805 -17.869  -0.879  0.00  0.00     0.321 C 
ATOM      4  O   UNL d   1      23.394 -16.943  -1.448  0.00  0.00    -0.247 OA
ATOM      5  N   UNL d   1      21.441 -17.960  -0.950  0.00  0.00    -0.293 N 
ATOM      6  H   UNL d   1      21.002 -17.369  -1.644  0.00  0.00     0.172 HD
ATOM      7  H   UNL d   1      22.965 -19.711  -0.015  0.00  0.00     0.164 HD
BRANCH   5   8
ATOM      8  C   UNL d   1      20.591 -18.877  -0.327  0.00  0.00     0.131 A 
ATOM      9  C   UNL d   1      20.860 -19.308   0.964  0.00  0.00     0.050 A 
ATOM     10  C   UNL d   1      20.100 -20.329   1.515  0.00  0.00     0.005 A 
ATOM     11  C   UNL d   1      19.059 -20.865   0.776  0.00  0.00     0.019 A 
ATOM     12  C   UNL d   1      18.802 -20.324  -0.474  0.00  0.00     0.119 A 
ATOM     13  N   UNL d   1      19.531 -19.323  -1.032  0.00  0.00    -0.243 NA
ENDBRANCH   5   8
ENDBRANCH   1   2
BRANCH   1  14
ATOM     14  C   UNL d   1      25.586 -17.717   0.531  0.00  0.00     0.144 C 
BRANCH  14  15
ATOM     15  N   UNL d   1      27.054 -17.721   0.586  0.00  0.00    -0.341 N 
ATOM     16  C   UNL d   1      27.785 -17.291  -0.506  0.00  0.00     0.321 C 
ATOM     17  O   UNL d   1      27.210 -16.908  -1.527  0.00  0.00    -0.247 OA
ATOM     18  N   UNL d   1      29.159 -17.328  -0.350  0.00  0.00    -0.293 N 
ATOM     19  H   UNL d   1      29.566 -17.975   0.309  0.00  0.00     0.172 HD
ATOM     20  H   UNL d   1      27.526 -18.038   1.421  0.00  0.00     0.164 HD
BRANCH  18  21
ATOM     21  C   UNL d   1      30.034 -16.932  -1.395  0.00  0.00     0.131 A 
ATOM     22  C   UNL d   1      31.026 -15.987  -1.151  0.00  0.00     0.050 A 
ATOM     23  C   UNL d   1      31.867 -15.574  -2.182  0.00  0.00     0.005 A 
ATOM     24  C   UNL d   1      31.689 -16.101  -3.450  0.00  0.00     0.019 A 
ATOM     25  C   UNL d   1      30.701 -17.061  -3.611  0.00  0.00     0.119 A 
ATOM     26  N   UNL d   1      29.897 -17.520  -2.607  0.00  0.00    -0.243 NA
ENDBRANCH  18  21
ENDBRANCH  14  15
ENDBRANCH   1  14
TORSDOF 5
ENDMDL
MODEL 9
REMARK VINA RESULT:   -28.933      1.587      1.631
REMARK INTER + INTRA:         -32.108
REMARK INTER:                 -30.425
REMARK INTRA:                  -1.683
REMARK CONF_INDEPENDENT:        1.492
REMARK UNBOUND:                -1.683
REMARK  5 active torsions:
REMARK  status: ('A' for Active; 'I' for Inactive)
REMARK       I    between atoms: C_2  and  N_3 
REMARK       I    between atoms: C_2  and  N_16 
REMARK    1  A    between atoms: N_3  and  C_4 
REMARK    2  A    between atoms: C_4  and  C_5 
REMARK    3  A    between atoms: C_5  and  N_6 
REMARK       I    between atoms: N_6  and  C_7 
REMARK       I    between atoms: C_7  and  N_9 
REMARK    4  A    between atoms: N_9  and  C_10 
REMARK    5  A    between atoms: N_16  and  C_17 
ROOT
ATOM      1  C   UNL d   1      25.670 -16.319  -2.542  0.00  0.00     0.144 C 
ENDROOT
BRANCH   1   2
ATOM      2  N   UNL d   1      25.869 -14.968  -3.066  0.00  0.00    -0.341 N 
ATOM      3  C   UNL d   1      24.834 -14.115  -3.364  0.00  0.00     0.321 C 
ATOM      4  O   UNL d   1      23.650 -14.448  -3.239  0.00  0.00    -0.247 OA
ATOM      5  N   UNL d   1      25.151 -12.842  -3.756  0.00  0.00    -0.293 N 
ATOM      6  H   UNL d   1      24.389 -12.176  -3.723  0.00  0.00     0.172 HD
ATOM      7  H   UNL d   1      26.780 -14.554  -2.932  0.00  0.00     0.164 HD
BRANCH   5   8
ATOM      8  C   UNL d   1      26.408 -12.295  -4.022  0.00  0.00     0.131 A 
ATOM      9  C   UNL d   1      26.559 -11.363  -5.039  0.00  0.00     0.050 A 
ATOM     10  C   UNL d   1      27.831 -10.941  -5.396  0.00  0.00     0.005 A 
ATOM     11  C   UNL d   1      28.921 -11.429  -4.695  0.00  0.00     0.019 A 
ATOM     12  C   UNL d   1      28.682 -12.293  -3.637  0.00  0.00     0.119 A 
ATOM     13  N   UNL d   1      27.445 -12.718  -3.269  0.00  0.00    -0.243 NA
ENDBRANCH   5   8
ENDBRANCH   1   2
BRANCH   1  14
ATOM     14  C   UNL d   1      24.914 -16.348  -1.195  0.00  0.00     0.144 C 
BRANCH  14  15
ATOM     15  N   UNL d   1      23.451 -16.461  -1.286  0.00  0.00    -0.341 N 
ATOM     16  C   UNL d   1      22.813 -17.571  -0.764  0.00  0.00     0.321 C 
ATOM     17  O   UNL d   1      23.466 -18.466  -0.223  0.00  0.00    -0.247 OA
ATOM     18  N   UNL d   1      21.436 -17.578  -0.896  0.00  0.00    -0.293 N 
ATOM     19  H   UNL d   1      21.007 -17.052  -1.642  0.00  0.00     0.172 HD
ATOM     20  H   UNL d   1      22.916 -15.729  -1.732  0.00  0.00     0.164 HD
BRANCH  18  21
ATOM     21  C   UNL d   1      20.653 -18.661  -0.420  0.00  0.00     0.131 A 
ATOM     22  C   UNL d   1      21.025 -19.331   0.741  0.00  0.00     0.050 A 
ATOM     23  C   UNL d   1      20.275 -20.415   1.194  0.00  0.00     0.005 A 
ATOM     24  C   UNL d   1      19.171 -20.823   0.465  0.00  0.00     0.019 A 
ATOM     25  C   UNL d   1      18.842 -20.088  -0.664  0.00  0.00     0.119 A 
ATOM     26  N   UNL d   1      19.531 -18.993  -1.101  0.00  0.00    -0.243 NA
ENDBRANCH  18  21
ENDBRANCH  14  15
ENDBRANCH   1  14
TORSDOF 5
ENDMDL
