MODEL 1
REMARK VINA RESULT:   -30.412      0.000      0.000
REMARK INTER + INTRA:         -33.907
REMARK INTER:                 -32.202
REMARK INTRA:                  -1.705
REMARK CONF_INDEPENDENT:        1.790
REMARK UNBOUND:                -1.705
REMARK  6 active torsions:
REMARK  status: ('A' for Active; 'I' for Inactive)
REMARK    1  A    between atoms: C_2  and  C_3 
REMARK    2  A    between atoms: C_3  and  C_4 
REMARK    3  A    between atoms: C_4  and  N_5 
REMARK    4  A    between atoms: C_4  and  C_9 
REMARK       I    between atoms: N_5  and  C_6 
REMARK       I    between atoms: C_6  and  N_7 
REMARK       I    between atoms: C_9  and  N_11 
REMARK    5  A    between atoms: N_11  and  N_12 
REMARK       I    between atoms: N_12  and  C_13 
REMARK    6  A    between atoms: C_13  and  C_15 
ROOT
ATOM      1  C   UNL d   1      25.184 -17.577  -0.188  0.00  0.00     0.033 A 
ATOM      2  C   UNL d   1      24.679 -18.883  -0.145  0.00  0.00     0.018 A 
ATOM      3  C   UNL d   1      23.316 -19.139  -0.413  0.00  0.00     0.024 A 
ATOM      4  C   UNL d   1      22.435 -18.096  -0.724  0.00  0.00     0.044 A 
ATOM      5  C   UNL d   1      21.025 -18.358  -0.895  0.00  0.00     0.099 C 
ATOM      6  N   UNL d   1      19.896 -18.575  -1.003  0.00  0.00    -0.191 NA
ATOM      7  C   UNL d   1      22.935 -16.797  -0.816  0.00  0.00     0.024 A 
ATOM      8  C   UNL d   1      24.295 -16.539  -0.542  0.00  0.00     0.018 A 
ENDROOT
BRANCH   1   9
ATOM      9  C   UNL d   1      26.589 -17.233   0.258  0.00  0.00     0.270 C 
ATOM     10  N   UNL d   1      26.851 -15.946   0.729  0.00  0.00    -0.263 N 
ATOM     11  H   UNL d   1      26.131 -15.241   0.880  0.00  0.00     0.190 HD
ATOM     12  O   UNL d   1      27.465 -18.093   0.190  0.00  0.00    -0.266 OA
BRANCH  10  13
ATOM     13  N   UNL d   1      28.178 -15.608   1.209  0.00  0.00    -0.265 N 
ATOM     14  C   UNL d   1      28.389 -14.364   1.795  0.00  0.00     0.259 C 
ATOM     15  O   UNL d   1      27.450 -13.565   1.886  0.00  0.00    -0.269 OA
ATOM     16  H   UNL d   1      28.913 -16.292   1.038  0.00  0.00     0.190 HD
BRANCH  14  17
ATOM     17  C   UNL d   1      29.870 -13.976   2.231  0.00  0.00     0.180 C 
BRANCH  17  18
ATOM     18  C   UNL d   1      29.799 -13.475   3.717  0.00  0.00     0.035 C 
BRANCH  18  19
ATOM     19  C   UNL d   1      29.450 -14.552   4.729  0.00  0.00    -0.002 C 
ATOM     20  C   UNL d   1      28.006 -14.825   5.024  0.00  0.00     0.005 C 
ENDBRANCH  18  19
ENDBRANCH  17  18
BRANCH  17  21
ATOM     21  N   UNL d   1      30.847 -15.075   2.035  0.00  0.00    -0.330 N 
ATOM     22  C   UNL d   1      32.127 -15.234   2.476  0.00  0.00     0.314 C 
ATOM     23  N   UNL d   1      32.808 -14.148   2.898  0.00  0.00    -0.352 N 
ATOM     24  O   UNL d   1      32.651 -16.341   2.519  0.00  0.00    -0.248 OA
ATOM     25  H   UNL d   1      32.365 -13.253   2.970  0.00  0.00     0.160 HD
ATOM     26  H   UNL d   1      33.517 -14.324   3.606  0.00  0.00     0.160 HD
ATOM     27  H   UNL d   1      30.470 -15.959   1.713  0.00  0.00     0.165 HD
ENDBRANCH  17  21
ENDBRANCH  14  17
ENDBRANCH  10  13
ENDBRANCH   1   9
TORSDOF 6
ENDMDL
MODEL 2
REMARK VINA RESULT:   -30.095      2.006      3.052
REMARK INTER + INTRA:         -32.940
REMARK INTER:                 -31.884
REMARK INTRA:                  -1.056
REMARK CONF_INDEPENDENT:        1.790
REMARK UNBOUND:                -1.056
REMARK  6 active torsions:
REMARK  status: ('A' for Active; 'I' for Inactive)
REMARK    1  A    between atoms: C_2  and  C_3 
REMARK    2  A    between atoms: C_3  and  C_4 
REMARK    3  A    between atoms: C_4  and  N_5 
REMARK    4  A    between atoms: C_4  and  C_9 
REMARK       I    between atoms: N_5  and  C_6 
REMARK       I    between atoms: C_6  and  N_7 
REMARK       I    between atoms: C_9  and  N_11 
REMARK    5  A    between atoms: N_11  and  N_12 
REMARK       I    between atoms: N_12  and  C_13 
REMARK    6  A    between atoms: C_13  and  C_15 
ROOT
ATOM      1  C   UNL d   1      24.548 -17.361  -0.408  0.00  0.00     0.033 A 
ATOM      2  C   UNL d   1      23.454 -16.503  -0.580  0.00  0.00     0.018 A 
ATOM      3  C   UNL d   1      22.149 -17.021  -0.737  0.00  0.00     0.024 A 
ATOM      4  C   UNL d   1      21.916 -18.402  -0.730  0.00  0.00     0.044 A 
ATOM      5  C   UNL d   1      20.595 -18.920  -0.995  0.00  0.00     0.099 C 
ATOM      6  N   UNL d   1      19.540 -19.325  -1.234  0.00  0.00    -0.191 NA
ATOM      7  C   UNL d   1      22.991 -19.265  -0.513  0.00  0.00     0.024 A 
ATOM      8  C   UNL d   1      24.295 -18.749  -0.362  0.00  0.00     0.018 A 
ENDROOT
BRANCH   1   9
ATOM      9  C   UNL d   1      25.978 -16.865  -0.408  0.00  0.00     0.270 C 
ATOM     10  N   UNL d   1      26.837 -17.284   0.607  0.00  0.00    -0.263 N 
ATOM     11  H   UNL d   1      26.589 -17.982   1.307  0.00  0.00     0.190 HD
ATOM     12  O   UNL d   1      26.345 -16.101  -1.299  0.00  0.00    -0.266 OA
BRANCH  10  13
ATOM     13  N   UNL d   1      28.226 -16.861   0.600  0.00  0.00    -0.265 N 
ATOM     14  C   UNL d   1      28.520 -15.503   0.670  0.00  0.00     0.259 C 
ATOM     15  O   UNL d   1      27.598 -14.681   0.723  0.00  0.00    -0.269 OA
ATOM     16  H   UNL d   1      28.925 -17.593   0.486  0.00  0.00     0.190 HD
BRANCH  14  17
ATOM     17  C   UNL d   1      30.043 -15.054   0.567  0.00  0.00     0.180 C 
BRANCH  17  18
ATOM     18  C   UNL d   1      30.389 -14.933  -0.960  0.00  0.00     0.035 C 
BRANCH  18  19
ATOM     19  C   UNL d   1      29.267 -15.351  -1.894  0.00  0.00    -0.002 C 
ATOM     20  C   UNL d   1      29.293 -16.728  -2.484  0.00  0.00     0.005 C 
ENDBRANCH  18  19
ENDBRANCH  17  18
BRANCH  17  21
ATOM     21  N   UNL d   1      30.343 -13.815   1.328  0.00  0.00    -0.330 N 
ATOM     22  C   UNL d   1      30.905 -13.624   2.555  0.00  0.00     0.314 C 
ATOM     23  N   UNL d   1      30.943 -14.659   3.421  0.00  0.00    -0.352 N 
ATOM     24  O   UNL d   1      31.394 -12.545   2.868  0.00  0.00    -0.248 OA
ATOM     25  H   UNL d   1      30.644 -15.575   3.148  0.00  0.00     0.160 HD
ATOM     26  H   UNL d   1      31.716 -14.648   4.081  0.00  0.00     0.160 HD
ATOM     27  H   UNL d   1      30.345 -12.951   0.798  0.00  0.00     0.165 HD
ENDBRANCH  17  21
ENDBRANCH  14  17
ENDBRANCH  10  13
ENDBRANCH   1   9
TORSDOF 6
ENDMDL
MODEL 3
REMARK VINA RESULT:   -29.813      1.425      1.540
REMARK INTER + INTRA:         -33.382
REMARK INTER:                 -31.603
REMARK INTRA:                  -1.779
REMARK CONF_INDEPENDENT:        1.790
REMARK UNBOUND:                -1.779
REMARK  6 active torsions:
REMARK  status: ('A' for Active; 'I' for Inactive)
REMARK    1  A    between atoms: C_2  and  C_3 
REMARK    2  A    between atoms: C_3  and  C_4 
REMARK    3  A    between atoms: C_4  and  N_5 
REMARK    4  A    between atoms: C_4  and  C_9 
REMARK       I    between atoms: N_5  and  C_6 
REMARK       I    between atoms: C_6  and  N_7 
REMARK       I    between atoms: C_9  and  N_11 
REMARK    5  A    between atoms: N_11  and  N_12 
REMARK       I    between atoms: N_12  and  C_13 
REMARK    6  A    between atoms: C_13  and  C_15 
ROOT
ATOM      1  C   UNL d   1      24.804 -17.245  -0.310  0.00  0.00     0.033 A 
ATOM      2  C   UNL d   1      24.606 -18.630  -0.396  0.00  0.00     0.018 A 
ATOM      3  C   UNL d   1      23.331 -19.158  -0.693  0.00  0.00     0.024 A 
ATOM      4  C   UNL d   1      22.233 -18.316  -0.904  0.00  0.00     0.044 A 
ATOM      5  C   UNL d   1      20.915 -18.871  -1.103  0.00  0.00     0.099 C 
ATOM      6  N   UNL d   1      19.861 -19.325  -1.236  0.00  0.00    -0.191 NA
ATOM      7  C   UNL d   1      22.427 -16.935  -0.866  0.00  0.00     0.024 A 
ATOM      8  C   UNL d   1      23.699 -16.405  -0.565  0.00  0.00     0.018 A 
ENDROOT
BRANCH   1   9
ATOM      9  C   UNL d   1      26.105 -16.638   0.172  0.00  0.00     0.270 C 
ATOM     10  N   UNL d   1      26.154 -15.269   0.432  0.00  0.00    -0.263 N 
ATOM     11  H   UNL d   1      25.340 -14.658   0.405  0.00  0.00     0.190 HD
ATOM     12  O   UNL d   1      27.086 -17.365   0.318  0.00  0.00    -0.266 OA
BRANCH  10  13
ATOM     13  N   UNL d   1      27.376 -14.673   0.942  0.00  0.00    -0.265 N 
ATOM     14  C   UNL d   1      27.312 -13.434   1.571  0.00  0.00     0.259 C 
ATOM     15  O   UNL d   1      26.224 -12.856   1.673  0.00  0.00    -0.269 OA
ATOM     16  H   UNL d   1      28.241 -15.179   0.761  0.00  0.00     0.190 HD
BRANCH  14  17
ATOM     17  C   UNL d   1      28.672 -12.754   2.041  0.00  0.00     0.180 C 
BRANCH  17  18
ATOM     18  C   UNL d   1      28.941 -13.226   3.514  0.00  0.00     0.035 C 
BRANCH  18  19
ATOM     19  C   UNL d   1      27.736 -13.831   4.212  0.00  0.00    -0.002 C 
ATOM     20  C   UNL d   1      27.934 -15.033   5.084  0.00  0.00     0.005 C 
ENDBRANCH  18  19
ENDBRANCH  17  18
BRANCH  17  21
ATOM     21  N   UNL d   1      29.811 -13.027   1.128  0.00  0.00    -0.330 N 
ATOM     22  C   UNL d   1      30.497 -14.173   0.858  0.00  0.00     0.314 C 
ATOM     23  N   UNL d   1      30.412 -15.201   1.728  0.00  0.00    -0.352 N 
ATOM     24  O   UNL d   1      31.160 -14.290  -0.166  0.00  0.00    -0.248 OA
ATOM     25  H   UNL d   1      29.794 -15.165   2.516  0.00  0.00     0.160 HD
ATOM     26  H   UNL d   1      30.522 -16.127   1.323  0.00  0.00     0.160 HD
ATOM     27  H   UNL d   1      29.994 -12.327   0.418  0.00  0.00     0.165 HD
ENDBRANCH  17  21
ENDBRANCH  14  17
ENDBRANCH  10  13
ENDBRANCH   1   9
TORSDOF 6
ENDMDL
MODEL 4
REMARK VINA RESULT:   -29.739      1.509      1.941
REMARK INTER + INTRA:         -33.282
REMARK INTER:                 -31.529
REMARK INTRA:                  -1.754
REMARK CONF_INDEPENDENT:        1.790
REMARK UNBOUND:                -1.754
REMARK  6 active torsions:
REMARK  status: ('A' for Active; 'I' for Inactive)
REMARK    1  A    between atoms: C_2  and  C_3 
REMARK    2  A    between atoms: C_3  and  C_4 
REMARK    3  A    between atoms: C_4  and  N_5 
REMARK    4  A    between atoms: C_4  and  C_9 
REMARK       I    between atoms: N_5  and  C_6 
REMARK       I    between atoms: C_6  and  N_7 
REMARK       I    between atoms: C_9  and  N_11 
REMARK    5  A    between atoms: N_11  and  N_12 
REMARK       I    between atoms: N_12  and  C_13 
REMARK    6  A    between atoms: C_13  and  C_15 
ROOT
ATOM      1  C   UNL d   1      24.627 -17.561  -0.307  0.00  0.00     0.033 A 
ATOM      2  C   UNL d   1      23.578 -16.661  -0.537  0.00  0.00     0.018 A 
ATOM      3  C   UNL d   1      22.258 -17.125  -0.730  0.00  0.00     0.024 A 
ATOM      4  C   UNL d   1      21.964 -18.494  -0.701  0.00  0.00     0.044 A 
ATOM      5  C   UNL d   1      20.632 -18.961  -1.001  0.00  0.00     0.099 C 
ATOM      6  N   UNL d   1      19.569 -19.325  -1.270  0.00  0.00    -0.191 NA
ATOM      7  C   UNL d   1      22.992 -19.397  -0.427  0.00  0.00     0.024 A 
ATOM      8  C   UNL d   1      24.312 -18.934  -0.239  0.00  0.00     0.018 A 
ENDROOT
BRANCH   1   9
ATOM      9  C   UNL d   1      26.076 -17.127  -0.267  0.00  0.00     0.270 C 
ATOM     10  N   UNL d   1      26.388 -15.865   0.239  0.00  0.00    -0.263 N 
ATOM     11  H   UNL d   1      25.707 -15.244   0.673  0.00  0.00     0.190 HD
ATOM     12  O   UNL d   1      26.942 -17.893  -0.685  0.00  0.00    -0.266 OA
BRANCH  10  13
ATOM     13  N   UNL d   1      27.775 -15.446   0.334  0.00  0.00    -0.265 N 
ATOM     14  C   UNL d   1      28.085 -14.287   1.039  0.00  0.00     0.259 C 
ATOM     15  O   UNL d   1      27.178 -13.629   1.559  0.00  0.00    -0.269 OA
ATOM     16  H   UNL d   1      28.456 -16.004  -0.177  0.00  0.00     0.190 HD
BRANCH  14  17
ATOM     17  C   UNL d   1      29.598 -13.794   1.053  0.00  0.00     0.180 C 
BRANCH  17  18
ATOM     18  C   UNL d   1      30.161 -14.067   2.493  0.00  0.00     0.035 C 
BRANCH  18  19
ATOM     19  C   UNL d   1      29.141 -13.911   3.608  0.00  0.00    -0.002 C 
ATOM     20  C   UNL d   1      29.222 -14.824   4.794  0.00  0.00     0.005 C 
ENDBRANCH  18  19
ENDBRANCH  17  18
BRANCH  17  21
ATOM     21  N   UNL d   1      30.425 -14.405  -0.017  0.00  0.00    -0.330 N 
ATOM     22  C   UNL d   1      30.809 -15.694  -0.237  0.00  0.00     0.314 C 
ATOM     23  N   UNL d   1      30.740 -16.574   0.784  0.00  0.00    -0.352 N 
ATOM     24  O   UNL d   1      31.184 -16.065  -1.342  0.00  0.00    -0.248 OA
ATOM     25  H   UNL d   1      30.338 -16.318   1.665  0.00  0.00     0.160 HD
ATOM     26  H   UNL d   1      30.583 -17.543   0.516  0.00  0.00     0.160 HD
ATOM     27  H   UNL d   1      30.564 -13.845  -0.851  0.00  0.00     0.165 HD
ENDBRANCH  17  21
ENDBRANCH  14  17
ENDBRANCH  10  13
ENDBRANCH   1   9
TORSDOF 6
ENDMDL
MODEL 5
REMARK VINA RESULT:   -29.301      4.482      5.682
REMARK INTER + INTRA:         -33.411
REMARK INTER:                 -31.091
REMARK INTRA:                  -2.320
REMARK CONF_INDEPENDENT:        1.790
REMARK UNBOUND:                -2.320
REMARK  6 active torsions:
REMARK  status: ('A' for Active; 'I' for Inactive)
REMARK    1  A    between atoms: C_2  and  C_3 
REMARK    2  A    between atoms: C_3  and  C_4 
REMARK    3  A    between atoms: C_4  and  N_5 
REMARK    4  A    between atoms: C_4  and  C_9 
REMARK       I    between atoms: N_5  and  C_6 
REMARK       I    between atoms: C_6  and  N_7 
REMARK       I    between atoms: C_9  and  N_11 
REMARK    5  A    between atoms: N_11  and  N_12 
REMARK       I    between atoms: N_12  and  C_13 
REMARK    6  A    between atoms: C_13  and  C_15 
ROOT
ATOM      1  C   UNL d   1      24.545 -17.148  -0.899  0.00  0.00     0.033 A 
ATOM      2  C   UNL d   1      23.402 -16.338  -0.939  0.00  0.00     0.018 A 
ATOM      3  C   UNL d   1      22.111 -16.909  -0.894  0.00  0.00     0.024 A 
ATOM      4  C   UNL d   1      21.940 -18.296  -0.813  0.00  0.00     0.044 A 
ATOM      5  C   UNL d   1      20.617 -18.873  -0.873  0.00  0.00     0.099 C 
ATOM      6  N   UNL d   1      19.557 -19.325  -0.948  0.00  0.00    -0.191 NA
ATOM      7  C   UNL d   1      23.070 -19.110  -0.726  0.00  0.00     0.024 A 
ATOM      8  C   UNL d   1      24.360 -18.541  -0.776  0.00  0.00     0.018 A 
ENDROOT
BRANCH   1   9
ATOM      9  C   UNL d   1      25.939 -16.598  -1.116  0.00  0.00     0.270 C 
ATOM     10  N   UNL d   1      26.327 -16.236  -2.406  0.00  0.00    -0.263 N 
ATOM     11  H   UNL d   1      25.696 -16.231  -3.207  0.00  0.00     0.190 HD
ATOM     12  O   UNL d   1      26.696 -16.490  -0.154  0.00  0.00    -0.266 OA
BRANCH  10  13
ATOM     13  N   UNL d   1      27.640 -15.661  -2.632  0.00  0.00    -0.265 N 
ATOM     14  C   UNL d   1      28.028 -15.350  -3.931  0.00  0.00     0.259 C 
ATOM     15  O   UNL d   1      27.257 -15.579  -4.870  0.00  0.00    -0.269 OA
ATOM     16  H   UNL d   1      28.242 -15.564  -1.817  0.00  0.00     0.190 HD
BRANCH  14  17
ATOM     17  C   UNL d   1      29.505 -14.807  -4.169  0.00  0.00     0.180 C 
BRANCH  17  18
ATOM     18  C   UNL d   1      30.257 -14.892  -2.794  0.00  0.00     0.035 C 
BRANCH  18  19
ATOM     19  C   UNL d   1      30.956 -16.217  -2.540  0.00  0.00    -0.002 C 
ATOM     20  C   UNL d   1      30.122 -17.444  -2.330  0.00  0.00     0.005 C 
ENDBRANCH  18  19
ENDBRANCH  17  18
BRANCH  17  21
ATOM     21  N   UNL d   1      30.219 -15.508  -5.265  0.00  0.00    -0.330 N 
ATOM     22  C   UNL d   1      30.053 -15.475  -6.618  0.00  0.00     0.314 C 
ATOM     23  N   UNL d   1      28.889 -15.007  -7.117  0.00  0.00    -0.352 N 
ATOM     24  O   UNL d   1      30.945 -15.835  -7.376  0.00  0.00    -0.248 OA
ATOM     25  H   UNL d   1      28.190 -14.611  -6.520  0.00  0.00     0.160 HD
ATOM     26  H   UNL d   1      28.951 -14.575  -8.036  0.00  0.00     0.160 HD
ATOM     27  H   UNL d   1      31.116 -15.917  -5.027  0.00  0.00     0.165 HD
ENDBRANCH  17  21
ENDBRANCH  14  17
ENDBRANCH  10  13
ENDBRANCH   1   9
TORSDOF 6
ENDMDL
MODEL 6
REMARK VINA RESULT:   -29.046      1.666      2.223
REMARK INTER + INTRA:         -32.962
REMARK INTER:                 -30.835
REMARK INTRA:                  -2.127
REMARK CONF_INDEPENDENT:        1.790
REMARK UNBOUND:                -2.127
REMARK  6 active torsions:
REMARK  status: ('A' for Active; 'I' for Inactive)
REMARK    1  A    between atoms: C_2  and  C_3 
REMARK    2  A    between atoms: C_3  and  C_4 
REMARK    3  A    between atoms: C_4  and  N_5 
REMARK    4  A    between atoms: C_4  and  C_9 
REMARK       I    between atoms: N_5  and  C_6 
REMARK       I    between atoms: C_6  and  N_7 
REMARK       I    between atoms: C_9  and  N_11 
REMARK    5  A    between atoms: N_11  and  N_12 
REMARK       I    between atoms: N_12  and  C_13 
REMARK    6  A    between atoms: C_13  and  C_15 
ROOT
ATOM      1  C   UNL d   1      25.187 -17.596  -0.167  0.00  0.00     0.033 A 
ATOM      2  C   UNL d   1      24.681 -18.902  -0.149  0.00  0.00     0.018 A 
ATOM      3  C   UNL d   1      23.318 -19.152  -0.425  0.00  0.00     0.024 A 
ATOM      4  C   UNL d   1      22.439 -18.103  -0.717  0.00  0.00     0.044 A 
ATOM      5  C   UNL d   1      21.029 -18.361  -0.895  0.00  0.00     0.099 C 
ATOM      6  N   UNL d   1      19.899 -18.575  -1.009  0.00  0.00    -0.191 NA
ATOM      7  C   UNL d   1      22.940 -16.802  -0.784  0.00  0.00     0.024 A 
ATOM      8  C   UNL d   1      24.299 -16.551  -0.503  0.00  0.00     0.018 A 
ENDROOT
BRANCH   1   9
ATOM      9  C   UNL d   1      26.591 -17.261   0.288  0.00  0.00     0.270 C 
ATOM     10  N   UNL d   1      26.846 -15.994   0.813  0.00  0.00    -0.263 N 
ATOM     11  H   UNL d   1      26.122 -15.301   0.997  0.00  0.00     0.190 HD
ATOM     12  O   UNL d   1      27.473 -18.111   0.179  0.00  0.00    -0.266 OA
BRANCH  10  13
ATOM     13  N   UNL d   1      28.174 -15.668   1.302  0.00  0.00    -0.265 N 
ATOM     14  C   UNL d   1      28.341 -14.544   2.104  0.00  0.00     0.259 C 
ATOM     15  O   UNL d   1      27.364 -13.837   2.376  0.00  0.00    -0.269 OA
ATOM     16  H   UNL d   1      28.937 -16.260   0.979  0.00  0.00     0.190 HD
BRANCH  14  17
ATOM     17  C   UNL d   1      29.816 -14.149   2.553  0.00  0.00     0.180 C 
BRANCH  17  18
ATOM     18  C   UNL d   1      30.087 -12.695   2.029  0.00  0.00     0.035 C 
BRANCH  18  19
ATOM     19  C   UNL d   1      29.637 -11.592   2.971  0.00  0.00    -0.002 C 
ATOM     20  C   UNL d   1      28.204 -11.155   2.940  0.00  0.00     0.005 C 
ENDBRANCH  18  19
ENDBRANCH  17  18
BRANCH  17  21
ATOM     21  N   UNL d   1      30.043 -14.291   4.014  0.00  0.00    -0.330 N 
ATOM     22  C   UNL d   1      29.175 -14.308   5.064  0.00  0.00     0.314 C 
ATOM     23  N   UNL d   1      27.931 -13.817   4.886  0.00  0.00    -0.352 N 
ATOM     24  O   UNL d   1      29.498 -14.783   6.147  0.00  0.00    -0.248 OA
ATOM     25  H   UNL d   1      27.613 -13.522   3.984  0.00  0.00     0.160 HD
ATOM     26  H   UNL d   1      27.209 -14.233   5.471  0.00  0.00     0.160 HD
ATOM     27  H   UNL d   1      30.949 -14.650   4.294  0.00  0.00     0.165 HD
ENDBRANCH  17  21
ENDBRANCH  14  17
ENDBRANCH  10  13
ENDBRANCH   1   9
TORSDOF 6
ENDMDL
MODEL 7
REMARK VINA RESULT:   -28.958      4.867      6.317
REMARK INTER + INTRA:         -33.032
REMARK INTER:                 -30.748
REMARK INTRA:                  -2.284
REMARK CONF_INDEPENDENT:        1.790
REMARK UNBOUND:                -2.284
REMARK  6 active torsions:
REMARK  status: ('A' for Active; 'I' for Inactive)
REMARK    1  A    between atoms: C_2  and  C_3 
REMARK    2  A    between atoms: C_3  and  C_4 
REMARK    3  A    between atoms: C_4  and  N_5 
REMARK    4  A    between atoms: C_4  and  C_9 
REMARK       I    between atoms: N_5  and  C_6 
REMARK       I    between atoms: C_6  and  N_7 
REMARK       I    between atoms: C_9  and  N_11 
REMARK    5  A    between atoms: N_11  and  N_12 
REMARK       I    between atoms: N_12  and  C_13 
REMARK    6  A    between atoms: C_13  and  C_15 
ROOT
ATOM      1  C   UNL d   1      24.550 -16.862  -0.981  0.00  0.00     0.033 A 
ATOM      2  C   UNL d   1      23.362 -16.120  -0.953  0.00  0.00     0.018 A 
ATOM      3  C   UNL d   1      22.108 -16.768  -0.895  0.00  0.00     0.024 A 
ATOM      4  C   UNL d   1      22.019 -18.165  -0.869  0.00  0.00     0.044 A 
ATOM      5  C   UNL d   1      20.731 -18.815  -0.915  0.00  0.00     0.099 C 
ATOM      6  N   UNL d   1      19.696 -19.325  -0.978  0.00  0.00    -0.191 NA
ATOM      7  C   UNL d   1      23.196 -18.914  -0.850  0.00  0.00     0.024 A 
ATOM      8  C   UNL d   1      24.449 -18.268  -0.913  0.00  0.00     0.018 A 
ENDROOT
BRANCH   1   9
ATOM      9  C   UNL d   1      25.902 -16.223  -1.216  0.00  0.00     0.270 C 
ATOM     10  N   UNL d   1      26.331 -16.015  -2.526  0.00  0.00    -0.263 N 
ATOM     11  H   UNL d   1      25.749 -16.183  -3.346  0.00  0.00     0.190 HD
ATOM     12  O   UNL d   1      26.591 -15.909  -0.247  0.00  0.00    -0.266 OA
BRANCH  10  13
ATOM     13  N   UNL d   1      27.602 -15.359  -2.776  0.00  0.00    -0.265 N 
ATOM     14  C   UNL d   1      28.018 -15.169  -4.090  0.00  0.00     0.259 C 
ATOM     15  O   UNL d   1      27.309 -15.571  -5.019  0.00  0.00    -0.269 OA
ATOM     16  H   UNL d   1      28.159 -15.117  -1.959  0.00  0.00     0.190 HD
BRANCH  14  17
ATOM     17  C   UNL d   1      29.454 -14.532  -4.343  0.00  0.00     0.180 C 
BRANCH  17  18
ATOM     18  C   UNL d   1      30.457 -15.721  -4.557  0.00  0.00     0.035 C 
BRANCH  18  19
ATOM     19  C   UNL d   1      29.909 -17.084  -4.171  0.00  0.00    -0.002 C 
ATOM     20  C   UNL d   1      30.161 -18.248  -5.082  0.00  0.00     0.005 C 
ENDBRANCH  18  19
ENDBRANCH  17  18
BRANCH  17  21
ATOM     21  N   UNL d   1      29.474 -13.550  -5.455  0.00  0.00    -0.330 N 
ATOM     22  C   UNL d   1      28.998 -13.620  -6.730  0.00  0.00     0.314 C 
ATOM     23  N   UNL d   1      28.732 -14.834  -7.257  0.00  0.00    -0.352 N 
ATOM     24  O   UNL d   1      28.787 -12.607  -7.386  0.00  0.00    -0.248 OA
ATOM     25  H   UNL d   1      28.797 -15.666  -6.704  0.00  0.00     0.160 HD
ATOM     26  H   UNL d   1      27.996 -14.853  -7.960  0.00  0.00     0.160 HD
ATOM     27  H   UNL d   1      29.669 -12.588  -5.200  0.00  0.00     0.165 HD
ENDBRANCH  17  21
ENDBRANCH  14  17
ENDBRANCH  10  13
ENDBRANCH   1   9
TORSDOF 6
ENDMDL
MODEL 8
REMARK VINA RESULT:   -28.951      3.309      4.513
REMARK INTER + INTRA:         -32.741
REMARK INTER:                 -30.741
REMARK INTRA:                  -2.000
REMARK CONF_INDEPENDENT:        1.790
REMARK UNBOUND:                -2.000
REMARK  6 active torsions:
REMARK  status: ('A' for Active; 'I' for Inactive)
REMARK    1  A    between atoms: C_2  and  C_3 
REMARK    2  A    between atoms: C_3  and  C_4 
REMARK    3  A    between atoms: C_4  and  N_5 
REMARK    4  A    between atoms: C_4  and  C_9 
REMARK       I    between atoms: N_5  and  C_6 
REMARK       I    between atoms: C_6  and  N_7 
REMARK       I    between atoms: C_9  and  N_11 
REMARK    5  A    between atoms: N_11  and  N_12 
REMARK       I    between atoms: N_12  and  C_13 
REMARK    6  A    between atoms: C_13  and  C_15 
ROOT
ATOM      1  C   UNL d   1      24.600 -17.473  -0.310  0.00  0.00     0.033 A 
ATOM      2  C   UNL d   1      23.535 -16.592  -0.543  0.00  0.00     0.018 A 
ATOM      3  C   UNL d   1      22.220 -17.078  -0.714  0.00  0.00     0.024 A 
ATOM      4  C   UNL d   1      21.947 -18.450  -0.660  0.00  0.00     0.044 A 
ATOM      5  C   UNL d   1      20.618 -18.941  -0.938  0.00  0.00     0.099 C 
ATOM      6  N   UNL d   1      19.558 -19.325  -1.189  0.00  0.00    -0.191 NA
ATOM      7  C   UNL d   1      22.991 -19.334  -0.382  0.00  0.00     0.024 A 
ATOM      8  C   UNL d   1      24.305 -18.850  -0.217  0.00  0.00     0.018 A 
ENDROOT
BRANCH   1   9
ATOM      9  C   UNL d   1      26.043 -17.017  -0.293  0.00  0.00     0.270 C 
ATOM     10  N   UNL d   1      27.049 -17.970  -0.132  0.00  0.00    -0.263 N 
ATOM     11  H   UNL d   1      26.880 -18.975  -0.117  0.00  0.00     0.190 HD
ATOM     12  O   UNL d   1      26.294 -15.820  -0.415  0.00  0.00    -0.266 OA
BRANCH  10  13
ATOM     13  N   UNL d   1      28.442 -17.564  -0.163  0.00  0.00    -0.265 N 
ATOM     14  C   UNL d   1      28.947 -16.965  -1.312  0.00  0.00     0.259 C 
ATOM     15  O   UNL d   1      28.208 -16.801  -2.289  0.00  0.00    -0.269 OA
ATOM     16  H   UNL d   1      29.002 -17.794   0.656  0.00  0.00     0.190 HD
BRANCH  14  17
ATOM     17  C   UNL d   1      30.498 -16.611  -1.361  0.00  0.00     0.180 C 
BRANCH  17  18
ATOM     18  C   UNL d   1      31.142 -17.506  -2.478  0.00  0.00     0.035 C 
BRANCH  18  19
ATOM     19  C   UNL d   1      31.126 -16.891  -3.866  0.00  0.00    -0.002 C 
ATOM     20  C   UNL d   1      30.030 -17.276  -4.814  0.00  0.00     0.005 C 
ENDBRANCH  18  19
ENDBRANCH  17  18
BRANCH  17  21
ATOM     21  N   UNL d   1      30.765 -15.163  -1.553  0.00  0.00    -0.330 N 
ATOM     22  C   UNL d   1      30.040 -14.060  -1.214  0.00  0.00     0.314 C 
ATOM     23  N   UNL d   1      28.726 -14.204  -0.942  0.00  0.00    -0.352 N 
ATOM     24  O   UNL d   1      30.566 -12.956  -1.129  0.00  0.00    -0.248 OA
ATOM     25  H   UNL d   1      28.300 -15.110  -0.903  0.00  0.00     0.160 HD
ATOM     26  H   UNL d   1      28.339 -13.529  -0.287  0.00  0.00     0.160 HD
ATOM     27  H   UNL d   1      31.722 -14.909  -1.769  0.00  0.00     0.165 HD
ENDBRANCH  17  21
ENDBRANCH  14  17
ENDBRANCH  10  13
ENDBRANCH   1   9
TORSDOF 6
ENDMDL
MODEL 9
REMARK VINA RESULT:   -28.762      1.810      2.694
REMARK INTER + INTRA:         -32.793
REMARK INTER:                 -30.552
REMARK INTRA:                  -2.242
REMARK CONF_INDEPENDENT:        1.790
REMARK UNBOUND:                -2.242
REMARK  6 active torsions:
REMARK  status: ('A' for Active; 'I' for Inactive)
REMARK    1  A    between atoms: C_2  and  C_3 
REMARK    2  A    between atoms: C_3  and  C_4 
REMARK    3  A    between atoms: C_4  and  N_5 
REMARK    4  A    between atoms: C_4  and  C_9 
REMARK       I    between atoms: N_5  and  C_6 
REMARK       I    between atoms: C_6  and  N_7 
REMARK       I    between atoms: C_9  and  N_11 
REMARK    5  A    between atoms: N_11  and  N_12 
REMARK       I    between atoms: N_12  and  C_13 
REMARK    6  A    between atoms: C_13  and  C_15 
ROOT
ATOM      1  C   UNL d   1      24.845 -17.124  -0.674  0.00  0.00     0.033 A 
ATOM      2  C   UNL d   1      23.710 -16.323  -0.858  0.00  0.00     0.018 A 
ATOM      3  C   UNL d   1      22.420 -16.898  -0.893  0.00  0.00     0.024 A 
ATOM      4  C   UNL d   1      22.242 -18.279  -0.749  0.00  0.00     0.044 A 
ATOM      5  C   UNL d   1      20.930 -18.864  -0.890  0.00  0.00     0.099 C 
ATOM      6  N   UNL d   1      19.880 -19.324  -1.031  0.00  0.00    -0.191 NA
ATOM      7  C   UNL d   1      23.360 -19.081  -0.519  0.00  0.00     0.024 A 
ATOM      8  C   UNL d   1      24.650 -18.509  -0.489  0.00  0.00     0.018 A 
ENDROOT
BRANCH   1   9
ATOM      9  C   UNL d   1      26.252 -16.581  -0.801  0.00  0.00     0.270 C 
ATOM     10  N   UNL d   1      26.830 -15.942   0.296  0.00  0.00    -0.263 N 
ATOM     11  H   UNL d   1      26.397 -15.897   1.218  0.00  0.00     0.190 HD
ATOM     12  O   UNL d   1      26.849 -16.711  -1.868  0.00  0.00    -0.266 OA
BRANCH  10  13
ATOM     13  N   UNL d   1      28.196 -15.458   0.214  0.00  0.00    -0.265 N 
ATOM     14  C   UNL d   1      28.785 -14.901   1.345  0.00  0.00     0.259 C 
ATOM     15  O   UNL d   1      28.134 -14.815   2.393  0.00  0.00    -0.269 OA
ATOM     16  H   UNL d   1      28.642 -15.502  -0.700  0.00  0.00     0.190 HD
BRANCH  14  17
ATOM     17  C   UNL d   1      30.249 -14.291   1.212  0.00  0.00     0.180 C 
BRANCH  17  18
ATOM     18  C   UNL d   1      30.386 -13.730  -0.248  0.00  0.00     0.035 C 
BRANCH  18  19
ATOM     19  C   UNL d   1      30.204 -12.226  -0.364  0.00  0.00    -0.002 C 
ATOM     20  C   UNL d   1      28.906 -11.620   0.076  0.00  0.00     0.005 C 
ENDBRANCH  18  19
ENDBRANCH  17  18
BRANCH  17  21
ATOM     21  N   UNL d   1      30.562 -13.281   2.253  0.00  0.00    -0.330 N 
ATOM     22  C   UNL d   1      30.737 -13.397   3.600  0.00  0.00     0.314 C 
ATOM     23  N   UNL d   1      30.269 -14.499   4.222  0.00  0.00    -0.352 N 
ATOM     24  O   UNL d   1      31.330 -12.537   4.239  0.00  0.00    -0.248 OA
ATOM     25  H   UNL d   1      29.876 -15.261   3.704  0.00  0.00     0.160 HD
ATOM     26  H   UNL d   1      30.777 -14.778   5.058  0.00  0.00     0.160 HD
ATOM     27  H   UNL d   1      30.922 -12.393   1.922  0.00  0.00     0.165 HD
ENDBRANCH  17  21
ENDBRANCH  14  17
ENDBRANCH  10  13
ENDBRANCH   1   9
TORSDOF 6
ENDMDL
