MODEL 1
REMARK VINA RESULT:    -8.779      0.000      0.000
REMARK INTER + INTRA:         -14.318
REMARK INTER:                 -11.464
REMARK INTRA:                  -2.854
REMARK CONF_INDEPENDENT:        2.685
REMARK UNBOUND:                -2.854
REMARK  9 active torsions:
REMARK  status: ('A' for Active; 'I' for Inactive)
REMARK    1  A    between atoms: C_2  and  O_5 
REMARK    2  A    between atoms: O_5  and  C_6 
REMARK       I    between atoms: C_6  and  N_8 
REMARK    3  A    between atoms: N_8  and  C_9 
REMARK    4  A    between atoms: C_9  and  C_10 
REMARK    5  A    between atoms: C_20  and  C_9 
REMARK    6  A    between atoms: C_10  and  C_11 
REMARK    7  A    between atoms: C_23  and  S_24 
REMARK    8  A    between atoms: S_24  and  C_25 
REMARK    9  A    between atoms: C_25  and  C_26 
ROOT
ATOM      1  C   UNL d   1      28.351 -15.367   0.554  0.00  0.00     0.135 C 
ENDROOT
BRANCH   1   2
ATOM      2  N   UNL d   1      28.141 -14.864   2.038  0.00  0.00    -0.328 N 
ATOM      3  C   UNL d   1      27.395 -13.773   2.441  0.00  0.00     0.361 C 
ATOM      4  O   UNL d   1      26.920 -12.996   1.628  0.00  0.00    -0.238 OA
ATOM      5  H   UNL d   1      28.764 -15.243   2.742  0.00  0.00     0.165 HD
BRANCH   3   6
ATOM      6  O   UNL d   1      27.134 -13.464   3.732  0.00  0.00    -0.294 OA
BRANCH   6   7
ATOM      7  C   UNL d   1      28.308 -13.739   4.641  0.00  0.00     0.061 C 
ATOM      8  C   UNL d   1      28.201 -15.200   5.029  0.00  0.00     0.046 C 
ATOM      9  C   UNL d   1      28.210 -12.914   5.941  0.00  0.00     0.046 C 
ATOM     10  C   UNL d   1      29.752 -13.543   4.043  0.00  0.00     0.046 C 
ENDBRANCH   6   7
ENDBRANCH   3   6
ENDBRANCH   1   2
BRANCH   1  11
ATOM     11  C   UNL d   1      27.510 -16.673   0.299  0.00  0.00     0.066 C 
BRANCH  11  12
ATOM     12  C   UNL d   1      26.205 -16.503  -0.519  0.00  0.00    -0.048 A 
ATOM     13  C   UNL d   1      25.064 -17.254  -0.542  0.00  0.00    -0.006 A 
ATOM     14  C   UNL d   1      24.600 -18.346   0.260  0.00  0.00     0.014 C 
ATOM     15  C   UNL d   1      24.030 -16.488  -1.214  0.00  0.00     0.038 A 
ATOM     16  C   UNL d   1      23.425 -18.950   0.224  0.00  0.00     0.001 C 
ATOM     17  C   UNL d   1      22.414 -18.263  -0.521  0.00  0.00     0.002 C 
ATOM     18  C   UNL d   1      22.650 -17.093  -1.172  0.00  0.00     0.030 C 
ATOM     19  N   UNL d   1      24.515 -15.380  -1.640  0.00  0.00    -0.385 N 
ATOM     20  C   UNL d   1      25.953 -15.222  -1.244  0.00  0.00     0.155 A 
ATOM     21  H   UNL d   1      23.966 -14.676  -2.120  0.00  0.00     0.160 HD
ENDBRANCH  11  12
ENDBRANCH   1  11
BRANCH   1  22
ATOM     22  C   UNL d   1      29.911 -15.593   0.002  0.00  0.00     0.233 C 
ATOM     23  N   UNL d   1      30.436 -16.988   0.084  0.00  0.00    -0.228 NA
ATOM     24  N   UNL d   1      30.574 -17.490  -1.220  0.00  0.00    -0.222 NA
ATOM     25  H   UNL d   1      29.826 -17.622   0.583  0.00  0.00     0.143 HD
ATOM     26  C   UNL d   1      30.362 -16.339  -2.059  0.00  0.00     0.275 C 
ATOM     27  H   UNL d   1      29.879 -18.205  -1.432  0.00  0.00     0.144 HD
ATOM     28  O   UNL d   1      30.351 -15.161  -1.268  0.00  0.00    -0.338 OA
BRANCH  26  29
ATOM     29  S   UNL d   1      28.740 -16.230  -2.679  0.00  0.00    -0.116 SA
BRANCH  29  30
ATOM     30  C   UNL d   1      28.659 -15.016  -3.931  0.00  0.00     0.120 C 
BRANCH  30  31
ATOM     31  C   UNL d   1      27.600 -13.994  -3.546  0.00  0.00    -0.005 C 
ATOM     32  C   UNL d   1      27.737 -12.872  -2.665  0.00  0.00     0.042 C 
ATOM     33 CL   UNL d   1      29.053 -12.384  -1.617  0.00  0.00    -0.084 Cl
ATOM     34  C   UNL d   1      26.745 -11.907  -2.587  0.00  0.00     0.024 C 
ATOM     35  C   UNL d   1      25.698 -11.923  -3.477  0.00  0.00     0.003 C 
ATOM     36  C   UNL d   1      25.443 -13.077  -4.201  0.00  0.00     0.024 C 
ATOM     37  C   UNL d   1      26.359 -14.128  -4.197  0.00  0.00     0.042 C 
ATOM     38 CL   UNL d   1      25.905 -15.575  -5.033  0.00  0.00    -0.084 Cl
ENDBRANCH  30  31
ENDBRANCH  29  30
ENDBRANCH  26  29
ENDBRANCH   1  22
TORSDOF 9
ENDMDL
MODEL 2
REMARK VINA RESULT:    -8.514      3.698      6.101
REMARK INTER + INTRA:         -15.152
REMARK INTER:                 -11.198
REMARK INTRA:                  -3.954
REMARK CONF_INDEPENDENT:        2.685
REMARK UNBOUND:                -3.954
REMARK  9 active torsions:
REMARK  status: ('A' for Active; 'I' for Inactive)
REMARK    1  A    between atoms: C_2  and  O_5 
REMARK    2  A    between atoms: O_5  and  C_6 
REMARK       I    between atoms: C_6  and  N_8 
REMARK    3  A    between atoms: N_8  and  C_9 
REMARK    4  A    between atoms: C_9  and  C_10 
REMARK    5  A    between atoms: C_20  and  C_9 
REMARK    6  A    between atoms: C_10  and  C_11 
REMARK    7  A    between atoms: C_23  and  S_24 
REMARK    8  A    between atoms: S_24  and  C_25 
REMARK    9  A    between atoms: C_25  and  C_26 
ROOT
ATOM      1  C   UNL d   1      25.715 -14.197  -2.403  0.00  0.00     0.135 C 
ENDROOT
BRANCH   1   2
ATOM      2  N   UNL d   1      26.166 -12.727  -2.771  0.00  0.00    -0.328 N 
ATOM      3  C   UNL d   1      25.905 -12.056  -3.950  0.00  0.00     0.361 C 
ATOM      4  O   UNL d   1      25.388 -12.623  -4.900  0.00  0.00    -0.238 OA
ATOM      5  H   UNL d   1      26.878 -12.308  -2.185  0.00  0.00     0.165 HD
BRANCH   3   6
ATOM      6  O   UNL d   1      26.195 -10.752  -4.164  0.00  0.00    -0.294 OA
BRANCH   6   7
ATOM      7  C   UNL d   1      26.699 -10.493  -5.563  0.00  0.00     0.061 C 
ATOM      8  C   UNL d   1      27.497  -9.206  -5.487  0.00  0.00     0.046 C 
ATOM      9  C   UNL d   1      25.531 -10.247  -6.539  0.00  0.00     0.046 C 
ATOM     10  C   UNL d   1      27.655 -11.571  -6.202  0.00  0.00     0.046 C 
ENDBRANCH   6   7
ENDBRANCH   3   6
ENDBRANCH   1   2
BRANCH   1  11
ATOM     11  C   UNL d   1      26.300 -14.610  -1.001  0.00  0.00     0.066 C 
BRANCH  11  12
ATOM     12  C   UNL d   1      25.930 -16.025  -0.490  0.00  0.00    -0.048 A 
ATOM     13  C   UNL d   1      24.721 -16.657  -0.415  0.00  0.00    -0.006 A 
ATOM     14  C   UNL d   1      23.416 -16.325  -0.903  0.00  0.00     0.014 C 
ATOM     15  C   UNL d   1      24.961 -18.069  -0.183  0.00  0.00     0.038 A 
ATOM     16  C   UNL d   1      22.316 -17.055  -0.866  0.00  0.00     0.001 C 
ATOM     17  C   UNL d   1      22.515 -18.434  -0.537  0.00  0.00     0.002 C 
ATOM     18  C   UNL d   1      23.740 -18.951  -0.251  0.00  0.00     0.030 C 
ATOM     19  N   UNL d   1      26.219 -18.283  -0.049  0.00  0.00    -0.385 N 
ATOM     20  C   UNL d   1      27.012 -17.025  -0.245  0.00  0.00     0.155 A 
ATOM     21  H   UNL d   1      26.619 -19.202   0.097  0.00  0.00     0.160 HD
ENDBRANCH  11  12
ENDBRANCH   1  11
BRANCH   1  22
ATOM     22  C   UNL d   1      25.999 -15.419  -3.506  0.00  0.00     0.233 C 
ATOM     23  N   UNL d   1      25.448 -15.201  -4.877  0.00  0.00    -0.228 NA
ATOM     24  N   UNL d   1      26.520 -15.011  -5.763  0.00  0.00    -0.222 NA
ATOM     25  H   UNL d   1      24.854 -14.387  -4.950  0.00  0.00     0.143 HD
ATOM     26  C   UNL d   1      27.681 -15.343  -4.979  0.00  0.00     0.275 C 
ATOM     27  H   UNL d   1      26.586 -14.045  -6.085  0.00  0.00     0.144 HD
ATOM     28  O   UNL d   1      27.283 -15.948  -3.759  0.00  0.00    -0.338 OA
BRANCH  26  29
ATOM     29  S   UNL d   1      28.481 -13.950  -4.310  0.00  0.00    -0.116 SA
BRANCH  29  30
ATOM     30  C   UNL d   1      30.189 -14.267  -4.137  0.00  0.00     0.120 C 
BRANCH  30  31
ATOM     31  C   UNL d   1      30.462 -15.701  -4.571  0.00  0.00    -0.005 C 
ATOM     32  C   UNL d   1      30.407 -16.888  -3.770  0.00  0.00     0.042 C 
ATOM     33 CL   UNL d   1      30.191 -17.107  -2.045  0.00  0.00    -0.084 Cl
ATOM     34  C   UNL d   1      30.466 -18.142  -4.358  0.00  0.00     0.024 C 
ATOM     35  C   UNL d   1      30.405 -18.264  -5.726  0.00  0.00     0.003 C 
ATOM     36  C   UNL d   1      30.645 -17.151  -6.516  0.00  0.00     0.024 C 
ATOM     37  C   UNL d   1      30.725 -15.883  -5.941  0.00  0.00     0.042 C 
ATOM     38 CL   UNL d   1      31.143 -14.567  -6.985  0.00  0.00    -0.084 Cl
ENDBRANCH  30  31
ENDBRANCH  29  30
ENDBRANCH  26  29
ENDBRANCH   1  22
TORSDOF 9
ENDMDL
MODEL 3
REMARK VINA RESULT:    -8.321      3.658      6.154
REMARK INTER + INTRA:         -14.864
REMARK INTER:                 -11.005
REMARK INTRA:                  -3.859
REMARK CONF_INDEPENDENT:        2.685
REMARK UNBOUND:                -3.859
REMARK  9 active torsions:
REMARK  status: ('A' for Active; 'I' for Inactive)
REMARK    1  A    between atoms: C_2  and  O_5 
REMARK    2  A    between atoms: O_5  and  C_6 
REMARK       I    between atoms: C_6  and  N_8 
REMARK    3  A    between atoms: N_8  and  C_9 
REMARK    4  A    between atoms: C_9  and  C_10 
REMARK    5  A    between atoms: C_20  and  C_9 
REMARK    6  A    between atoms: C_10  and  C_11 
REMARK    7  A    between atoms: C_23  and  S_24 
REMARK    8  A    between atoms: S_24  and  C_25 
REMARK    9  A    between atoms: C_25  and  C_26 
ROOT
ATOM      1  C   UNL d   1      25.595 -14.250  -2.401  0.00  0.00     0.135 C 
ENDROOT
BRANCH   1   2
ATOM      2  N   UNL d   1      25.986 -12.755  -2.737  0.00  0.00    -0.328 N 
ATOM      3  C   UNL d   1      25.719 -12.077  -3.911  0.00  0.00     0.361 C 
ATOM      4  O   UNL d   1      25.250 -12.652  -4.881  0.00  0.00    -0.238 OA
ATOM      5  H   UNL d   1      26.665 -12.312  -2.128  0.00  0.00     0.165 HD
BRANCH   3   6
ATOM      6  O   UNL d   1      25.952 -10.758  -4.099  0.00  0.00    -0.294 OA
BRANCH   6   7
ATOM      7  C   UNL d   1      26.595 -10.468  -5.433  0.00  0.00     0.061 C 
ATOM      8  C   UNL d   1      27.374  -9.180  -5.250  0.00  0.00     0.046 C 
ATOM      9  C   UNL d   1      25.530 -10.206  -6.518  0.00  0.00     0.046 C 
ATOM     10  C   UNL d   1      27.616 -11.528  -5.994  0.00  0.00     0.046 C 
ENDBRANCH   6   7
ENDBRANCH   3   6
ENDBRANCH   1   2
BRANCH   1  11
ATOM     11  C   UNL d   1      26.214 -14.675  -1.018  0.00  0.00     0.066 C 
BRANCH  11  12
ATOM     12  C   UNL d   1      25.809 -16.072  -0.482  0.00  0.00    -0.048 A 
ATOM     13  C   UNL d   1      24.588 -16.679  -0.412  0.00  0.00    -0.006 A 
ATOM     14  C   UNL d   1      23.297 -16.333  -0.929  0.00  0.00     0.014 C 
ATOM     15  C   UNL d   1      24.797 -18.090  -0.147  0.00  0.00     0.038 A 
ATOM     16  C   UNL d   1      22.183 -17.042  -0.894  0.00  0.00     0.001 C 
ATOM     17  C   UNL d   1      22.351 -18.417  -0.533  0.00  0.00     0.002 C 
ATOM     18  C   UNL d   1      23.561 -18.950  -0.216  0.00  0.00     0.030 C 
ATOM     19  N   UNL d   1      26.048 -18.324   0.012  0.00  0.00    -0.385 N 
ATOM     20  C   UNL d   1      26.868 -17.086  -0.198  0.00  0.00     0.155 A 
ATOM     21  H   UNL d   1      26.429 -19.247   0.185  0.00  0.00     0.160 HD
ENDBRANCH  11  12
ENDBRANCH   1  11
BRANCH   1  22
ATOM     22  C   UNL d   1      25.912 -15.432  -3.539  0.00  0.00     0.233 C 
ATOM     23  N   UNL d   1      25.397 -15.166  -4.915  0.00  0.00    -0.228 NA
ATOM     24  N   UNL d   1      26.492 -14.943  -5.765  0.00  0.00    -0.222 NA
ATOM     25  H   UNL d   1      24.803 -14.351  -4.975  0.00  0.00     0.143 HD
ATOM     26  C   UNL d   1      27.633 -15.301  -4.963  0.00  0.00     0.275 C 
ATOM     27  H   UNL d   1      26.563 -13.967  -6.051  0.00  0.00     0.144 HD
ATOM     28  O   UNL d   1      27.203 -15.950  -3.775  0.00  0.00    -0.338 OA
BRANCH  26  29
ATOM     29  S   UNL d   1      28.411 -13.932  -4.224  0.00  0.00    -0.116 SA
BRANCH  29  30
ATOM     30  C   UNL d   1      30.014 -14.371  -3.691  0.00  0.00     0.120 C 
BRANCH  30  31
ATOM     31  C   UNL d   1      30.239 -15.845  -3.997  0.00  0.00    -0.005 C 
ATOM     32  C   UNL d   1      30.469 -16.454  -5.274  0.00  0.00     0.042 C 
ATOM     33 CL   UNL d   1      30.403 -15.794  -6.895  0.00  0.00    -0.084 Cl
ATOM     34  C   UNL d   1      30.875 -17.776  -5.365  0.00  0.00     0.024 C 
ATOM     35  C   UNL d   1      31.227 -18.468  -4.230  0.00  0.00     0.003 C 
ATOM     36  C   UNL d   1      30.843 -17.977  -2.992  0.00  0.00     0.024 C 
ATOM     37  C   UNL d   1      30.305 -16.697  -2.878  0.00  0.00     0.042 C 
ATOM     38 CL   UNL d   1      29.743 -16.211  -1.313  0.00  0.00    -0.084 Cl
ENDBRANCH  30  31
ENDBRANCH  29  30
ENDBRANCH  26  29
ENDBRANCH   1  22
TORSDOF 9
ENDMDL
MODEL 4
REMARK VINA RESULT:    -7.798      3.355      5.859
REMARK INTER + INTRA:         -15.145
REMARK INTER:                 -10.483
REMARK INTRA:                  -4.662
REMARK CONF_INDEPENDENT:        2.685
REMARK UNBOUND:                -4.662
REMARK  9 active torsions:
REMARK  status: ('A' for Active; 'I' for Inactive)
REMARK    1  A    between atoms: C_2  and  O_5 
REMARK    2  A    between atoms: O_5  and  C_6 
REMARK       I    between atoms: C_6  and  N_8 
REMARK    3  A    between atoms: N_8  and  C_9 
REMARK    4  A    between atoms: C_9  and  C_10 
REMARK    5  A    between atoms: C_20  and  C_9 
REMARK    6  A    between atoms: C_10  and  C_11 
REMARK    7  A    between atoms: C_23  and  S_24 
REMARK    8  A    between atoms: S_24  and  C_25 
REMARK    9  A    between atoms: C_25  and  C_26 
ROOT
ATOM      1  C   UNL d   1      25.503 -14.392  -2.483  0.00  0.00     0.135 C 
ENDROOT
BRANCH   1   2
ATOM      2  N   UNL d   1      25.790 -12.878  -2.841  0.00  0.00    -0.328 N 
ATOM      3  C   UNL d   1      25.530 -12.253  -4.045  0.00  0.00     0.361 C 
ATOM      4  O   UNL d   1      25.159 -12.886  -5.020  0.00  0.00    -0.238 OA
ATOM      5  H   UNL d   1      26.400 -12.368  -2.212  0.00  0.00     0.165 HD
BRANCH   3   6
ATOM      6  O   UNL d   1      25.667 -10.923  -4.257  0.00  0.00    -0.294 OA
BRANCH   6   7
ATOM      7  C   UNL d   1      26.878 -10.593  -5.096  0.00  0.00     0.061 C 
ATOM      8  C   UNL d   1      28.061 -10.617  -4.148  0.00  0.00     0.046 C 
ATOM      9  C   UNL d   1      26.784  -9.166  -5.671  0.00  0.00     0.046 C 
ATOM     10  C   UNL d   1      27.235 -11.576  -6.275  0.00  0.00     0.046 C 
ENDBRANCH   6   7
ENDBRANCH   3   6
ENDBRANCH   1   2
BRANCH   1  11
ATOM     11  C   UNL d   1      26.047 -14.722  -1.043  0.00  0.00     0.066 C 
BRANCH  11  12
ATOM     12  C   UNL d   1      25.731 -16.137  -0.495  0.00  0.00    -0.048 A 
ATOM     13  C   UNL d   1      24.547 -16.811  -0.400  0.00  0.00    -0.006 A 
ATOM     14  C   UNL d   1      23.229 -16.540  -0.892  0.00  0.00     0.014 C 
ATOM     15  C   UNL d   1      24.840 -18.207  -0.134  0.00  0.00     0.038 A 
ATOM     16  C   UNL d   1      22.157 -17.309  -0.833  0.00  0.00     0.001 C 
ATOM     17  C   UNL d   1      22.409 -18.671  -0.470  0.00  0.00     0.002 C 
ATOM     18  C   UNL d   1      23.653 -19.135  -0.175  0.00  0.00     0.030 C 
ATOM     19  N   UNL d   1      26.105 -18.370   0.001  0.00  0.00    -0.385 N 
ATOM     20  C   UNL d   1      26.850 -17.089  -0.229  0.00  0.00     0.155 A 
ATOM     21  H   UNL d   1      26.540 -19.270   0.169  0.00  0.00     0.160 HD
ENDBRANCH  11  12
ENDBRANCH   1  11
BRANCH   1  22
ATOM     22  C   UNL d   1      26.005 -15.573  -3.552  0.00  0.00     0.233 C 
ATOM     23  N   UNL d   1      25.532 -15.421  -4.960  0.00  0.00    -0.228 NA
ATOM     24  N   UNL d   1      26.635 -15.109  -5.770  0.00  0.00    -0.222 NA
ATOM     25  H   UNL d   1      24.854 -14.682  -5.083  0.00  0.00     0.143 HD
ATOM     26  C   UNL d   1      27.768 -15.304  -4.903  0.00  0.00     0.275 C 
ATOM     27  H   UNL d   1      26.611 -14.142  -6.095  0.00  0.00     0.144 HD
ATOM     28  O   UNL d   1      27.356 -15.950  -3.708  0.00  0.00    -0.338 OA
BRANCH  26  29
ATOM     29  S   UNL d   1      28.351 -13.827  -4.191  0.00  0.00    -0.116 SA
BRANCH  29  30
ATOM     30  C   UNL d   1      29.934 -14.081  -3.499  0.00  0.00     0.120 C 
BRANCH  30  31
ATOM     31  C   UNL d   1      29.827 -15.155  -2.426  0.00  0.00    -0.005 C 
ATOM     32  C   UNL d   1      30.045 -16.565  -2.566  0.00  0.00     0.042 C 
ATOM     33 CL   UNL d   1      30.327 -17.553  -3.986  0.00  0.00    -0.084 Cl
ATOM     34  C   UNL d   1      30.124 -17.383  -1.450  0.00  0.00     0.024 C 
ATOM     35  C   UNL d   1      30.167 -16.830  -0.193  0.00  0.00     0.003 C 
ATOM     36  C   UNL d   1      29.775 -15.512  -0.020  0.00  0.00     0.024 C 
ATOM     37  C   UNL d   1      29.555 -14.692  -1.125  0.00  0.00     0.042 C 
ATOM     38 CL   UNL d   1      28.955 -13.097  -0.819  0.00  0.00    -0.084 Cl
ENDBRANCH  30  31
ENDBRANCH  29  30
ENDBRANCH  26  29
ENDBRANCH   1  22
TORSDOF 9
ENDMDL
MODEL 5
REMARK VINA RESULT:    -7.788      3.344      6.130
REMARK INTER + INTRA:         -14.980
REMARK INTER:                 -10.472
REMARK INTRA:                  -4.507
REMARK CONF_INDEPENDENT:        2.685
REMARK UNBOUND:                -4.507
REMARK  9 active torsions:
REMARK  status: ('A' for Active; 'I' for Inactive)
REMARK    1  A    between atoms: C_2  and  O_5 
REMARK    2  A    between atoms: O_5  and  C_6 
REMARK       I    between atoms: C_6  and  N_8 
REMARK    3  A    between atoms: N_8  and  C_9 
REMARK    4  A    between atoms: C_9  and  C_10 
REMARK    5  A    between atoms: C_20  and  C_9 
REMARK    6  A    between atoms: C_10  and  C_11 
REMARK    7  A    between atoms: C_23  and  S_24 
REMARK    8  A    between atoms: S_24  and  C_25 
REMARK    9  A    between atoms: C_25  and  C_26 
ROOT
ATOM      1  C   UNL d   1      25.383 -14.034  -3.254  0.00  0.00     0.135 C 
ENDROOT
BRANCH   1   2
ATOM      2  N   UNL d   1      25.133 -12.749  -4.141  0.00  0.00    -0.328 N 
ATOM      3  C   UNL d   1      25.965 -12.252  -5.125  0.00  0.00     0.361 C 
ATOM      4  O   UNL d   1      27.078 -12.718  -5.308  0.00  0.00    -0.238 OA
ATOM      5  H   UNL d   1      24.404 -12.116  -3.832  0.00  0.00     0.165 HD
BRANCH   3   6
ATOM      6  O   UNL d   1      25.642 -11.229  -5.950  0.00  0.00    -0.294 OA
BRANCH   6   7
ATOM      7  C   UNL d   1      25.899  -9.879  -5.324  0.00  0.00     0.061 C 
ATOM      8  C   UNL d   1      26.950  -9.212  -6.188  0.00  0.00     0.046 C 
ATOM      9  C   UNL d   1      26.499 -10.027  -3.911  0.00  0.00     0.046 C 
ATOM     10  C   UNL d   1      24.689  -8.874  -5.241  0.00  0.00     0.046 C 
ENDBRANCH   6   7
ENDBRANCH   3   6
ENDBRANCH   1   2
BRANCH   1  11
ATOM     11  C   UNL d   1      26.176 -13.648  -1.951  0.00  0.00     0.066 C 
BRANCH  11  12
ATOM     12  C   UNL d   1      26.410 -14.786  -0.925  0.00  0.00    -0.048 A 
ATOM     13  C   UNL d   1      25.677 -15.907  -0.655  0.00  0.00    -0.006 A 
ATOM     14  C   UNL d   1      24.546 -16.509  -1.296  0.00  0.00     0.014 C 
ATOM     15  C   UNL d   1      26.494 -16.802   0.143  0.00  0.00     0.038 A 
ATOM     16  C   UNL d   1      23.961 -17.660  -1.016  0.00  0.00     0.001 C 
ATOM     17  C   UNL d   1      24.704 -18.520  -0.145  0.00  0.00     0.002 C 
ATOM     18  C   UNL d   1      25.906 -18.170   0.383  0.00  0.00     0.030 C 
ATOM     19  N   UNL d   1      27.619 -16.247   0.410  0.00  0.00    -0.385 N 
ATOM     20  C   UNL d   1      27.734 -14.902  -0.244  0.00  0.00     0.155 A 
ATOM     21  H   UNL d   1      28.357 -16.699   0.937  0.00  0.00     0.160 HD
ENDBRANCH  11  12
ENDBRANCH   1  11
BRANCH   1  22
ATOM     22  C   UNL d   1      26.096 -15.367  -3.965  0.00  0.00     0.233 C 
ATOM     23  N   UNL d   1      26.329 -15.275  -5.437  0.00  0.00    -0.228 NA
ATOM     24  N   UNL d   1      27.712 -15.200  -5.666  0.00  0.00    -0.222 NA
ATOM     25  H   UNL d   1      25.913 -14.458  -5.863  0.00  0.00     0.143 HD
ATOM     26  C   UNL d   1      28.293 -15.480  -4.378  0.00  0.00     0.275 C 
ATOM     27  H   UNL d   1      28.000 -14.273  -5.980  0.00  0.00     0.144 HD
ATOM     28  O   UNL d   1      27.291 -15.950  -3.489  0.00  0.00    -0.338 OA
BRANCH  26  29
ATOM     29  S   UNL d   1      28.743 -14.047  -3.501  0.00  0.00    -0.116 SA
BRANCH  29  30
ATOM     30  C   UNL d   1      30.300 -13.476  -4.047  0.00  0.00     0.120 C 
BRANCH  30  31
ATOM     31  C   UNL d   1      30.171 -13.030  -5.496  0.00  0.00    -0.005 C 
ATOM     32  C   UNL d   1      30.280 -13.834  -6.678  0.00  0.00     0.042 C 
ATOM     33 CL   UNL d   1      30.753 -15.507  -6.895  0.00  0.00    -0.084 Cl
ATOM     34  C   UNL d   1      29.921 -13.325  -7.916  0.00  0.00     0.024 C 
ATOM     35  C   UNL d   1      29.295 -12.104  -8.003  0.00  0.00     0.003 C 
ATOM     36  C   UNL d   1      29.347 -11.239  -6.922  0.00  0.00     0.024 C 
ATOM     37  C   UNL d   1      29.828 -11.679  -5.690  0.00  0.00     0.042 C 
ATOM     38 CL   UNL d   1      29.967 -10.500  -4.429  0.00  0.00    -0.084 Cl
ENDBRANCH  30  31
ENDBRANCH  29  30
ENDBRANCH  26  29
ENDBRANCH   1  22
TORSDOF 9
ENDMDL
MODEL 6
REMARK VINA RESULT:    -7.724      3.130      5.671
REMARK INTER + INTRA:         -15.107
REMARK INTER:                 -10.409
REMARK INTRA:                  -4.698
REMARK CONF_INDEPENDENT:        2.685
REMARK UNBOUND:                -4.698
REMARK  9 active torsions:
REMARK  status: ('A' for Active; 'I' for Inactive)
REMARK    1  A    between atoms: C_2  and  O_5 
REMARK    2  A    between atoms: O_5  and  C_6 
REMARK       I    between atoms: C_6  and  N_8 
REMARK    3  A    between atoms: N_8  and  C_9 
REMARK    4  A    between atoms: C_9  and  C_10 
REMARK    5  A    between atoms: C_20  and  C_9 
REMARK    6  A    between atoms: C_10  and  C_11 
REMARK    7  A    between atoms: C_23  and  S_24 
REMARK    8  A    between atoms: S_24  and  C_25 
REMARK    9  A    between atoms: C_25  and  C_26 
ROOT
ATOM      1  C   UNL d   1      25.382 -14.426  -2.400  0.00  0.00     0.135 C 
ENDROOT
BRANCH   1   2
ATOM      2  N   UNL d   1      25.669 -12.890  -2.646  0.00  0.00    -0.328 N 
ATOM      3  C   UNL d   1      25.488 -12.197  -3.827  0.00  0.00     0.361 C 
ATOM      4  O   UNL d   1      25.200 -12.776  -4.863  0.00  0.00    -0.238 OA
ATOM      5  H   UNL d   1      26.222 -12.411  -1.944  0.00  0.00     0.165 HD
BRANCH   3   6
ATOM      6  O   UNL d   1      25.617 -10.856  -3.950  0.00  0.00    -0.294 OA
BRANCH   6   7
ATOM      7  C   UNL d   1      26.421 -10.461  -5.165  0.00  0.00     0.061 C 
ATOM      8  C   UNL d   1      26.925  -9.057  -4.894  0.00  0.00     0.046 C 
ATOM      9  C   UNL d   1      25.531 -10.391  -6.422  0.00  0.00     0.046 C 
ATOM     10  C   UNL d   1      27.691 -11.329  -5.510  0.00  0.00     0.046 C 
ENDBRANCH   6   7
ENDBRANCH   3   6
ENDBRANCH   1   2
BRANCH   1  11
ATOM     11  C   UNL d   1      25.904 -14.854  -0.977  0.00  0.00     0.066 C 
BRANCH  11  12
ATOM     12  C   UNL d   1      25.551 -16.292  -0.519  0.00  0.00    -0.048 A 
ATOM     13  C   UNL d   1      24.348 -16.936  -0.453  0.00  0.00    -0.006 A 
ATOM     14  C   UNL d   1      23.034 -16.595  -0.908  0.00  0.00     0.014 C 
ATOM     15  C   UNL d   1      24.603 -18.355  -0.283  0.00  0.00     0.038 A 
ATOM     16  C   UNL d   1      21.940 -17.335  -0.887  0.00  0.00     0.001 C 
ATOM     17  C   UNL d   1      22.154 -18.725  -0.617  0.00  0.00     0.002 C 
ATOM     18  C   UNL d   1      23.387 -19.243  -0.370  0.00  0.00     0.030 C 
ATOM     19  N   UNL d   1      25.863 -18.564  -0.177  0.00  0.00    -0.385 N 
ATOM     20  C   UNL d   1      26.644 -17.293  -0.331  0.00  0.00     0.155 A 
ATOM     21  H   UNL d   1      26.273 -19.485  -0.074  0.00  0.00     0.160 HD
ENDBRANCH  11  12
ENDBRANCH   1  11
BRANCH   1  22
ATOM     22  C   UNL d   1      25.908 -15.527  -3.540  0.00  0.00     0.233 C 
ATOM     23  N   UNL d   1      25.538 -15.228  -4.955  0.00  0.00    -0.228 NA
ATOM     24  N   UNL d   1      26.705 -14.895  -5.660  0.00  0.00    -0.222 NA
ATOM     25  H   UNL d   1      24.899 -14.450  -5.051  0.00  0.00     0.143 HD
ATOM     26  C   UNL d   1      27.768 -15.219  -4.745  0.00  0.00     0.275 C 
ATOM     27  H   UNL d   1      26.741 -13.903  -5.895  0.00  0.00     0.144 HD
ATOM     28  O   UNL d   1      27.250 -15.951  -3.644  0.00  0.00    -0.338 OA
BRANCH  26  29
ATOM     29  S   UNL d   1      28.360 -13.841  -3.863  0.00  0.00    -0.116 SA
BRANCH  29  30
ATOM     30  C   UNL d   1      29.592 -14.340  -2.732  0.00  0.00     0.120 C 
BRANCH  30  31
ATOM     31  C   UNL d   1      29.164 -13.922  -1.333  0.00  0.00    -0.005 C 
ATOM     32  C   UNL d   1      28.618 -12.663  -0.918  0.00  0.00     0.042 C 
ATOM     33 CL   UNL d   1      28.415 -11.153  -1.783  0.00  0.00    -0.084 Cl
ATOM     34  C   UNL d   1      28.073 -12.510   0.347  0.00  0.00     0.024 C 
ATOM     35  C   UNL d   1      27.893 -13.606   1.156  0.00  0.00     0.003 C 
ATOM     36  C   UNL d   1      28.570 -14.780   0.865  0.00  0.00     0.024 C 
ATOM     37  C   UNL d   1      29.244 -14.922  -0.346  0.00  0.00     0.042 C 
ATOM     38 CL   UNL d   1      30.159 -16.374  -0.575  0.00  0.00    -0.084 Cl
ENDBRANCH  30  31
ENDBRANCH  29  30
ENDBRANCH  26  29
ENDBRANCH   1  22
TORSDOF 9
ENDMDL
MODEL 7
REMARK VINA RESULT:    -7.581      1.683      5.078
REMARK INTER + INTRA:         -14.379
REMARK INTER:                 -10.265
REMARK INTRA:                  -4.113
REMARK CONF_INDEPENDENT:        2.685
REMARK UNBOUND:                -4.113
REMARK  9 active torsions:
REMARK  status: ('A' for Active; 'I' for Inactive)
REMARK    1  A    between atoms: C_2  and  O_5 
REMARK    2  A    between atoms: O_5  and  C_6 
REMARK       I    between atoms: C_6  and  N_8 
REMARK    3  A    between atoms: N_8  and  C_9 
REMARK    4  A    between atoms: C_9  and  C_10 
REMARK    5  A    between atoms: C_20  and  C_9 
REMARK    6  A    between atoms: C_10  and  C_11 
REMARK    7  A    between atoms: C_23  and  S_24 
REMARK    8  A    between atoms: S_24  and  C_25 
REMARK    9  A    between atoms: C_25  and  C_26 
ROOT
ATOM      1  C   UNL d   1      27.723 -15.046   0.290  0.00  0.00     0.135 C 
ENDROOT
BRANCH   1   2
ATOM      2  N   UNL d   1      26.601 -15.629  -0.660  0.00  0.00    -0.328 N 
ATOM      3  C   UNL d   1      26.387 -16.960  -0.961  0.00  0.00     0.361 C 
ATOM      4  O   UNL d   1      27.169 -17.825  -0.600  0.00  0.00    -0.238 OA
ATOM      5  H   UNL d   1      26.124 -14.968  -1.262  0.00  0.00     0.165 HD
BRANCH   3   6
ATOM      6  O   UNL d   1      25.330 -17.419  -1.671  0.00  0.00    -0.294 OA
BRANCH   6   7
ATOM      7  C   UNL d   1      24.151 -17.767  -0.793  0.00  0.00     0.061 C 
ATOM      8  C   UNL d   1      23.358 -16.485  -0.634  0.00  0.00     0.046 C 
ATOM      9  C   UNL d   1      24.613 -18.194   0.615  0.00  0.00     0.046 C 
ATOM     10  C   UNL d   1      23.141 -18.851  -1.329  0.00  0.00     0.046 C 
ENDBRANCH   6   7
ENDBRANCH   3   6
ENDBRANCH   1   2
BRANCH   1  11
ATOM     11  C   UNL d   1      27.601 -13.479   0.376  0.00  0.00     0.066 C 
BRANCH  11  12
ATOM     12  C   UNL d   1      27.315 -12.886   1.779  0.00  0.00    -0.048 A 
ATOM     13  C   UNL d   1      27.527 -13.406   3.025  0.00  0.00    -0.006 A 
ATOM     14  C   UNL d   1      28.206 -14.578   3.489  0.00  0.00     0.014 C 
ATOM     15  C   UNL d   1      27.404 -12.330   3.991  0.00  0.00     0.038 A 
ATOM     16  C   UNL d   1      28.446 -14.948   4.735  0.00  0.00     0.001 C 
ATOM     17  C   UNL d   1      28.232 -13.932   5.720  0.00  0.00     0.002 C 
ATOM     18  C   UNL d   1      27.784 -12.688   5.406  0.00  0.00     0.030 C 
ATOM     19  N   UNL d   1      27.068 -11.245   3.397  0.00  0.00    -0.385 N 
ATOM     20  C   UNL d   1      26.984 -11.436   1.912  0.00  0.00     0.155 A 
ATOM     21  H   UNL d   1      26.948 -10.358   3.873  0.00  0.00     0.160 HD
ENDBRANCH  11  12
ENDBRANCH   1  11
BRANCH   1  22
ATOM     22  C   UNL d   1      29.313 -15.465  -0.004  0.00  0.00     0.233 C 
ATOM     23  N   UNL d   1      29.656 -16.905   0.192  0.00  0.00    -0.228 NA
ATOM     24  N   UNL d   1      29.935 -17.471  -1.061  0.00  0.00    -0.222 NA
ATOM     25  H   UNL d   1      28.908 -17.446   0.604  0.00  0.00     0.143 HD
ATOM     26  C   UNL d   1      29.989 -16.339  -1.950  0.00  0.00     0.275 C 
ATOM     27  H   UNL d   1      29.203 -18.114  -1.364  0.00  0.00     0.144 HD
ATOM     28  O   UNL d   1      29.991 -15.135  -1.198  0.00  0.00    -0.338 OA
BRANCH  26  29
ATOM     29  S   UNL d   1      28.505 -16.078  -2.821  0.00  0.00    -0.116 SA
BRANCH  29  30
ATOM     30  C   UNL d   1      28.680 -14.722  -3.906  0.00  0.00     0.120 C 
BRANCH  30  31
ATOM     31  C   UNL d   1      27.582 -13.713  -3.601  0.00  0.00    -0.005 C 
ATOM     32  C   UNL d   1      27.697 -12.474  -2.891  0.00  0.00     0.042 C 
ATOM     33 CL   UNL d   1      29.035 -11.775  -1.999  0.00  0.00    -0.084 Cl
ATOM     34  C   UNL d   1      26.654 -11.561  -2.885  0.00  0.00     0.024 C 
ATOM     35  C   UNL d   1      25.565 -11.756  -3.701  0.00  0.00     0.003 C 
ATOM     36  C   UNL d   1      25.343 -13.012  -4.244  0.00  0.00     0.024 C 
ATOM     37  C   UNL d   1      26.320 -14.001  -4.152  0.00  0.00     0.042 C 
ATOM     38 CL   UNL d   1      25.911 -15.573  -4.754  0.00  0.00    -0.084 Cl
ENDBRANCH  30  31
ENDBRANCH  29  30
ENDBRANCH  26  29
ENDBRANCH   1  22
TORSDOF 9
ENDMDL
MODEL 8
REMARK VINA RESULT:    -7.556      3.514      5.811
REMARK INTER + INTRA:         -14.711
REMARK INTER:                 -10.241
REMARK INTRA:                  -4.471
REMARK CONF_INDEPENDENT:        2.685
REMARK UNBOUND:                -4.471
REMARK  9 active torsions:
REMARK  status: ('A' for Active; 'I' for Inactive)
REMARK    1  A    between atoms: C_2  and  O_5 
REMARK    2  A    between atoms: O_5  and  C_6 
REMARK       I    between atoms: C_6  and  N_8 
REMARK    3  A    between atoms: N_8  and  C_9 
REMARK    4  A    between atoms: C_9  and  C_10 
REMARK    5  A    between atoms: C_20  and  C_9 
REMARK    6  A    between atoms: C_10  and  C_11 
REMARK    7  A    between atoms: C_23  and  S_24 
REMARK    8  A    between atoms: S_24  and  C_25 
REMARK    9  A    between atoms: C_25  and  C_26 
ROOT
ATOM      1  C   UNL d   1      25.620 -14.268  -2.476  0.00  0.00     0.135 C 
ENDROOT
BRANCH   1   2
ATOM      2  N   UNL d   1      25.977 -12.784  -2.888  0.00  0.00    -0.328 N 
ATOM      3  C   UNL d   1      25.717 -12.181  -4.104  0.00  0.00     0.361 C 
ATOM      4  O   UNL d   1      25.286 -12.822  -5.049  0.00  0.00    -0.238 OA
ATOM      5  H   UNL d   1      26.631 -12.289  -2.292  0.00  0.00     0.165 HD
BRANCH   3   6
ATOM      6  O   UNL d   1      25.919 -10.868  -4.361  0.00  0.00    -0.294 OA
BRANCH   6   7
ATOM      7  C   UNL d   1      27.055 -10.635  -5.327  0.00  0.00     0.061 C 
ATOM      8  C   UNL d   1      28.319 -10.622  -4.490  0.00  0.00     0.046 C 
ATOM      9  C   UNL d   1      26.940  -9.252  -5.999  0.00  0.00     0.046 C 
ATOM     10  C   UNL d   1      27.282 -11.712  -6.456  0.00  0.00     0.046 C 
ENDBRANCH   6   7
ENDBRANCH   3   6
ENDBRANCH   1   2
BRANCH   1  11
ATOM     11  C   UNL d   1      26.177 -14.581  -1.038  0.00  0.00     0.066 C 
BRANCH  11  12
ATOM     12  C   UNL d   1      25.867 -15.990  -0.470  0.00  0.00    -0.048 A 
ATOM     13  C   UNL d   1      24.691 -16.682  -0.397  0.00  0.00    -0.006 A 
ATOM     14  C   UNL d   1      23.385 -16.442  -0.934  0.00  0.00     0.014 C 
ATOM     15  C   UNL d   1      24.999 -18.067  -0.094  0.00  0.00     0.038 A 
ATOM     16  C   UNL d   1      22.324 -17.228  -0.893  0.00  0.00     0.001 C 
ATOM     17  C   UNL d   1      22.586 -18.578  -0.495  0.00  0.00     0.002 C 
ATOM     18  C   UNL d   1      23.827 -19.015  -0.153  0.00  0.00     0.030 C 
ATOM     19  N   UNL d   1      26.261 -18.207   0.082  0.00  0.00    -0.385 N 
ATOM     20  C   UNL d   1      26.993 -16.918  -0.151  0.00  0.00     0.155 A 
ATOM     21  H   UNL d   1      26.705 -19.096   0.282  0.00  0.00     0.160 HD
ENDBRANCH  11  12
ENDBRANCH   1  11
BRANCH   1  22
ATOM     22  C   UNL d   1      26.038 -15.507  -3.516  0.00  0.00     0.233 C 
ATOM     23  N   UNL d   1      25.531 -15.383  -4.915  0.00  0.00    -0.228 NA
ATOM     24  N   UNL d   1      26.622 -15.148  -5.766  0.00  0.00    -0.222 NA
ATOM     25  H   UNL d   1      24.882 -14.618  -5.045  0.00  0.00     0.143 HD
ATOM     26  C   UNL d   1      27.771 -15.364  -4.925  0.00  0.00     0.275 C 
ATOM     27  H   UNL d   1      26.631 -14.193  -6.124  0.00  0.00     0.144 HD
ATOM     28  O   UNL d   1      27.366 -15.950  -3.697  0.00  0.00    -0.338 OA
BRANCH  26  29
ATOM     29  S   UNL d   1      28.439 -13.891  -4.282  0.00  0.00    -0.116 SA
BRANCH  29  30
ATOM     30  C   UNL d   1      30.136 -14.108  -3.934  0.00  0.00     0.120 C 
BRANCH  30  31
ATOM     31  C   UNL d   1      30.283 -15.232  -2.920  0.00  0.00    -0.005 C 
ATOM     32  C   UNL d   1      30.087 -15.170  -1.501  0.00  0.00     0.042 C 
ATOM     33 CL   UNL d   1      29.795 -13.809  -0.436  0.00  0.00    -0.084 Cl
ATOM     34  C   UNL d   1      30.044 -16.328  -0.740  0.00  0.00     0.024 C 
ATOM     35  C   UNL d   1      30.016 -17.556  -1.358  0.00  0.00     0.003 C 
ATOM     36  C   UNL d   1      30.388 -17.652  -2.689  0.00  0.00     0.024 C 
ATOM     37  C   UNL d   1      30.571 -16.502  -3.454  0.00  0.00     0.042 C 
ATOM     38 CL   UNL d   1      31.149 -16.713  -5.073  0.00  0.00    -0.084 Cl
ENDBRANCH  30  31
ENDBRANCH  29  30
ENDBRANCH  26  29
ENDBRANCH   1  22
TORSDOF 9
ENDMDL
MODEL 9
REMARK VINA RESULT:    -7.316      2.921      6.982
REMARK INTER + INTRA:         -15.450
REMARK INTER:                 -10.000
REMARK INTRA:                  -5.450
REMARK CONF_INDEPENDENT:        2.685
REMARK UNBOUND:                -5.450
REMARK  9 active torsions:
REMARK  status: ('A' for Active; 'I' for Inactive)
REMARK    1  A    between atoms: C_2  and  O_5 
REMARK    2  A    between atoms: O_5  and  C_6 
REMARK       I    between atoms: C_6  and  N_8 
REMARK    3  A    between atoms: N_8  and  C_9 
REMARK    4  A    between atoms: C_9  and  C_10 
REMARK    5  A    between atoms: C_20  and  C_9 
REMARK    6  A    between atoms: C_10  and  C_11 
REMARK    7  A    between atoms: C_23  and  S_24 
REMARK    8  A    between atoms: S_24  and  C_25 
REMARK    9  A    between atoms: C_25  and  C_26 
ROOT
ATOM      1  C   UNL d   1      27.963 -12.519  -4.073  0.00  0.00     0.135 C 
ENDROOT
BRANCH   1   2
ATOM      2  N   UNL d   1      28.405 -14.037  -4.088  0.00  0.00    -0.328 N 
ATOM      3  C   UNL d   1      27.953 -15.018  -4.949  0.00  0.00     0.361 C 
ATOM      4  O   UNL d   1      27.032 -14.807  -5.721  0.00  0.00    -0.238 OA
ATOM      5  H   UNL d   1      28.909 -14.374  -3.275  0.00  0.00     0.165 HD
BRANCH   3   6
ATOM      6  O   UNL d   1      28.462 -16.270  -5.010  0.00  0.00    -0.294 OA
BRANCH   6   7
ATOM      7  C   UNL d   1      29.917 -16.284  -5.415  0.00  0.00     0.061 C 
ATOM      8  C   UNL d   1      29.991 -15.529  -6.728  0.00  0.00     0.046 C 
ATOM      9  C   UNL d   1      30.405 -17.721  -5.688  0.00  0.00     0.046 C 
ATOM     10  C   UNL d   1      30.947 -15.590  -4.446  0.00  0.00     0.046 C 
ENDBRANCH   6   7
ENDBRANCH   3   6
ENDBRANCH   1   2
BRANCH   1  11
ATOM     11  C   UNL d   1      28.703 -11.749  -2.916  0.00  0.00     0.066 C 
BRANCH  11  12
ATOM     12  C   UNL d   1      29.191 -12.607  -1.721  0.00  0.00    -0.048 A 
ATOM     13  C   UNL d   1      28.535 -13.025  -0.598  0.00  0.00    -0.006 A 
ATOM     14  C   UNL d   1      27.163 -12.965  -0.192  0.00  0.00     0.014 C 
ATOM     15  C   UNL d   1      29.327 -14.068   0.027  0.00  0.00     0.038 A 
ATOM     16  C   UNL d   1      26.601 -13.492   0.881  0.00  0.00     0.001 C 
ATOM     17  C   UNL d   1      27.405 -14.450   1.577  0.00  0.00     0.002 C 
ATOM     18  C   UNL d   1      28.666 -14.773   1.185  0.00  0.00     0.030 C 
ATOM     19  N   UNL d   1      30.424 -14.230  -0.616  0.00  0.00    -0.385 N 
ATOM     20  C   UNL d   1      30.486 -13.344  -1.825  0.00  0.00     0.155 A 
ATOM     21  H   UNL d   1      31.122 -14.923  -0.371  0.00  0.00     0.160 HD
ENDBRANCH  11  12
ENDBRANCH   1  11
BRANCH   1  22
ATOM     22  C   UNL d   1      26.331 -12.164  -4.021  0.00  0.00     0.233 C 
ATOM     23  N   UNL d   1      25.511 -12.702  -5.148  0.00  0.00    -0.228 NA
ATOM     24  N   UNL d   1      24.666 -13.703  -4.645  0.00  0.00    -0.222 NA
ATOM     25  H   UNL d   1      26.061 -13.119  -5.886  0.00  0.00     0.143 HD
ATOM     26  C   UNL d   1      24.813 -13.597  -3.217  0.00  0.00     0.275 C 
ATOM     27  H   UNL d   1      24.948 -14.634  -4.953  0.00  0.00     0.144 HD
ATOM     28  O   UNL d   1      25.522 -12.411  -2.891  0.00  0.00    -0.338 OA
BRANCH  26  29
ATOM     29  S   UNL d   1      25.940 -14.744  -2.553  0.00  0.00    -0.116 SA
BRANCH  29  30
ATOM     30  C   UNL d   1      25.229 -16.338  -2.535  0.00  0.00     0.120 C 
BRANCH  30  31
ATOM     31  C   UNL d   1      25.839 -17.127  -1.386  0.00  0.00    -0.005 C 
ATOM     32  C   UNL d   1      27.224 -17.245  -1.036  0.00  0.00     0.042 C 
ATOM     33 CL   UNL d   1      28.672 -16.700  -1.859  0.00  0.00    -0.084 Cl
ATOM     34  C   UNL d   1      27.604 -17.820   0.167  0.00  0.00     0.024 C 
ATOM     35  C   UNL d   1      26.655 -18.128   1.113  0.00  0.00     0.003 C 
ATOM     36  C   UNL d   1      25.324 -18.200   0.736  0.00  0.00     0.024 C 
ATOM     37  C   UNL d   1      24.922 -17.753  -0.521  0.00  0.00     0.042 C 
ATOM     38 CL   UNL d   1      23.261 -17.990  -0.951  0.00  0.00    -0.084 Cl
ENDBRANCH  30  31
ENDBRANCH  29  30
ENDBRANCH  26  29
ENDBRANCH   1  22
TORSDOF 9
ENDMDL
