MODEL 1
REMARK VINA RESULT:    -8.046      0.000      0.000
REMARK INTER + INTRA:         -13.080
REMARK INTER:                 -10.731
REMARK INTRA:                  -2.349
REMARK CONF_INDEPENDENT:        2.685
REMARK UNBOUND:                -2.349
REMARK  9 active torsions:
REMARK  status: ('A' for Active; 'I' for Inactive)
REMARK    1  A    between atoms: C_2  and  C_11 
REMARK    2  A    between atoms: C_2  and  O_3 
REMARK    3  A    between atoms: O_3  and  C_4 
REMARK       I    between atoms: C_11  and  N_13 
REMARK    4  A    between atoms: N_13  and  C_14 
REMARK    5  A    between atoms: C_17  and  N_18 
REMARK    6  A    between atoms: N_18  and  C_19 
REMARK    7  A    between atoms: C_19  and  N_21 
REMARK       I    between atoms: N_21  and  C_22 
REMARK    8  A    between atoms: C_22  and  C_24 
REMARK    9  A    between atoms: C_29  and  N_30 
ROOT
ATOM      1  C   UNL d   1      28.295 -14.042   2.385  0.00  0.00     0.034 A 
ATOM      2  C   UNL d   1      28.708 -13.927   3.722  0.00  0.00     0.032 A 
ATOM      3  C   UNL d   1      28.390 -12.763   4.504  0.00  0.00     0.032 A 
ATOM      4  C   UNL d   1      27.653 -11.707   3.943  0.00  0.00     0.034 A 
ATOM      5  C   UNL d   1      27.230 -11.939   2.643  0.00  0.00     0.032 A 
ATOM      6  C   UNL d   1      27.574 -13.013   1.856  0.00  0.00     0.032 A 
ENDROOT
BRANCH   4   7
ATOM      7  N   UNL d   1      27.325 -10.463   4.626  0.00  0.00    -0.333 N 
ATOM      8  H   UNL d   1      27.075 -10.572   5.605  0.00  0.00     0.168 HD
BRANCH   7   9
ATOM      9  C   UNL d   1      27.501  -9.134   4.108  0.00  0.00     0.179 C 
ATOM     10  S   UNL d   1      28.197  -7.811   4.904  0.00  0.00    -0.040 SA
BRANCH   9  11
ATOM     11  N   UNL d   1      27.044  -8.955   2.785  0.00  0.00    -0.299 N 
ATOM     12  C   UNL d   1      27.893  -9.043   1.660  0.00  0.00     0.260 C 
ATOM     13  O   UNL d   1      29.007  -9.561   1.632  0.00  0.00    -0.267 OA
ATOM     14  H   UNL d   1      26.217  -8.383   2.680  0.00  0.00     0.171 HD
BRANCH  12  15
ATOM     15  C   UNL d   1      27.528  -8.555   0.319  0.00  0.00     0.065 A 
ATOM     16  C   UNL d   1      28.601  -8.666  -0.616  0.00  0.00     0.020 A 
ATOM     17  C   UNL d   1      28.605  -7.970  -1.820  0.00  0.00     0.001 A 
ATOM     18  C   UNL d   1      27.499  -7.212  -2.160  0.00  0.00     0.002 A 
ATOM     19  C   UNL d   1      26.423  -7.107  -1.272  0.00  0.00     0.037 A 
ATOM     20  C   UNL d   1      26.433  -7.764  -0.021  0.00  0.00     0.118 A 
BRANCH  20  21
ATOM     21  N   UNL d   1      25.271  -7.542   0.845  0.00  0.00    -0.115 N 
ATOM     22  O   UNL d   1      24.780  -8.515   1.414  0.00  0.00    -0.532 OA
ATOM     23  O   UNL d   1      24.876  -6.378   1.033  0.00  0.00    -0.532 OA
ENDBRANCH  20  21
ENDBRANCH  12  15
ENDBRANCH   9  11
ENDBRANCH   7   9
ENDBRANCH   4   7
BRANCH   1  24
ATOM     24  N   UNL d   1      28.456 -15.200   1.594  0.00  0.00    -0.325 N 
ATOM     25  C   UNL d   1      27.487 -15.646   0.674  0.00  0.00     0.251 C 
ATOM     26  O   UNL d   1      26.467 -15.012   0.398  0.00  0.00    -0.270 OA
ATOM     27  H   UNL d   1      29.309 -15.720   1.738  0.00  0.00     0.169 HD
BRANCH  25  28
ATOM     28  C   UNL d   1      27.812 -16.980  -0.048  0.00  0.00     0.217 C 
ATOM     29  C   UNL d   1      29.232 -16.830  -0.602  0.00  0.00     0.050 C 
BRANCH  28  30
ATOM     30  O   UNL d   1      26.833 -17.174  -1.091  0.00  0.00    -0.335 OA
BRANCH  30  31
ATOM     31  C   UNL d   1      25.503 -17.313  -0.791  0.00  0.00     0.091 A 
ATOM     32  C   UNL d   1      25.002 -18.304   0.056  0.00  0.00     0.038 A 
ATOM     33  C   UNL d   1      23.634 -18.500   0.227  0.00  0.00     0.003 A 
ATOM     34  C   UNL d   1      22.735 -17.607  -0.334  0.00  0.00     0.002 A 
ATOM     35  C   UNL d   1      23.210 -16.555  -1.118  0.00  0.00     0.026 A 
ATOM     36  C   UNL d   1      24.583 -16.425  -1.373  0.00  0.00     0.067 A 
ATOM     37 CL   UNL d   1      25.085 -15.131  -2.404  0.00  0.00    -0.081 Cl
ENDBRANCH  30  31
ENDBRANCH  28  30
ENDBRANCH  25  28
ENDBRANCH   1  24
TORSDOF 9
ENDMDL
MODEL 2
REMARK VINA RESULT:    -8.021      4.065      6.897
REMARK INTER + INTRA:         -13.156
REMARK INTER:                 -10.706
REMARK INTRA:                  -2.450
REMARK CONF_INDEPENDENT:        2.685
REMARK UNBOUND:                -2.450
REMARK  9 active torsions:
REMARK  status: ('A' for Active; 'I' for Inactive)
REMARK    1  A    between atoms: C_2  and  C_11 
REMARK    2  A    between atoms: C_2  and  O_3 
REMARK    3  A    between atoms: O_3  and  C_4 
REMARK       I    between atoms: C_11  and  N_13 
REMARK    4  A    between atoms: N_13  and  C_14 
REMARK    5  A    between atoms: C_17  and  N_18 
REMARK    6  A    between atoms: N_18  and  C_19 
REMARK    7  A    between atoms: C_19  and  N_21 
REMARK       I    between atoms: N_21  and  C_22 
REMARK    8  A    between atoms: C_22  and  C_24 
REMARK    9  A    between atoms: C_29  and  N_30 
ROOT
ATOM      1  C   UNL d   1      28.294 -13.919   3.048  0.00  0.00     0.034 A 
ATOM      2  C   UNL d   1      28.113 -12.553   2.778  0.00  0.00     0.032 A 
ATOM      3  C   UNL d   1      27.979 -11.593   3.842  0.00  0.00     0.032 A 
ATOM      4  C   UNL d   1      28.027 -12.005   5.183  0.00  0.00     0.034 A 
ATOM      5  C   UNL d   1      28.278 -13.358   5.353  0.00  0.00     0.032 A 
ATOM      6  C   UNL d   1      28.345 -14.303   4.356  0.00  0.00     0.032 A 
ENDROOT
BRANCH   4   7
ATOM      7  N   UNL d   1      27.848 -11.127   6.333  0.00  0.00    -0.333 N 
ATOM      8  H   UNL d   1      26.891 -11.062   6.668  0.00  0.00     0.168 HD
BRANCH   7   9
ATOM      9  C   UNL d   1      28.892 -10.523   7.115  0.00  0.00     0.179 C 
ATOM     10  S   UNL d   1      29.596  -9.002   6.874  0.00  0.00    -0.040 SA
BRANCH   9  11
ATOM     11  N   UNL d   1      29.342 -11.306   8.197  0.00  0.00    -0.299 N 
ATOM     12  C   UNL d   1      30.048 -12.517   8.029  0.00  0.00     0.260 C 
ATOM     13  O   UNL d   1      30.616 -12.888   7.004  0.00  0.00    -0.267 OA
ATOM     14  H   UNL d   1      28.819 -11.207   9.058  0.00  0.00     0.171 HD
BRANCH  12  15
ATOM     15  C   UNL d   1      30.247 -13.506   9.104  0.00  0.00     0.065 A 
ATOM     16  C   UNL d   1      31.492 -14.194   8.992  0.00  0.00     0.020 A 
ATOM     17  C   UNL d   1      31.743 -15.381   9.671  0.00  0.00     0.001 A 
ATOM     18  C   UNL d   1      30.788 -15.867  10.545  0.00  0.00     0.002 A 
ATOM     19  C   UNL d   1      29.568 -15.197  10.693  0.00  0.00     0.037 A 
ATOM     20  C   UNL d   1      29.281 -14.021   9.965  0.00  0.00     0.118 A 
BRANCH  20  21
ATOM     21  N   UNL d   1      27.952 -13.434  10.165  0.00  0.00    -0.115 N 
ATOM     22  O   UNL d   1      27.030 -14.184  10.479  0.00  0.00    -0.532 OA
ATOM     23  O   UNL d   1      27.824 -12.199  10.087  0.00  0.00    -0.532 OA
ENDBRANCH  20  21
ENDBRANCH  12  15
ENDBRANCH   9  11
ENDBRANCH   7   9
ENDBRANCH   4   7
BRANCH   1  24
ATOM     24  N   UNL d   1      28.558 -14.900   2.069  0.00  0.00    -0.325 N 
ATOM     25  C   UNL d   1      27.697 -15.156   0.983  0.00  0.00     0.251 C 
ATOM     26  O   UNL d   1      26.700 -14.478   0.730  0.00  0.00    -0.270 OA
ATOM     27  H   UNL d   1      29.400 -15.440   2.198  0.00  0.00     0.169 HD
BRANCH  25  28
ATOM     28  C   UNL d   1      28.120 -16.323   0.053  0.00  0.00     0.217 C 
ATOM     29  C   UNL d   1      29.522 -15.977  -0.455  0.00  0.00     0.050 C 
BRANCH  28  30
ATOM     30  O   UNL d   1      27.155 -16.414  -1.016  0.00  0.00    -0.335 OA
BRANCH  30  31
ATOM     31  C   UNL d   1      25.875 -16.839  -0.775  0.00  0.00     0.091 A 
ATOM     32  C   UNL d   1      25.558 -17.872   0.110  0.00  0.00     0.038 A 
ATOM     33  C   UNL d   1      24.262 -18.368   0.225  0.00  0.00     0.003 A 
ATOM     34  C   UNL d   1      23.222 -17.738  -0.439  0.00  0.00     0.002 A 
ATOM     35  C   UNL d   1      23.495 -16.650  -1.268  0.00  0.00     0.026 A 
ATOM     36  C   UNL d   1      24.817 -16.221  -1.462  0.00  0.00     0.067 A 
ATOM     37 CL   UNL d   1      25.077 -14.904  -2.552  0.00  0.00    -0.081 Cl
ENDBRANCH  30  31
ENDBRANCH  28  30
ENDBRANCH  25  28
ENDBRANCH   1  24
TORSDOF 9
ENDMDL
MODEL 3
REMARK VINA RESULT:    -7.892      3.964      6.747
REMARK INTER + INTRA:         -13.160
REMARK INTER:                 -10.576
REMARK INTRA:                  -2.583
REMARK CONF_INDEPENDENT:        2.685
REMARK UNBOUND:                -2.583
REMARK  9 active torsions:
REMARK  status: ('A' for Active; 'I' for Inactive)
REMARK    1  A    between atoms: C_2  and  C_11 
REMARK    2  A    between atoms: C_2  and  O_3 
REMARK    3  A    between atoms: O_3  and  C_4 
REMARK       I    between atoms: C_11  and  N_13 
REMARK    4  A    between atoms: N_13  and  C_14 
REMARK    5  A    between atoms: C_17  and  N_18 
REMARK    6  A    between atoms: N_18  and  C_19 
REMARK    7  A    between atoms: C_19  and  N_21 
REMARK       I    between atoms: N_21  and  C_22 
REMARK    8  A    between atoms: C_22  and  C_24 
REMARK    9  A    between atoms: C_29  and  N_30 
ROOT
ATOM      1  C   UNL d   1      28.040 -14.123   2.578  0.00  0.00     0.034 A 
ATOM      2  C   UNL d   1      28.049 -12.770   2.201  0.00  0.00     0.032 A 
ATOM      3  C   UNL d   1      27.957 -11.721   3.181  0.00  0.00     0.032 A 
ATOM      4  C   UNL d   1      27.855 -12.029   4.547  0.00  0.00     0.034 A 
ATOM      5  C   UNL d   1      27.924 -13.385   4.829  0.00  0.00     0.032 A 
ATOM      6  C   UNL d   1      27.947 -14.407   3.908  0.00  0.00     0.032 A 
ENDROOT
BRANCH   4   7
ATOM      7  N   UNL d   1      27.702 -11.050   5.615  0.00  0.00    -0.333 N 
ATOM      8  H   UNL d   1      26.777 -11.026   6.035  0.00  0.00     0.168 HD
BRANCH   7   9
ATOM      9  C   UNL d   1      28.752 -10.281   6.224  0.00  0.00     0.179 C 
ATOM     10  S   UNL d   1      29.390  -8.811   5.679  0.00  0.00    -0.040 SA
BRANCH   9  11
ATOM     11  N   UNL d   1      29.274 -10.839   7.410  0.00  0.00    -0.299 N 
ATOM     12  C   UNL d   1      28.642 -11.890   8.108  0.00  0.00     0.260 C 
ATOM     13  O   UNL d   1      27.777 -12.640   7.660  0.00  0.00    -0.267 OA
ATOM     14  H   UNL d   1      29.868 -10.230   7.958  0.00  0.00     0.171 HD
BRANCH  12  15
ATOM     15  C   UNL d   1      28.976 -12.273   9.492  0.00  0.00     0.065 A 
ATOM     16  C   UNL d   1      28.169 -13.347   9.973  0.00  0.00     0.020 A 
ATOM     17  C   UNL d   1      28.067 -13.643  11.328  0.00  0.00     0.001 A 
ATOM     18  C   UNL d   1      28.834 -12.928  12.230  0.00  0.00     0.002 A 
ATOM     19  C   UNL d   1      29.654 -11.886  11.780  0.00  0.00     0.037 A 
ATOM     20  C   UNL d   1      29.721 -11.540  10.413  0.00  0.00     0.118 A 
BRANCH  20  21
ATOM     21  N   UNL d   1      30.576 -10.400  10.066  0.00  0.00    -0.115 N 
ATOM     22  O   UNL d   1      30.040  -9.397   9.597  0.00  0.00    -0.532 OA
ATOM     23  O   UNL d   1      31.790 -10.459  10.327  0.00  0.00    -0.532 OA
ENDBRANCH  20  21
ENDBRANCH  12  15
ENDBRANCH   9  11
ENDBRANCH   7   9
ENDBRANCH   4   7
BRANCH   1  24
ATOM     24  N   UNL d   1      28.252 -15.201   1.693  0.00  0.00    -0.325 N 
ATOM     25  C   UNL d   1      27.407 -15.479   0.600  0.00  0.00     0.251 C 
ATOM     26  O   UNL d   1      26.478 -14.747   0.255  0.00  0.00    -0.270 OA
ATOM     27  H   UNL d   1      29.043 -15.794   1.898  0.00  0.00     0.169 HD
BRANCH  25  28
ATOM     28  C   UNL d   1      27.761 -16.751  -0.213  0.00  0.00     0.217 C 
ATOM     29  C   UNL d   1      29.137 -16.492  -0.834  0.00  0.00     0.050 C 
BRANCH  28  30
ATOM     30  O   UNL d   1      26.736 -16.943  -1.211  0.00  0.00    -0.335 OA
BRANCH  30  31
ATOM     31  C   UNL d   1      25.436 -17.177  -0.849  0.00  0.00     0.091 A 
ATOM     32  C   UNL d   1      25.047 -18.213   0.003  0.00  0.00     0.038 A 
ATOM     33  C   UNL d   1      23.706 -18.506   0.238  0.00  0.00     0.003 A 
ATOM     34  C   UNL d   1      22.721 -17.669  -0.261  0.00  0.00     0.002 A 
ATOM     35  C   UNL d   1      23.082 -16.575  -1.048  0.00  0.00     0.026 A 
ATOM     36  C   UNL d   1      24.429 -16.347  -1.369  0.00  0.00     0.067 A 
ATOM     37 CL   UNL d   1      24.788 -15.006  -2.399  0.00  0.00    -0.081 Cl
ENDBRANCH  30  31
ENDBRANCH  28  30
ENDBRANCH  25  28
ENDBRANCH   1  24
TORSDOF 9
ENDMDL
MODEL 4
REMARK VINA RESULT:    -7.622      4.481      6.617
REMARK INTER + INTRA:         -12.985
REMARK INTER:                 -10.306
REMARK INTRA:                  -2.679
REMARK CONF_INDEPENDENT:        2.685
REMARK UNBOUND:                -2.679
REMARK  9 active torsions:
REMARK  status: ('A' for Active; 'I' for Inactive)
REMARK    1  A    between atoms: C_2  and  C_11 
REMARK    2  A    between atoms: C_2  and  O_3 
REMARK    3  A    between atoms: O_3  and  C_4 
REMARK       I    between atoms: C_11  and  N_13 
REMARK    4  A    between atoms: N_13  and  C_14 
REMARK    5  A    between atoms: C_17  and  N_18 
REMARK    6  A    between atoms: N_18  and  C_19 
REMARK    7  A    between atoms: C_19  and  N_21 
REMARK       I    between atoms: N_21  and  C_22 
REMARK    8  A    between atoms: C_22  and  C_24 
REMARK    9  A    between atoms: C_29  and  N_30 
ROOT
ATOM      1  C   UNL d   1      26.143 -11.567  -4.796  0.00  0.00     0.034 A 
ATOM      2  C   UNL d   1      25.879 -10.623  -5.802  0.00  0.00     0.032 A 
ATOM      3  C   UNL d   1      25.468  -9.283  -5.478  0.00  0.00     0.032 A 
ATOM      4  C   UNL d   1      25.321  -8.886  -4.139  0.00  0.00     0.034 A 
ATOM      5  C   UNL d   1      25.670  -9.862  -3.217  0.00  0.00     0.032 A 
ATOM      6  C   UNL d   1      26.003 -11.166  -3.501  0.00  0.00     0.032 A 
ENDROOT
BRANCH   4   7
ATOM      7  N   UNL d   1      24.859  -7.576  -3.702  0.00  0.00    -0.333 N 
ATOM      8  H   UNL d   1      23.939  -7.316  -4.048  0.00  0.00     0.168 HD
BRANCH   7   9
ATOM      9  C   UNL d   1      25.482  -6.737  -2.715  0.00  0.00     0.179 C 
ATOM     10  S   UNL d   1      25.931  -5.114  -2.891  0.00  0.00    -0.040 SA
BRANCH   9  11
ATOM     11  N   UNL d   1      25.717  -7.367  -1.475  0.00  0.00    -0.299 N 
ATOM     12  C   UNL d   1      26.926  -8.025  -1.163  0.00  0.00     0.260 C 
ATOM     13  O   UNL d   1      27.997  -7.889  -1.752  0.00  0.00    -0.267 OA
ATOM     14  H   UNL d   1      24.893  -7.684  -0.980  0.00  0.00     0.171 HD
BRANCH  12  15
ATOM     15  C   UNL d   1      27.087  -8.951  -0.029  0.00  0.00     0.065 A 
ATOM     16  C   UNL d   1      27.761 -10.155  -0.395  0.00  0.00     0.020 A 
ATOM     17  C   UNL d   1      27.722 -11.294   0.402  0.00  0.00     0.001 A 
ATOM     18  C   UNL d   1      27.080 -11.234   1.626  0.00  0.00     0.002 A 
ATOM     19  C   UNL d   1      26.434 -10.057   2.020  0.00  0.00     0.037 A 
ATOM     20  C   UNL d   1      26.418  -8.913   1.193  0.00  0.00     0.118 A 
BRANCH  20  21
ATOM     21  N   UNL d   1      25.668  -7.754   1.689  0.00  0.00    -0.115 N 
ATOM     22  O   UNL d   1      24.779  -7.293   0.976  0.00  0.00    -0.532 OA
ATOM     23  O   UNL d   1      25.904  -7.333   2.835  0.00  0.00    -0.532 OA
ENDBRANCH  20  21
ENDBRANCH  12  15
ENDBRANCH   9  11
ENDBRANCH   7   9
ENDBRANCH   4   7
BRANCH   1  24
ATOM     24  N   UNL d   1      26.670 -12.856  -5.028  0.00  0.00    -0.325 N 
ATOM     25  C   UNL d   1      25.995 -14.039  -4.666  0.00  0.00     0.251 C 
ATOM     26  O   UNL d   1      24.847 -14.060  -4.220  0.00  0.00    -0.270 OA
ATOM     27  H   UNL d   1      27.584 -12.892  -5.452  0.00  0.00     0.169 HD
BRANCH  25  28
ATOM     28  C   UNL d   1      26.767 -15.358  -4.933  0.00  0.00     0.217 C 
ATOM     29  C   UNL d   1      27.708 -15.551  -3.740  0.00  0.00     0.050 C 
BRANCH  28  30
ATOM     30  O   UNL d   1      27.482 -15.212  -6.179  0.00  0.00    -0.335 OA
BRANCH  30  31
ATOM     31  C   UNL d   1      28.851 -15.261  -6.215  0.00  0.00     0.091 A 
ATOM     32  C   UNL d   1      29.599 -16.327  -5.707  0.00  0.00     0.038 A 
ATOM     33  C   UNL d   1      30.988 -16.279  -5.636  0.00  0.00     0.003 A 
ATOM     34  C   UNL d   1      31.672 -15.220  -6.211  0.00  0.00     0.002 A 
ATOM     35  C   UNL d   1      30.955 -14.178  -6.801  0.00  0.00     0.026 A 
ATOM     36  C   UNL d   1      29.552 -14.181  -6.775  0.00  0.00     0.067 A 
ATOM     37 CL   UNL d   1      28.738 -12.824  -7.473  0.00  0.00    -0.081 Cl
ENDBRANCH  30  31
ENDBRANCH  28  30
ENDBRANCH  25  28
ENDBRANCH   1  24
TORSDOF 9
ENDMDL
MODEL 5
REMARK VINA RESULT:    -7.464      6.961      9.246
REMARK INTER + INTRA:         -13.091
REMARK INTER:                 -10.148
REMARK INTRA:                  -2.942
REMARK CONF_INDEPENDENT:        2.685
REMARK UNBOUND:                -2.942
REMARK  9 active torsions:
REMARK  status: ('A' for Active; 'I' for Inactive)
REMARK    1  A    between atoms: C_2  and  C_11 
REMARK    2  A    between atoms: C_2  and  O_3 
REMARK    3  A    between atoms: O_3  and  C_4 
REMARK       I    between atoms: C_11  and  N_13 
REMARK    4  A    between atoms: N_13  and  C_14 
REMARK    5  A    between atoms: C_17  and  N_18 
REMARK    6  A    between atoms: N_18  and  C_19 
REMARK    7  A    between atoms: C_19  and  N_21 
REMARK       I    between atoms: N_21  and  C_22 
REMARK    8  A    between atoms: C_22  and  C_24 
REMARK    9  A    between atoms: C_29  and  N_30 
ROOT
ATOM      1  C   UNL d   1      30.910 -19.414  -1.354  0.00  0.00     0.034 A 
ATOM      2  C   UNL d   1      31.227 -19.802  -2.665  0.00  0.00     0.032 A 
ATOM      3  C   UNL d   1      31.384 -18.831  -3.715  0.00  0.00     0.032 A 
ATOM      4  C   UNL d   1      31.222 -17.462  -3.448  0.00  0.00     0.034 A 
ATOM      5  C   UNL d   1      30.979 -17.168  -2.115  0.00  0.00     0.032 A 
ATOM      6  C   UNL d   1      30.762 -18.081  -1.108  0.00  0.00     0.032 A 
ENDROOT
BRANCH   4   7
ATOM      7  N   UNL d   1      31.303 -16.402  -4.445  0.00  0.00    -0.333 N 
ATOM      8  H   UNL d   1      32.238 -16.033  -4.593  0.00  0.00     0.168 HD
BRANCH   7   9
ATOM      9  C   UNL d   1      30.252 -15.983  -5.331  0.00  0.00     0.179 C 
ATOM     10  S   UNL d   1      30.398 -15.580  -6.969  0.00  0.00    -0.040 SA
BRANCH   9  11
ATOM     11  N   UNL d   1      28.973 -15.927  -4.739  0.00  0.00    -0.299 N 
ATOM     12  C   UNL d   1      28.738 -15.360  -3.468  0.00  0.00     0.260 C 
ATOM     13  O   UNL d   1      29.492 -14.600  -2.864  0.00  0.00    -0.267 OA
ATOM     14  H   UNL d   1      28.317 -16.636  -5.042  0.00  0.00     0.171 HD
BRANCH  12  15
ATOM     15  C   UNL d   1      27.503 -15.568  -2.693  0.00  0.00     0.065 A 
ATOM     16  C   UNL d   1      27.758 -16.022  -1.364  0.00  0.00     0.020 A 
ATOM     17  C   UNL d   1      26.768 -16.602  -0.579  0.00  0.00     0.001 A 
ATOM     18  C   UNL d   1      25.476 -16.666  -1.070  0.00  0.00     0.002 A 
ATOM     19  C   UNL d   1      25.193 -16.204  -2.360  0.00  0.00     0.037 A 
ATOM     20  C   UNL d   1      26.204 -15.665  -3.187  0.00  0.00     0.118 A 
BRANCH  20  21
ATOM     21  N   UNL d   1      25.799 -15.258  -4.536  0.00  0.00    -0.115 N 
ATOM     22  O   UNL d   1      24.789 -14.566  -4.653  0.00  0.00    -0.532 OA
ATOM     23  O   UNL d   1      26.527 -15.560  -5.498  0.00  0.00    -0.532 OA
ENDBRANCH  20  21
ENDBRANCH  12  15
ENDBRANCH   9  11
ENDBRANCH   7   9
ENDBRANCH   4   7
BRANCH   1  24
ATOM     24  N   UNL d   1      30.864 -20.290  -0.249  0.00  0.00    -0.325 N 
ATOM     25  C   UNL d   1      31.283 -21.634  -0.314  0.00  0.00     0.251 C 
ATOM     26  O   UNL d   1      31.826 -22.131  -1.302  0.00  0.00    -0.270 OA
ATOM     27  H   UNL d   1      30.486 -19.908   0.605  0.00  0.00     0.169 HD
BRANCH  25  28
ATOM     28  C   UNL d   1      31.087 -22.460   0.984  0.00  0.00     0.217 C 
ATOM     29  C   UNL d   1      30.227 -23.667   0.596  0.00  0.00     0.050 C 
BRANCH  28  30
ATOM     30  O   UNL d   1      30.438 -21.615   1.958  0.00  0.00    -0.335 OA
BRANCH  30  31
ATOM     31  C   UNL d   1      30.910 -21.530   3.241  0.00  0.00     0.091 A 
ATOM     32  C   UNL d   1      30.165 -21.898   4.364  0.00  0.00     0.038 A 
ATOM     33  C   UNL d   1      30.625 -21.669   5.658  0.00  0.00     0.003 A 
ATOM     34  C   UNL d   1      31.913 -21.197   5.857  0.00  0.00     0.002 A 
ATOM     35  C   UNL d   1      32.713 -20.898   4.755  0.00  0.00     0.026 A 
ATOM     36  C   UNL d   1      32.206 -21.032   3.453  0.00  0.00     0.067 A 
ATOM     37 CL   UNL d   1      33.241 -20.582   2.143  0.00  0.00    -0.081 Cl
ENDBRANCH  30  31
ENDBRANCH  28  30
ENDBRANCH  25  28
ENDBRANCH   1  24
TORSDOF 9
ENDMDL
MODEL 6
REMARK VINA RESULT:    -7.227      6.192      8.644
REMARK INTER + INTRA:         -13.354
REMARK INTER:                  -9.912
REMARK INTRA:                  -3.442
REMARK CONF_INDEPENDENT:        2.685
REMARK UNBOUND:                -3.442
REMARK  9 active torsions:
REMARK  status: ('A' for Active; 'I' for Inactive)
REMARK    1  A    between atoms: C_2  and  C_11 
REMARK    2  A    between atoms: C_2  and  O_3 
REMARK    3  A    between atoms: O_3  and  C_4 
REMARK       I    between atoms: C_11  and  N_13 
REMARK    4  A    between atoms: N_13  and  C_14 
REMARK    5  A    between atoms: C_17  and  N_18 
REMARK    6  A    between atoms: N_18  and  C_19 
REMARK    7  A    between atoms: C_19  and  N_21 
REMARK       I    between atoms: N_21  and  C_22 
REMARK    8  A    between atoms: C_22  and  C_24 
REMARK    9  A    between atoms: C_29  and  N_30 
ROOT
ATOM      1  C   UNL d   1      28.694 -13.763  -6.963  0.00  0.00     0.034 A 
ATOM      2  C   UNL d   1      28.538 -12.557  -7.666  0.00  0.00     0.032 A 
ATOM      3  C   UNL d   1      27.625 -11.542  -7.213  0.00  0.00     0.032 A 
ATOM      4  C   UNL d   1      26.866 -11.735  -6.048  0.00  0.00     0.034 A 
ATOM      5  C   UNL d   1      27.137 -12.921  -5.384  0.00  0.00     0.032 A 
ATOM      6  C   UNL d   1      27.955 -13.934  -5.830  0.00  0.00     0.032 A 
ENDROOT
BRANCH   4   7
ATOM      7  N   UNL d   1      25.875 -10.799  -5.532  0.00  0.00    -0.333 N 
ATOM      8  H   UNL d   1      25.238 -10.431  -6.233  0.00  0.00     0.168 HD
BRANCH   7   9
ATOM      9  C   UNL d   1      25.614 -10.511  -4.148  0.00  0.00     0.179 C 
ATOM     10  S   UNL d   1      25.613  -8.990  -3.405  0.00  0.00    -0.040 SA
BRANCH   9  11
ATOM     11  N   UNL d   1      25.317 -11.642  -3.360  0.00  0.00    -0.299 N 
ATOM     12  C   UNL d   1      26.279 -12.293  -2.557  0.00  0.00     0.260 C 
ATOM     13  O   UNL d   1      27.357 -11.826  -2.197  0.00  0.00    -0.267 OA
ATOM     14  H   UNL d   1      24.541 -12.208  -3.678  0.00  0.00     0.171 HD
BRANCH  12  15
ATOM     15  C   UNL d   1      26.094 -13.638  -1.985  0.00  0.00     0.065 A 
ATOM     16  C   UNL d   1      26.662 -13.763  -0.682  0.00  0.00     0.020 A 
ATOM     17  C   UNL d   1      26.910 -15.002  -0.101  0.00  0.00     0.001 A 
ATOM     18  C   UNL d   1      26.517 -16.147  -0.771  0.00  0.00     0.002 A 
ATOM     19  C   UNL d   1      25.934 -16.050  -2.039  0.00  0.00     0.037 A 
ATOM     20  C   UNL d   1      25.730 -14.800  -2.663  0.00  0.00     0.118 A 
BRANCH  20  21
ATOM     21  N   UNL d   1      25.155 -14.825  -4.012  0.00  0.00    -0.115 N 
ATOM     22  O   UNL d   1      25.596 -15.647  -4.813  0.00  0.00    -0.532 OA
ATOM     23  O   UNL d   1      24.198 -14.075  -4.270  0.00  0.00    -0.532 OA
ENDBRANCH  20  21
ENDBRANCH  12  15
ENDBRANCH   9  11
ENDBRANCH   7   9
ENDBRANCH   4   7
BRANCH   1  24
ATOM     24  N   UNL d   1      29.655 -14.749  -7.270  0.00  0.00    -0.325 N 
ATOM     25  C   UNL d   1      31.020 -14.623  -6.943  0.00  0.00     0.251 C 
ATOM     26  O   UNL d   1      31.476 -13.699  -6.268  0.00  0.00    -0.270 OA
ATOM     27  H   UNL d   1      29.317 -15.559  -7.768  0.00  0.00     0.169 HD
BRANCH  25  28
ATOM     28  C   UNL d   1      31.935 -15.777  -7.430  0.00  0.00     0.217 C 
ATOM     29  C   UNL d   1      32.722 -15.225  -8.622  0.00  0.00     0.050 C 
BRANCH  28  30
ATOM     30  O   UNL d   1      31.093 -16.891  -7.796  0.00  0.00    -0.335 OA
BRANCH  30  31
ATOM     31  C   UNL d   1      30.824 -17.894  -6.903  0.00  0.00     0.091 A 
ATOM     32  C   UNL d   1      30.536 -17.670  -5.554  0.00  0.00     0.038 A 
ATOM     33  C   UNL d   1      30.405 -18.719  -4.648  0.00  0.00     0.003 A 
ATOM     34  C   UNL d   1      30.413 -20.027  -5.104  0.00  0.00     0.002 A 
ATOM     35  C   UNL d   1      30.615 -20.282  -6.460  0.00  0.00     0.026 A 
ATOM     36  C   UNL d   1      30.852 -19.224  -7.352  0.00  0.00     0.067 A 
ATOM     37 CL   UNL d   1      31.155 -19.627  -9.006  0.00  0.00    -0.081 Cl
ENDBRANCH  30  31
ENDBRANCH  28  30
ENDBRANCH  25  28
ENDBRANCH   1  24
TORSDOF 9
ENDMDL
MODEL 7
REMARK VINA RESULT:    -7.159      1.226      2.255
REMARK INTER + INTRA:         -12.891
REMARK INTER:                  -9.844
REMARK INTRA:                  -3.047
REMARK CONF_INDEPENDENT:        2.685
REMARK UNBOUND:                -3.047
REMARK  9 active torsions:
REMARK  status: ('A' for Active; 'I' for Inactive)
REMARK    1  A    between atoms: C_2  and  C_11 
REMARK    2  A    between atoms: C_2  and  O_3 
REMARK    3  A    between atoms: O_3  and  C_4 
REMARK       I    between atoms: C_11  and  N_13 
REMARK    4  A    between atoms: N_13  and  C_14 
REMARK    5  A    between atoms: C_17  and  N_18 
REMARK    6  A    between atoms: N_18  and  C_19 
REMARK    7  A    between atoms: C_19  and  N_21 
REMARK       I    between atoms: N_21  and  C_22 
REMARK    8  A    between atoms: C_22  and  C_24 
REMARK    9  A    between atoms: C_29  and  N_30 
ROOT
ATOM      1  C   UNL d   1      27.740 -13.701   2.264  0.00  0.00     0.034 A 
ATOM      2  C   UNL d   1      26.833 -12.792   1.695  0.00  0.00     0.032 A 
ATOM      3  C   UNL d   1      26.603 -11.500   2.282  0.00  0.00     0.032 A 
ATOM      4  C   UNL d   1      27.286 -11.115   3.447  0.00  0.00     0.034 A 
ATOM      5  C   UNL d   1      28.209 -12.046   3.897  0.00  0.00     0.032 A 
ATOM      6  C   UNL d   1      28.401 -13.311   3.391  0.00  0.00     0.032 A 
ENDROOT
BRANCH   4   7
ATOM      7  N   UNL d   1      27.088  -9.856   4.154  0.00  0.00    -0.333 N 
ATOM      8  H   UNL d   1      26.746  -9.956   5.105  0.00  0.00     0.168 HD
BRANCH   7   9
ATOM      9  C   UNL d   1      27.498  -8.553   3.705  0.00  0.00     0.179 C 
ATOM     10  S   UNL d   1      27.766  -7.182   4.661  0.00  0.00    -0.040 SA
BRANCH   9  11
ATOM     11  N   UNL d   1      27.701  -8.450   2.313  0.00  0.00    -0.299 N 
ATOM     12  C   UNL d   1      26.640  -8.349   1.387  0.00  0.00     0.260 C 
ATOM     13  O   UNL d   1      25.480  -8.038   1.646  0.00  0.00    -0.267 OA
ATOM     14  H   UNL d   1      28.565  -8.845   1.965  0.00  0.00     0.171 HD
BRANCH  12  15
ATOM     15  C   UNL d   1      26.795  -8.561  -0.063  0.00  0.00     0.065 A 
ATOM     16  C   UNL d   1      25.788  -7.897  -0.825  0.00  0.00     0.020 A 
ATOM     17  C   UNL d   1      25.530  -8.225  -2.152  0.00  0.00     0.001 A 
ATOM     18  C   UNL d   1      26.330  -9.165  -2.777  0.00  0.00     0.002 A 
ATOM     19  C   UNL d   1      27.342  -9.811  -2.059  0.00  0.00     0.037 A 
ATOM     20  C   UNL d   1      27.575  -9.528  -0.695  0.00  0.00     0.118 A 
BRANCH  20  21
ATOM     21  N   UNL d   1      28.630 -10.302  -0.034  0.00  0.00    -0.115 N 
ATOM     22  O   UNL d   1      29.366  -9.717   0.758  0.00  0.00    -0.532 OA
ATOM     23  O   UNL d   1      28.692 -11.527  -0.238  0.00  0.00    -0.532 OA
ENDBRANCH  20  21
ENDBRANCH  12  15
ENDBRANCH   9  11
ENDBRANCH   7   9
ENDBRANCH   4   7
BRANCH   1  24
ATOM     24  N   UNL d   1      28.112 -14.931   1.681  0.00  0.00    -0.325 N 
ATOM     25  C   UNL d   1      27.786 -15.285   0.357  0.00  0.00     0.251 C 
ATOM     26  O   UNL d   1      27.247 -14.517  -0.441  0.00  0.00    -0.270 OA
ATOM     27  H   UNL d   1      28.615 -15.571   2.278  0.00  0.00     0.169 HD
BRANCH  25  28
ATOM     28  C   UNL d   1      28.218 -16.709  -0.081  0.00  0.00     0.217 C 
ATOM     29  C   UNL d   1      29.630 -16.569  -0.659  0.00  0.00     0.050 C 
BRANCH  28  30
ATOM     30  O   UNL d   1      27.269 -17.183  -1.059  0.00  0.00    -0.335 OA
BRANCH  30  31
ATOM     31  C   UNL d   1      25.933 -17.257  -0.766  0.00  0.00     0.091 A 
ATOM     32  C   UNL d   1      25.407 -18.071   0.240  0.00  0.00     0.038 A 
ATOM     33  C   UNL d   1      24.034 -18.224   0.417  0.00  0.00     0.003 A 
ATOM     34  C   UNL d   1      23.154 -17.445  -0.318  0.00  0.00     0.002 A 
ATOM     35  C   UNL d   1      23.652 -16.560  -1.273  0.00  0.00     0.026 A 
ATOM     36  C   UNL d   1      25.032 -16.488  -1.521  0.00  0.00     0.067 A 
ATOM     37 CL   UNL d   1      25.564 -15.410  -2.765  0.00  0.00    -0.081 Cl
ENDBRANCH  30  31
ENDBRANCH  28  30
ENDBRANCH  25  28
ENDBRANCH   1  24
TORSDOF 9
ENDMDL
MODEL 8
REMARK VINA RESULT:    -7.121      3.958      5.826
REMARK INTER + INTRA:         -13.377
REMARK INTER:                  -9.806
REMARK INTRA:                  -3.571
REMARK CONF_INDEPENDENT:        2.685
REMARK UNBOUND:                -3.571
REMARK  9 active torsions:
REMARK  status: ('A' for Active; 'I' for Inactive)
REMARK    1  A    between atoms: C_2  and  C_11 
REMARK    2  A    between atoms: C_2  and  O_3 
REMARK    3  A    between atoms: O_3  and  C_4 
REMARK       I    between atoms: C_11  and  N_13 
REMARK    4  A    between atoms: N_13  and  C_14 
REMARK    5  A    between atoms: C_17  and  N_18 
REMARK    6  A    between atoms: N_18  and  C_19 
REMARK    7  A    between atoms: C_19  and  N_21 
REMARK       I    between atoms: N_21  and  C_22 
REMARK    8  A    between atoms: C_22  and  C_24 
REMARK    9  A    between atoms: C_29  and  N_30 
ROOT
ATOM      1  C   UNL d   1      26.504 -11.275  -4.934  0.00  0.00     0.034 A 
ATOM      2  C   UNL d   1      26.786 -10.071  -5.598  0.00  0.00     0.032 A 
ATOM      3  C   UNL d   1      26.388  -8.803  -5.047  0.00  0.00     0.032 A 
ATOM      4  C   UNL d   1      25.703  -8.742  -3.823  0.00  0.00     0.034 A 
ATOM      5  C   UNL d   1      25.530  -9.972  -3.207  0.00  0.00     0.032 A 
ATOM      6  C   UNL d   1      25.844 -11.200  -3.743  0.00  0.00     0.032 A 
ENDROOT
BRANCH   4   7
ATOM      7  N   UNL d   1      25.207  -7.519  -3.204  0.00  0.00    -0.333 N 
ATOM      8  H   UNL d   1      24.275  -7.244  -3.503  0.00  0.00     0.168 HD
BRANCH   7   9
ATOM      9  C   UNL d   1      25.818  -6.806  -2.116  0.00  0.00     0.179 C 
ATOM     10  S   UNL d   1      26.228  -5.164  -2.074  0.00  0.00    -0.040 SA
BRANCH   9  11
ATOM     11  N   UNL d   1      26.075  -7.591  -0.972  0.00  0.00    -0.299 N 
ATOM     12  C   UNL d   1      27.132  -8.523  -0.902  0.00  0.00     0.260 C 
ATOM     13  O   UNL d   1      28.110  -8.567  -1.645  0.00  0.00    -0.267 OA
ATOM     14  H   UNL d   1      25.279  -7.768  -0.373  0.00  0.00     0.171 HD
BRANCH  12  15
ATOM     15  C   UNL d   1      27.235  -9.570   0.131  0.00  0.00     0.065 A 
ATOM     16  C   UNL d   1      27.736 -10.802  -0.386  0.00  0.00     0.020 A 
ATOM     17  C   UNL d   1      27.598 -12.002   0.304  0.00  0.00     0.001 A 
ATOM     18  C   UNL d   1      27.031 -11.987   1.566  0.00  0.00     0.002 A 
ATOM     19  C   UNL d   1      26.555 -10.788   2.106  0.00  0.00     0.037 A 
ATOM     20  C   UNL d   1      26.638  -9.573   1.390  0.00  0.00     0.118 A 
BRANCH  20  21
ATOM     21  N   UNL d   1      26.062  -8.389   2.036  0.00  0.00    -0.115 N 
ATOM     22  O   UNL d   1      25.155  -7.798   1.454  0.00  0.00    -0.532 OA
ATOM     23  O   UNL d   1      26.456  -8.075   3.173  0.00  0.00    -0.532 OA
ENDBRANCH  20  21
ENDBRANCH  12  15
ENDBRANCH   9  11
ENDBRANCH   7   9
ENDBRANCH   4   7
BRANCH   1  24
ATOM     24  N   UNL d   1      26.969 -12.543  -5.343  0.00  0.00    -0.325 N 
ATOM     25  C   UNL d   1      28.308 -12.956  -5.197  0.00  0.00     0.251 C 
ATOM     26  O   UNL d   1      29.163 -12.298  -4.602  0.00  0.00    -0.270 OA
ATOM     27  H   UNL d   1      26.287 -13.146  -5.779  0.00  0.00     0.169 HD
BRANCH  25  28
ATOM     28  C   UNL d   1      28.644 -14.356  -5.775  0.00  0.00     0.217 C 
ATOM     29  C   UNL d   1      28.902 -14.149  -7.270  0.00  0.00     0.050 C 
BRANCH  28  30
ATOM     30  O   UNL d   1      27.518 -15.224  -5.527  0.00  0.00    -0.335 OA
BRANCH  30  31
ATOM     31  C   UNL d   1      26.862 -15.200  -4.325  0.00  0.00     0.091 A 
ATOM     32  C   UNL d   1      25.530 -14.804  -4.180  0.00  0.00     0.038 A 
ATOM     33  C   UNL d   1      24.940 -14.660  -2.927  0.00  0.00     0.003 A 
ATOM     34  C   UNL d   1      25.629 -15.054  -1.791  0.00  0.00     0.002 A 
ATOM     35  C   UNL d   1      26.934 -15.533  -1.911  0.00  0.00     0.026 A 
ATOM     36  C   UNL d   1      27.560 -15.576  -3.166  0.00  0.00     0.067 A 
ATOM     37 CL   UNL d   1      29.199 -16.124  -3.221  0.00  0.00    -0.081 Cl
ENDBRANCH  30  31
ENDBRANCH  28  30
ENDBRANCH  25  28
ENDBRANCH   1  24
TORSDOF 9
ENDMDL
MODEL 9
REMARK VINA RESULT:    -6.988      6.582     10.800
REMARK INTER + INTRA:         -12.979
REMARK INTER:                  -9.673
REMARK INTRA:                  -3.305
REMARK CONF_INDEPENDENT:        2.685
REMARK UNBOUND:                -3.305
REMARK  9 active torsions:
REMARK  status: ('A' for Active; 'I' for Inactive)
REMARK    1  A    between atoms: C_2  and  C_11 
REMARK    2  A    between atoms: C_2  and  O_3 
REMARK    3  A    between atoms: O_3  and  C_4 
REMARK       I    between atoms: C_11  and  N_13 
REMARK    4  A    between atoms: N_13  and  C_14 
REMARK    5  A    between atoms: C_17  and  N_18 
REMARK    6  A    between atoms: N_18  and  C_19 
REMARK    7  A    between atoms: C_19  and  N_21 
REMARK       I    between atoms: N_21  and  C_22 
REMARK    8  A    between atoms: C_22  and  C_24 
REMARK    9  A    between atoms: C_29  and  N_30 
ROOT
ATOM      1  C   UNL d   1      28.557 -15.487  -4.766  0.00  0.00     0.034 A 
ATOM      2  C   UNL d   1      28.817 -14.931  -6.029  0.00  0.00     0.032 A 
ATOM      3  C   UNL d   1      29.826 -15.482  -6.894  0.00  0.00     0.032 A 
ATOM      4  C   UNL d   1      30.579 -16.597  -6.491  0.00  0.00     0.034 A 
ATOM      5  C   UNL d   1      30.206 -17.119  -5.262  0.00  0.00     0.032 A 
ATOM      6  C   UNL d   1      29.291 -16.573  -4.391  0.00  0.00     0.032 A 
ENDROOT
BRANCH   4   7
ATOM      7  N   UNL d   1      31.660 -17.198  -7.262  0.00  0.00    -0.333 N 
ATOM      8  H   UNL d   1      32.428 -16.568  -7.473  0.00  0.00     0.168 HD
BRANCH   7   9
ATOM      9  C   UNL d   1      31.811 -18.593  -7.573  0.00  0.00     0.179 C 
ATOM     10  S   UNL d   1      31.655 -19.323  -9.092  0.00  0.00    -0.040 SA
BRANCH   9  11
ATOM     11  N   UNL d   1      32.137 -19.407  -6.468  0.00  0.00    -0.299 N 
ATOM     12  C   UNL d   1      31.168 -20.103  -5.713  0.00  0.00     0.260 C 
ATOM     13  O   UNL d   1      30.015 -20.347  -6.063  0.00  0.00    -0.267 OA
ATOM     14  H   UNL d   1      32.996 -19.173  -5.988  0.00  0.00     0.171 HD
BRANCH  12  15
ATOM     15  C   UNL d   1      31.428 -20.690  -4.387  0.00  0.00     0.065 A 
ATOM     16  C   UNL d   1      30.949 -22.029  -4.276  0.00  0.00     0.020 A 
ATOM     17  C   UNL d   1      30.775 -22.652  -3.045  0.00  0.00     0.001 A 
ATOM     18  C   UNL d   1      31.157 -21.982  -1.896  0.00  0.00     0.002 A 
ATOM     19  C   UNL d   1      31.654 -20.677  -1.979  0.00  0.00     0.037 A 
ATOM     20  C   UNL d   1      31.780 -20.014  -3.220  0.00  0.00     0.118 A 
BRANCH  20  21
ATOM     21  N   UNL d   1      32.268 -18.632  -3.180  0.00  0.00    -0.115 N 
ATOM     22  O   UNL d   1      33.080 -18.280  -4.033  0.00  0.00    -0.532 OA
ATOM     23  O   UNL d   1      31.788 -17.851  -2.339  0.00  0.00    -0.532 OA
ENDBRANCH  20  21
ENDBRANCH  12  15
ENDBRANCH   9  11
ENDBRANCH   7   9
ENDBRANCH   4   7
BRANCH   1  24
ATOM     24  N   UNL d   1      27.504 -15.086  -3.917  0.00  0.00    -0.325 N 
ATOM     25  C   UNL d   1      26.150 -15.106  -4.307  0.00  0.00     0.251 C 
ATOM     26  O   UNL d   1      25.756 -15.576  -5.376  0.00  0.00    -0.270 OA
ATOM     27  H   UNL d   1      27.773 -14.753  -3.003  0.00  0.00     0.169 HD
BRANCH  25  28
ATOM     28  C   UNL d   1      25.144 -14.557  -3.262  0.00  0.00     0.217 C 
ATOM     29  C   UNL d   1      25.152 -13.034  -3.421  0.00  0.00     0.050 C 
BRANCH  28  30
ATOM     30  O   UNL d   1      25.587 -14.975  -1.953  0.00  0.00    -0.335 OA
BRANCH  30  31
ATOM     31  C   UNL d   1      25.063 -16.092  -1.357  0.00  0.00     0.091 A 
ATOM     32  C   UNL d   1      23.694 -16.348  -1.265  0.00  0.00     0.038 A 
ATOM     33  C   UNL d   1      23.196 -17.422  -0.532  0.00  0.00     0.003 A 
ATOM     34  C   UNL d   1      24.069 -18.353   0.006  0.00  0.00     0.002 A 
ATOM     35  C   UNL d   1      25.444 -18.170  -0.140  0.00  0.00     0.026 A 
ATOM     36  C   UNL d   1      25.942 -17.030  -0.790  0.00  0.00     0.067 A 
ATOM     37 CL   UNL d   1      27.660 -16.846  -0.875  0.00  0.00    -0.081 Cl
ENDBRANCH  30  31
ENDBRANCH  28  30
ENDBRANCH  25  28
ENDBRANCH   1  24
TORSDOF 9
ENDMDL
