@<TRIPOS>MOLECULE
*****
 61 65 0 0 0
SMALL
GASTEIGER

@<TRIPOS>ATOM
      1 C           0.9175   -0.4342    0.9765 C.3     1  UNL1       -0.0431
      2 N           2.8416   -0.3216    0.4735 N.4     1  UNL1        0.2336
      3 C           3.7005    0.4230   -1.1064 C.3     1  UNL1       -0.0265
      4 C           4.3705   -0.5679   -2.0016 C.3     1  UNL1        0.0490
      5 C           3.9061   -1.8760   -1.5064 C.3     1  UNL1        0.2163
      6 N           2.4249   -1.5991   -1.9395 N.2     1  UNL1       -0.2452
      7 C           1.6146   -0.6857   -1.3300 C.2     1  UNL1        0.0371
      8 C           1.5216    1.1285   -0.6176 C.ar    1  UNL1        0.0342
      9 C           0.7624    1.7752   -1.4603 C.ar    1  UNL1       -0.0497
     10 C           0.2521    3.0132   -1.0183 C.ar    1  UNL1       -0.0609
     11 C           0.3986    3.5511    0.3101 C.ar    1  UNL1       -0.0583
     12 C           1.1047    2.9778    1.3245 C.ar    1  UNL1       -0.0195
     13 C           1.7967    1.8500    0.8908 C.ar    1  UNL1        0.1254
     14 O           2.5537    1.3110    1.9937 O.3     1  UNL1       -0.5061
     15 O           4.8047   -2.7868   -2.2557 O.3     1  UNL1       -0.4638
     16 C           4.5985   -4.1328   -2.1071 C.ar    1  UNL1        0.1289
     17 C           5.3051   -5.0476   -2.8829 C.ar    1  UNL1       -0.0195
     18 C           4.9664   -6.4121   -2.8314 C.ar    1  UNL1       -0.0583
     19 C           3.9359   -6.8639   -2.0093 C.ar    1  UNL1       -0.0612
     20 C           3.2819   -5.9600   -1.2010 C.ar    1  UNL1       -0.0530
     21 C           3.6709   -4.6193   -1.1995 C.ar    1  UNL1        0.0193
     22 C           3.0742   -3.6907   -0.2032 C.3     1  UNL1        0.0923
     23 N           2.7500   -4.3114    1.0848 N.2     1  UNL1       -0.2821
     24 C           3.7733   -4.8087    1.6803 C.2     1  UNL1        0.0335
     25 C           3.6189   -5.4161    2.9839 C.ar    1  UNL1        0.0341
     26 C           2.5046   -6.2123    3.2457 C.ar    1  UNL1       -0.0497
     27 C           2.2706   -6.6171    4.5509 C.ar    1  UNL1       -0.0609
     28 C           3.2119   -6.3256    5.5411 C.ar    1  UNL1       -0.0583
     29 C           4.3901   -5.6324    5.2333 C.ar    1  UNL1       -0.0195
     30 C           4.5593   -5.1128    3.9602 C.ar    1  UNL1        0.1254
     31 O           5.5920   -4.2680    3.6604 O.3     1  UNL1       -0.5061
     32 C           3.9531   -2.4101   -0.0535 C.3     1  UNL1        0.0864
     33 C           3.3579   -1.5657    1.0164 C.3     1  UNL1       -0.0213
     34 H           0.2189    0.3706    0.5941 H       1  UNL1        0.0777
     35 H           0.7981   -0.4559    2.0420 H       1  UNL1        0.0777
     36 H           0.3289   -1.2238    0.4652 H       1  UNL1        0.0777
     37 H           3.2275    0.3887    1.1218 H       1  UNL1        0.2031
     38 H           4.0501    1.4553   -0.9606 H       1  UNL1        0.0816
     39 H           2.9609    0.7119   -1.9094 H       1  UNL1        0.0816
     40 H           5.3484   -0.2874   -2.3953 H       1  UNL1        0.0376
     41 H           3.8713   -0.5772   -3.0278 H       1  UNL1        0.0376
     42 H           1.4187   -1.4709   -0.6064 H       1  UNL1        0.0834
     43 H           0.4625    1.2771   -2.3724 H       1  UNL1        0.0625
     44 H          -0.3655    3.5269   -1.7256 H       1  UNL1        0.0618
     45 H          -0.1279    4.4835    0.5329 H       1  UNL1        0.0619
     46 H           1.0614    3.3143    2.3636 H       1  UNL1        0.0654
     47 H           2.5199    1.7808    2.8615 H       1  UNL1        0.2922
     48 H           6.1095   -4.7264   -3.5393 H       1  UNL1        0.0654
     49 H           5.4881   -7.1331   -3.4541 H       1  UNL1        0.0619
     50 H           3.6491   -7.9102   -1.9692 H       1  UNL1        0.0618
     51 H           2.4851   -6.2864   -0.5369 H       1  UNL1        0.0622
     52 H           2.0970   -3.4532   -0.6273 H       1  UNL1        0.0602
     53 H           4.7945   -4.7419    1.2685 H       1  UNL1        0.0832
     54 H           1.8285   -6.5016    2.4447 H       1  UNL1        0.0625
     55 H           1.3644   -7.1656    4.7941 H       1  UNL1        0.0618
     56 H           3.0250   -6.6509    6.5613 H       1  UNL1        0.0619
     57 H           5.1458   -5.5034    5.9999 H       1  UNL1        0.0654
     58 H           6.1397   -4.1380    4.4534 H       1  UNL1        0.2922
     59 H           4.9678   -2.6913    0.3037 H       1  UNL1        0.0436
     60 H           3.9732   -1.3407    1.8997 H       1  UNL1        0.0820
     61 H           2.4768   -2.0519    1.4317 H       1  UNL1        0.0820
@<TRIPOS>UNITY_ATOM_ATTR
2 1
charge 1
@<TRIPOS>BOND
     1     1     2    1
     2     2     3    1
     3     3     4    1
     4     4     5    1
     5     5     6    1
     6     6     7    2
     7     7     8    1
     8     8     9   ar
     9     9    10   ar
    10    10    11   ar
    11    11    12   ar
    12    12    13   ar
    13     8    13   ar
    14    13    14    1
    15     5    15    1
    16    15    16    1
    17    16    17   ar
    18    17    18   ar
    19    18    19   ar
    20    19    20   ar
    21    20    21   ar
    22    16    21   ar
    23    21    22    1
    24    23    24    2
    25    24    25    1
    26    25    26   ar
    27    26    27   ar
    28    27    28   ar
    29    28    29   ar
    30    29    30   ar
    31    25    30   ar
    32    30    31    1
    33    22    32    1
    34     5    32    1
    35    32    33    1
    36     2    33    1
    37    22    23    1
    38     1    34    1
    39     1    35    1
    40     1    36    1
    41     2    37    1
    42     3    38    1
    43     3    39    1
    44     4    40    1
    45     4    41    1
    46     7    42    1
    47     9    43    1
    48    10    44    1
    49    11    45    1
    50    12    46    1
    51    14    47    1
    52    17    48    1
    53    18    49    1
    54    19    50    1
    55    20    51    1
    56    22    52    1
    57    24    53    1
    58    26    54    1
    59    27    55    1
    60    28    56    1
    61    29    57    1
    62    31    58    1
    63    32    59    1
    64    33    60    1
    65    33    61    1
