REMARK  9 active torsions:
REMARK  status: ('A' for Active; 'I' for Inactive)
REMARK    1  A    between atoms: C_2  and  O_3 
REMARK    2  A    between atoms: O_3  and  C_4 
REMARK    3  A    between atoms: C_10  and  C_11 
REMARK       I    between atoms: C_11  and  N_13 
REMARK    4  A    between atoms: N_13  and  C_14 
REMARK    5  A    between atoms: C_14  and  N_16 
REMARK    6  A    between atoms: N_16  and  N_17 
REMARK       I    between atoms: N_17  and  C_18 
REMARK    7  A    between atoms: C_18  and  C_20 
REMARK    8  A    between atoms: C_20  and  O_21 
REMARK    9  A    between atoms: O_21  and  C_22 
ROOT
ATOM      1  C   UNL d   1       1.783   2.784  -3.935  0.00  0.00     0.193 C 
ATOM      2  S   UNL d   1       2.260   3.865  -5.142  0.00  0.00    -0.039 SA
ENDROOT
BRANCH   1   3
ATOM      3  N   UNL d   1       2.653   1.906  -3.241  0.00  0.00    -0.298 N 
ATOM      4  C   UNL d   1       4.053   1.765  -3.424  0.00  0.00     0.260 C 
ATOM      5  O   UNL d   1       4.699   2.426  -4.242  0.00  0.00    -0.267 OA
ATOM      6  H   UNL d   1       2.251   1.283  -2.549  0.00  0.00     0.171 HD
BRANCH   4   7
ATOM      7  C   UNL d   1       4.876   0.796  -2.610  0.00  0.00     0.067 A 
ATOM      8  C   UNL d   1       6.271   0.749  -2.879  0.00  0.00     0.039 A 
ATOM      9  C   UNL d   1       7.125  -0.100  -2.171  0.00  0.00     0.012 A 
ATOM     10  C   UNL d   1       6.615  -0.920  -1.177  0.00  0.00     0.022 A 
ATOM     11 BR   UNL d   1       8.975  -0.152  -2.567  0.00  0.00    -0.051 Br
ATOM     12  C   UNL d   1       5.244  -0.891  -0.899  0.00  0.00     0.039 A 
ATOM     13  C   UNL d   1       4.373  -0.034  -1.603  0.00  0.00     0.084 A 
BRANCH  13  14
ATOM     14  O   UNL d   1       3.019  -0.053  -1.404  0.00  0.00    -0.350 OA
BRANCH  14  15
ATOM     15  C   UNL d   1       2.613  -0.048  -0.033  0.00  0.00     0.171 C 
ATOM     16  C   UNL d   1       1.096  -0.034  -0.031  0.00  0.00     0.034 C 
ENDBRANCH  14  15
ENDBRANCH  13  14
ENDBRANCH   4   7
ENDBRANCH   1   3
BRANCH   1  17
ATOM     17  N   UNL d   1       0.426   2.731  -3.561  0.00  0.00    -0.273 N 
ATOM     18  H   UNL d   1       0.021   2.116  -2.856  0.00  0.00     0.189 HD
BRANCH  17  19
ATOM     19  N   UNL d   1      -0.536   3.607  -4.237  0.00  0.00    -0.266 N 
ATOM     20  C   UNL d   1      -1.891   3.594  -3.913  0.00  0.00     0.260 C 
ATOM     21  O   UNL d   1      -2.321   2.841  -3.038  0.00  0.00    -0.269 OA
ATOM     22  H   UNL d   1      -0.133   4.215  -4.950  0.00  0.00     0.190 HD
BRANCH  20  23
ATOM     23  C   UNL d   1      -2.805   4.580  -4.725  0.00  0.00     0.280 C 
BRANCH  23  24
ATOM     24  O   UNL d   1      -4.172   4.492  -4.287  0.00  0.00    -0.342 OA
BRANCH  24  25
ATOM     25  C   UNL d   1      -5.099   5.307  -4.888  0.00  0.00     0.070 A 
ATOM     26  C   UNL d   1      -6.035   5.907  -4.040  0.00  0.00     0.038 A 
ATOM     27  C   UNL d   1      -7.049   6.722  -4.556  0.00  0.00     0.027 A 
ATOM     28  C   UNL d   1      -7.159   6.925  -5.933  0.00  0.00     0.040 A 
ATOM     29 CL   UNL d   1      -8.423   7.969  -6.482  0.00  0.00    -0.084 Cl
ATOM     30  C   UNL d   1      -6.263   6.293  -6.811  0.00  0.00    -0.038 A 
ATOM     31  C   UNL d   1      -6.354   6.440  -8.308  0.00  0.00     0.050 C 
ATOM     32  C   UNL d   1      -5.236   5.478  -6.269  0.00  0.00     0.045 A 
ENDBRANCH  24  25
ENDBRANCH  23  24
ENDBRANCH  20  23
ENDBRANCH  17  19
ENDBRANCH   1  17
TORSDOF 9
