REMARK  6 active torsions:
REMARK  status: ('A' for Active; 'I' for Inactive)
REMARK    1  A    between atoms: C_2  and  C_16 
REMARK    2  A    between atoms: N_3  and  N_4 
REMARK       I    between atoms: N_4  and  C_5 
REMARK    3  A    between atoms: C_5  and  C_7 
REMARK    4  A    between atoms: C_7  and  O_8 
REMARK    5  A    between atoms: O_8  and  C_9 
REMARK    6  A    between atoms: C_19  and  O_20 
ROOT
ATOM      1  N   UNL d   1       2.626   1.904  -1.415  0.00  0.00    -0.245 N 
ATOM      2  C   UNL d   1       3.386   2.843  -2.123  0.00  0.00     0.261 C 
ATOM      3  O   UNL d   1       4.620   2.840  -2.137  0.00  0.00    -0.269 OA
ATOM      4  H   UNL d   1       1.618   1.931  -1.468  0.00  0.00     0.192 HD
ENDROOT
BRANCH   1   5
ATOM      5  N   UNL d   1       3.260   0.912  -0.676  0.00  0.00    -0.176 NA
ATOM      6  C   UNL d   1       2.576  -0.002  -0.041  0.00  0.00     0.061 C 
ATOM      7  C   UNL d   1       1.062  -0.078   0.011  0.00  0.00     0.073 C 
BRANCH   6   8
ATOM      8  C   UNL d   1       3.293  -1.087   0.740  0.00  0.00    -0.010 A 
ATOM      9  C   UNL d   1       2.873  -2.426   0.639  0.00  0.00     0.016 A 
ATOM     10  C   UNL d   1       3.477  -3.440   1.400  0.00  0.00     0.037 A 
ATOM     11  C   UNL d   1       4.508  -3.117   2.272  0.00  0.00     0.065 A 
ATOM     12  C   UNL d   1       4.940  -1.799   2.386  0.00  0.00     0.037 A 
ATOM     13  C   UNL d   1       4.344  -0.783   1.616  0.00  0.00     0.016 A 
BRANCH  11  14
ATOM     14  O   UNL d   1       5.129  -4.060   3.038  0.00  0.00    -0.361 OA
ATOM     15  H   UNL d   1       4.769  -4.939   2.834  0.00  0.00     0.217 HD
ENDBRANCH  11  14
ENDBRANCH   6   8
ENDBRANCH   1   5
BRANCH   2  16
ATOM     16  C   UNL d   1       2.562   3.910  -2.898  0.00  0.00     0.280 C 
BRANCH  16  17
ATOM     17  O   UNL d   1       3.457   4.822  -3.555  0.00  0.00    -0.342 OA
BRANCH  17  18
ATOM     18  C   UNL d   1       2.891   5.763  -4.369  0.00  0.00     0.069 A 
ATOM     19  C   UNL d   1       1.892   6.646  -3.957  0.00  0.00     0.040 A 
ATOM     20  C   UNL d   1       1.400   7.609  -4.848  0.00  0.00     0.045 A 
ATOM     21  C   UNL d   1       1.927   7.698  -6.133  0.00  0.00     0.116 A 
ATOM     22  F   UNL d   1       1.438   8.606  -6.989  0.00  0.00    -0.206 F 
ATOM     23  C   UNL d   1       2.958   6.860  -6.537  0.00  0.00     0.045 A 
ATOM     24  C   UNL d   1       3.449   5.901  -5.646  0.00  0.00     0.040 A 
ENDBRANCH  17  18
ENDBRANCH  16  17
ENDBRANCH   2  16
TORSDOF 6
