REMARK  9 active torsions:
REMARK  status: ('A' for Active; 'I' for Inactive)
REMARK    1  A    between atoms: C_2  and  C_3 
REMARK    2  A    between atoms: C_3  and  N_4 
REMARK       I    between atoms: N_4  and  C_5 
REMARK    3  A    between atoms: C_5  and  C_7 
REMARK    4  A    between atoms: C_10  and  N_11 
REMARK       I    between atoms: N_11  and  C_12 
REMARK       I    between atoms: C_12  and  N_14 
REMARK    5  A    between atoms: N_14  and  C_15 
REMARK    6  A    between atoms: C_15  and  C_16 
REMARK    7  A    between atoms: C_16  and  N_17 
REMARK    8  A    between atoms: N_17  and  C_18 
REMARK    9  A    between atoms: C_23  and  N_24 
ROOT
ATOM      1  N   UNL d   1      11.106  -1.117   0.606  0.00  0.00    -0.309 N 
ATOM      2  C   UNL d   1      11.629   0.029   1.190  0.00  0.00     0.320 C 
ATOM      3  O   UNL d   1      10.987   0.919   1.734  0.00  0.00    -0.247 OA
ATOM      4  N   UNL d   1      13.000   0.131   1.185  0.00  0.00    -0.341 N 
ATOM      5  H   UNL d   1      11.732  -1.740   0.115  0.00  0.00     0.170 HD
ATOM      6  H   UNL d   1      13.552  -0.406   0.533  0.00  0.00     0.164 HD
ENDROOT
BRANCH   1   7
ATOM      7  C   UNL d   1       9.703  -1.416   0.557  0.00  0.00     0.036 A 
ATOM      8  C   UNL d   1       9.212  -2.544  -0.117  0.00  0.00     0.030 A 
ATOM      9  C   UNL d   1       7.812  -2.760  -0.237  0.00  0.00     0.019 A 
ATOM     10  C   UNL d   1       6.890  -1.884   0.362  0.00  0.00     0.032 A 
ATOM     11  C   UNL d   1       7.376  -0.798   1.071  0.00  0.00     0.019 A 
ATOM     12  C   UNL d   1       8.754  -0.586   1.167  0.00  0.00     0.030 A 
BRANCH  10  13
ATOM     13  C   UNL d   1       5.427  -2.190   0.387  0.00  0.00     0.251 C 
ATOM     14  N   UNL d   1       4.549  -1.116   0.266  0.00  0.00    -0.353 N 
ATOM     15  H   UNL d   1       4.904  -0.190   0.078  0.00  0.00     0.163 HD
ATOM     16  O   UNL d   1       5.060  -3.343   0.534  0.00  0.00    -0.268 OA
BRANCH  14  17
ATOM     17  C   UNL d   1       3.119  -1.349   0.308  0.00  0.00     0.149 C 
BRANCH  17  18
ATOM     18  C   UNL d   1       2.348  -0.081   0.084  0.00  0.00    -0.018 C 
ATOM     19  C   UNL d   1       1.005  -0.049   0.077  0.00  0.00     0.008 C 
ENDBRANCH  17  18
ENDBRANCH  14  17
ENDBRANCH  10  13
ENDBRANCH   1   7
BRANCH   4  20
ATOM     20  C   UNL d   1      13.583   1.341   1.792  0.00  0.00     0.144 C 
BRANCH  20  21
ATOM     21  C   UNL d   1      15.106   1.356   1.716  0.00  0.00     0.139 C 
BRANCH  21  22
ATOM     22  N   UNL d   1      15.703   2.598   2.197  0.00  0.00    -0.386 N 
ATOM     23  H   UNL d   1      15.114   3.275   2.678  0.00  0.00     0.159 HD
BRANCH  22  24
ATOM     24  C   UNL d   1      17.035   2.946   2.007  0.00  0.00     0.061 A 
ATOM     25  C   UNL d   1      17.719   3.457   3.142  0.00  0.00     0.031 A 
ATOM     26  C   UNL d   1      19.056   3.883   3.090  0.00  0.00     0.002 A 
ATOM     27  C   UNL d   1      19.780   3.741   1.918  0.00  0.00     0.003 A 
ATOM     28  C   UNL d   1      19.154   3.220   0.793  0.00  0.00     0.038 A 
ATOM     29  C   UNL d   1      17.794   2.833   0.822  0.00  0.00     0.129 A 
BRANCH  29  30
ATOM     30  N   UNL d   1      17.249   2.427  -0.486  0.00  0.00    -0.113 N 
ATOM     31  O   UNL d   1      18.055   1.985  -1.321  0.00  0.00    -0.532 OA
ATOM     32  O   UNL d   1      16.045   2.584  -0.727  0.00  0.00    -0.532 OA
ENDBRANCH  29  30
ENDBRANCH  22  24
ENDBRANCH  21  22
ENDBRANCH  20  21
ENDBRANCH   4  20
TORSDOF 9
