@<TRIPOS>MOLECULE
*****
 72 73 0 0 0
SMALL
GASTEIGER

@<TRIPOS>ATOM
      1 C           0.9699   -0.2670    0.4222 C.3     1  UNL1       -0.0611
      2 C           2.5035   -0.1779    0.3082 C.3     1  UNL1       -0.0270
      3 C           2.9946    1.0116    1.0912 C.ar    1  UNL1       -0.0051
      4 C           3.7272    0.7268    2.2555 C.ar    1  UNL1       -0.0411
      5 C           4.0509    1.7147    3.1875 C.ar    1  UNL1        0.0590
      6 C           4.7542    1.3708    4.4624 C.2     1  UNL1        0.1636
      7 C           5.1654   -0.0528    4.7744 C.3     1  UNL1       -0.0013
      8 O           4.9896    2.2756    5.2676 O.2     1  UNL1       -0.2922
      9 C           3.6509    3.0302    2.9140 C.ar    1  UNL1        0.1308
     10 O           3.8896    4.0785    3.7654 O.3     1  UNL1       -0.5059
     11 C           2.9646    3.3384    1.7328 C.ar    1  UNL1        0.0225
     12 C           2.6507    2.3407    0.7998 C.ar    1  UNL1        0.1277
     13 O           1.9462    2.7844   -0.2895 O.3     1  UNL1       -0.4855
     14 C           1.8981    1.9487   -1.4348 C.3     1  UNL1        0.1314
     15 C           0.9985    2.4275   -2.5083 C.ar    1  UNL1        0.0793
     16 C           0.3036    1.4616   -3.2489 C.ar    1  UNL1       -0.0370
     17 C          -0.3155    1.8719   -4.3785 C.ar    1  UNL1       -0.0578
     18 C          -0.1882    3.2035   -4.7040 C.ar    1  UNL1       -0.0312
     19 C           0.4095    4.1559   -3.8777 C.ar    1  UNL1        0.1260
     20 C           0.5137    5.6543   -4.0853 C.2     1  UNL1        0.2647
     21 O           1.1247    6.3310   -3.2519 O.2     1  UNL1       -0.2683
     22 N          -0.0725    6.2838   -5.1869 N.am    1  UNL1       -0.2993
     23 C          -0.8364    5.6838   -6.2543 C.3     1  UNL1        0.0035
     24 C           0.0965    7.7355   -5.2986 C.3     1  UNL1        0.0147
     25 C          -0.5762    8.2522   -6.5634 C.3     1  UNL1       -0.0371
     26 C          -0.4701    9.7252   -6.7616 C.3     1  UNL1       -0.0516
     27 C          -1.1952   10.0584   -8.0562 C.3     1  UNL1       -0.0530
     28 C          -1.1041   11.5441   -8.2830 C.3     1  UNL1       -0.0530
     29 C          -1.8142   11.9222   -9.5682 C.3     1  UNL1       -0.0526
     30 C          -1.6955   13.4199   -9.7532 C.3     1  UNL1       -0.0448
     31 C          -2.3812   13.8914  -11.0220 C.3     1  UNL1        0.0237
     32 C          -2.2854   15.3839  -11.2442 C.2     1  UNL1        0.2105
     33 N          -1.6226   16.1340  -10.3274 N.am    1  UNL1       -0.3293
     34 O          -2.7941   15.9275  -12.2352 O.2     1  UNL1       -0.2760
     35 N           1.0265    3.7431   -2.7689 N.ar    1  UNL1       -0.2436
     36 H           0.5733   -0.8873   -0.3875 H       1  UNL1        0.0233
     37 H           0.4526    0.7047    0.3679 H       1  UNL1        0.0233
     38 H           0.6690   -0.6613    1.3900 H       1  UNL1        0.0233
     39 H           2.8902   -0.1080   -0.7167 H       1  UNL1        0.0312
     40 H           2.9379   -1.1194    0.6533 H       1  UNL1        0.0312
     41 H           3.9875   -0.3114    2.4143 H       1  UNL1        0.0629
     42 H           4.9107   -0.7812    4.0089 H       1  UNL1        0.0309
     43 H           4.6713   -0.3756    5.6949 H       1  UNL1        0.0309
     44 H           6.2506   -0.0902    4.8990 H       1  UNL1        0.0309
     45 H           4.3760    3.7358    4.5486 H       1  UNL1        0.2922
     46 H           2.6499    4.3652    1.5504 H       1  UNL1        0.0691
     47 H           1.3751    1.0379   -1.2323 H       1  UNL1        0.0763
     48 H           2.8839    1.7193   -1.8495 H       1  UNL1        0.0763
     49 H           0.2925    0.4054   -3.0034 H       1  UNL1        0.0637
     50 H          -0.8263    1.2007   -5.0600 H       1  UNL1        0.0619
     51 H          -0.5478    3.3178   -5.6917 H       1  UNL1        0.0640
     52 H          -1.1297    4.6806   -6.1708 H       1  UNL1        0.0429
     53 H          -0.2641    5.7559   -7.1811 H       1  UNL1        0.0429
     54 H          -1.8267    6.1304   -6.2799 H       1  UNL1        0.0429
     55 H           1.1682    7.9710   -5.3072 H       1  UNL1        0.0464
     56 H          -0.3398    8.2068   -4.4088 H       1  UNL1        0.0464
     57 H          -1.6465    8.0107   -6.5430 H       1  UNL1        0.0280
     58 H          -0.1400    7.7607   -7.4432 H       1  UNL1        0.0280
     59 H           0.5835   10.0106   -6.8205 H       1  UNL1        0.0266
     60 H          -0.9329   10.2409   -5.9151 H       1  UNL1        0.0266
     61 H          -2.2473    9.7455   -8.0035 H       1  UNL1        0.0265
     62 H          -0.7480    9.5159   -8.9005 H       1  UNL1        0.0265
     63 H          -0.0491   11.8411   -8.3298 H       1  UNL1        0.0265
     64 H          -1.5526   12.0708   -7.4315 H       1  UNL1        0.0265
     65 H          -2.8687   11.6267   -9.5174 H       1  UNL1        0.0265
     66 H          -1.3625   11.3961  -10.4173 H       1  UNL1        0.0265
     67 H          -0.6323   13.6910   -9.7826 H       1  UNL1        0.0270
     68 H          -2.1381   13.9216   -8.8830 H       1  UNL1        0.0270
     69 H          -3.4437   13.6213  -10.9877 H       1  UNL1        0.0358
     70 H          -1.9345   13.3902  -11.8893 H       1  UNL1        0.0358
     71 H          -1.1825   15.7652   -9.4951 H       1  UNL1        0.1449
     72 H          -1.5627   17.1308  -10.4819 H       1  UNL1        0.1449
@<TRIPOS>BOND
     1     1     2    1
     2     2     3    1
     3     3     4   ar
     4     4     5   ar
     5     5     6    1
     6     6     7    1
     7     6     8    2
     8     5     9   ar
     9     9    10    1
    10     9    11   ar
    11    11    12   ar
    12     3    12   ar
    13    12    13    1
    14    13    14    1
    15    14    15    1
    16    15    16   ar
    17    16    17   ar
    18    17    18   ar
    19    18    19   ar
    20    19    20    1
    21    20    21    2
    22    20    22   am
    23    22    23    1
    24    22    24    1
    25    24    25    1
    26    25    26    1
    27    26    27    1
    28    27    28    1
    29    28    29    1
    30    29    30    1
    31    30    31    1
    32    31    32    1
    33    32    33   am
    34    32    34    2
    35    19    35   ar
    36    15    35   ar
    37     1    36    1
    38     1    37    1
    39     1    38    1
    40     2    39    1
    41     2    40    1
    42     4    41    1
    43     7    42    1
    44     7    43    1
    45     7    44    1
    46    10    45    1
    47    11    46    1
    48    14    47    1
    49    14    48    1
    50    16    49    1
    51    17    50    1
    52    18    51    1
    53    23    52    1
    54    23    53    1
    55    23    54    1
    56    24    55    1
    57    24    56    1
    58    25    57    1
    59    25    58    1
    60    26    59    1
    61    26    60    1
    62    27    61    1
    63    27    62    1
    64    28    63    1
    65    28    64    1
    66    29    65    1
    67    29    66    1
    68    30    67    1
    69    30    68    1
    70    31    69    1
    71    31    70    1
    72    33    71    1
    73    33    72    1
