@<TRIPOS>MOLECULE
*****
 26 26 0 0 0
SMALL
GASTEIGER

@<TRIPOS>ATOM
      1 N           1.1299   -0.0644    0.0269 N.3     1  UNL1       -0.2544
      2 N           2.5404   -0.0700   -0.0693 N.am    1  UNL1       -0.2535
      3 C           3.1622    0.8577   -0.9020 C.2     1  UNL1        0.2278
      4 O           2.5359    1.6248   -1.6385 O.2     1  UNL1       -0.2745
      5 C           4.6840    0.8281   -0.8593 C.3     1  UNL1        0.0406
      6 C           5.2419    1.8750   -1.8259 C.3     1  UNL1        0.0174
      7 N           6.7063    1.8941   -1.8637 N.pl3   1  UNL1       -0.3433
      8 C           7.3656    2.8099   -2.6749 C.ar    1  UNL1        0.0286
      9 C           6.9476    4.1441   -2.7391 C.ar    1  UNL1       -0.0394
     10 C           7.5682    5.0706   -3.5799 C.ar    1  UNL1       -0.0402
     11 C           8.6133    4.6702   -4.4071 C.ar    1  UNL1        0.0594
     12 CL          9.3367    5.8673   -5.4211 Cl      1  UNL1       -0.0820
     13 C           9.0332    3.3369   -4.3837 C.ar    1  UNL1        0.0610
     14 CL         10.2879    2.7591   -5.4267 Cl      1  UNL1       -0.0820
     15 C           8.4194    2.4177   -3.5124 C.ar    1  UNL1       -0.0211
     16 H           0.7930   -0.8244    0.6174 H       1  UNL1        0.1405
     17 H           0.7464   -0.2242   -0.9115 H       1  UNL1        0.1405
     18 H           3.0847   -0.6419    0.5731 H       1  UNL1        0.1687
     19 H           5.0308   -0.1731   -1.1377 H       1  UNL1        0.0374
     20 H           5.0223    1.0394    0.1616 H       1  UNL1        0.0374
     21 H           4.8614    2.8567   -1.5231 H       1  UNL1        0.0466
     22 H           4.8637    1.6747   -2.8371 H       1  UNL1        0.0466
     23 H           7.2439    1.1765   -1.3935 H       1  UNL1        0.1461
     24 H           6.1472    4.4953   -2.0938 H       1  UNL1        0.0636
     25 H           7.2225    6.1009   -3.5777 H       1  UNL1        0.0633
     26 H           8.7517    1.3823   -3.5206 H       1  UNL1        0.0651
@<TRIPOS>BOND
     1     1     2    1
     2     2     3   am
     3     3     4    2
     4     3     5    1
     5     5     6    1
     6     6     7    1
     7     7     8    1
     8     8     9   ar
     9     9    10   ar
    10    10    11   ar
    11    11    12    1
    12    11    13   ar
    13    13    14    1
    14    13    15   ar
    15     8    15   ar
    16     1    16    1
    17     1    17    1
    18     2    18    1
    19     5    19    1
    20     5    20    1
    21     6    21    1
    22     6    22    1
    23     7    23    1
    24     9    24    1
    25    10    25    1
    26    15    26    1
