REMARK  7 active torsions:
REMARK  status: ('A' for Active; 'I' for Inactive)
REMARK    1  A    between atoms: O_2  and  C_3 
REMARK    2  A    between atoms: C_6  and  C_7 
REMARK       I    between atoms: C_7  and  N_9 
REMARK    3  A    between atoms: N_9  and  C_10 
REMARK    4  A    between atoms: C_10  and  N_12 
REMARK    5  A    between atoms: N_12  and  C_13 
REMARK    6  A    between atoms: C_16  and  N_17 
REMARK       I    between atoms: N_20  and  C_21 
REMARK    7  A    between atoms: C_29  and  O_30 
ROOT
ATOM      1  N   UNL d   1       5.187   4.787   7.029  0.00  0.00    -0.333 N 
ATOM      2  H   UNL d   1       4.439   4.202   7.382  0.00  0.00     0.168 HD
ENDROOT
BRANCH   1   3
ATOM      3  C   UNL d   1       5.784   4.502   5.769  0.00  0.00     0.179 C 
ATOM      4  S   UNL d   1       7.348   5.017   5.369  0.00  0.00    -0.040 SA
BRANCH   3   5
ATOM      5  N   UNL d   1       4.995   3.712   4.889  0.00  0.00    -0.299 N 
ATOM      6  C   UNL d   1       5.359   3.352   3.565  0.00  0.00     0.257 C 
ATOM      7  O   UNL d   1       6.382   3.763   2.994  0.00  0.00    -0.267 OA
ATOM      8  H   UNL d   1       4.106   3.378   5.235  0.00  0.00     0.171 HD
BRANCH   6   9
ATOM      9  C   UNL d   1       4.516   2.487   2.688  0.00  0.00     0.035 A 
ATOM     10  C   UNL d   1       4.942   2.238   1.368  0.00  0.00     0.020 A 
ATOM     11  C   UNL d   1       4.145   1.521   0.458  0.00  0.00     0.040 A 
ATOM     12  C   UNL d   1       2.920   0.949   0.850  0.00  0.00     0.101 A 
ATOM     13  C   UNL d   1       2.514   1.171   2.190  0.00  0.00     0.102 A 
ATOM     14  C   UNL d   1       3.311   1.935   3.079  0.00  0.00     0.056 A 
BRANCH  12  15
ATOM     15  O   UNL d   1       2.451   0.027  -0.061  0.00  0.00    -0.353 OA
ATOM     16  C   UNL d   1       1.127   0.049  -0.593  0.00  0.00     0.210 C 
ENDBRANCH  12  15
BRANCH  13  17
ATOM     17  O   UNL d   1       1.429   0.724   2.905  0.00  0.00    -0.353 OA
ATOM     18  C   UNL d   1       0.461   0.057   2.156  0.00  0.00     0.210 C 
ENDBRANCH  13  17
ENDBRANCH   6   9
ENDBRANCH   3   5
ENDBRANCH   1   3
BRANCH   1  19
ATOM     19  C   UNL d   1       5.731   5.735   7.984  0.00  0.00     0.034 A 
ATOM     20  C   UNL d   1       5.780   5.506   9.364  0.00  0.00     0.032 A 
ATOM     21  C   UNL d   1       6.320   6.495  10.242  0.00  0.00     0.031 A 
ATOM     22  C   UNL d   1       6.849   7.716   9.783  0.00  0.00     0.030 A 
ATOM     23  C   UNL d   1       6.761   7.934   8.412  0.00  0.00     0.031 A 
ATOM     24  C   UNL d   1       6.201   6.978   7.546  0.00  0.00     0.032 A 
BRANCH  22  25
ATOM     25  N   UNL d   1       7.423   8.640  10.633  0.00  0.00    -0.378 N 
ATOM     26  C   UNL d   1       8.610   8.313  11.439  0.00  0.00     0.143 C 
ATOM     27  C   UNL d   1       9.791   9.256  11.091  0.00  0.00     0.145 C 
ATOM     28  N   UNL d   1       9.401  10.670  11.203  0.00  0.00    -0.349 N 
ATOM     29  C   UNL d   1       9.995  11.646  11.985  0.00  0.00     0.215 C 
ATOM     30  C   UNL d   1       8.227  10.998  10.369  0.00  0.00     0.145 C 
ATOM     31  C   UNL d   1      11.203  11.310  12.838  0.00  0.00     0.117 C 
ATOM     32  O   UNL d   1       9.564  12.803  12.019  0.00  0.00    -0.274 OA
ATOM     33  C   UNL d   1       7.030  10.062  10.668  0.00  0.00     0.143 C 
ENDBRANCH  22  25
ENDBRANCH   1  19
TORSDOF 7
