REMARK  6 active torsions:
REMARK  status: ('A' for Active; 'I' for Inactive)
REMARK    1  A    between atoms: O_2  and  C_3 
REMARK    2  A    between atoms: C_6  and  N_7 
REMARK    3  A    between atoms: N_7  and  S_8 
REMARK    4  A    between atoms: S_8  and  C_11 
REMARK    5  A    between atoms: C_14  and  N_15 
REMARK       I    between atoms: N_15  and  C_16 
REMARK    6  A    between atoms: C_16  and  C_18 
ROOT
ATOM      1  C   UNL d   1       6.389  -5.133   5.391  0.00  0.00     0.080 A 
ATOM      2  C   UNL d   1       6.533  -6.495   5.698  0.00  0.00     0.027 A 
ATOM      3  C   UNL d   1       7.365  -6.925   6.814  0.00  0.00     0.031 A 
ATOM      4  C   UNL d   1       8.130  -6.008   7.607  0.00  0.00     0.034 A 
ATOM      5  C   UNL d   1       7.948  -4.672   7.217  0.00  0.00     0.031 A 
ATOM      6  C   UNL d   1       7.109  -4.231   6.153  0.00  0.00     0.027 A 
ENDROOT
BRANCH   4   7
ATOM      7  N   UNL d   1       9.054  -6.385   8.781  0.00  0.00    -0.324 N 
ATOM      8  C   UNL d   1       9.790  -5.410   9.627  0.00  0.00     0.262 C 
ATOM      9  O   UNL d   1       9.794  -4.214   9.312  0.00  0.00    -0.270 OA
ATOM     10  H   UNL d   1       9.143  -7.395   8.894  0.00  0.00     0.169 HD
BRANCH   8  11
ATOM     11  C   UNL d   1      10.860  -5.736  10.899  0.00  0.00     0.201 C 
ATOM     12  C   UNL d   1      12.061  -5.698  10.299  0.00  0.00     0.124 C 
ATOM     13  C   UNL d   1      12.955  -6.271  11.334  0.00  0.00     0.171 C 
ATOM     14  O   UNL d   1      13.080  -7.485  11.551  0.00  0.00    -0.292 OA
ATOM     15  C   UNL d   1      13.422  -5.346  12.320  0.00  0.00     0.044 A 
ATOM     16  C   UNL d   1      14.758  -5.377  12.812  0.00  0.00     0.018 A 
ATOM     17  C   UNL d   1      12.401  -4.517  12.766  0.00  0.00     0.084 A 
ATOM     18  C   UNL d   1      15.171  -4.493  13.796  0.00  0.00     0.001 A 
ATOM     19  C   UNL d   1      14.247  -3.527  14.192  0.00  0.00     0.003 A 
ATOM     20  C   UNL d   1      12.866  -3.541  13.703  0.00  0.00     0.038 A 
ATOM     21  O   UNL d   1      11.030  -4.735  12.201  0.00  0.00    -0.325 OA
ENDBRANCH   8  11
ENDBRANCH   4   7
BRANCH   1  22
ATOM     22  S   UNL d   1       5.163  -4.562   4.199  0.00  0.00     0.263 S 
ATOM     23  O   UNL d   1       3.961  -4.331   4.957  0.00  0.00    -0.200 OA
ATOM     24  O   UNL d   1       5.178  -5.512   3.092  0.00  0.00    -0.200 OA
BRANCH  22  25
ATOM     25  N   UNL d   1       5.679  -3.074   3.561  0.00  0.00    -0.281 N 
ATOM     26  H   UNL d   1       6.502  -2.625   3.947  0.00  0.00     0.179 HD
BRANCH  25  27
ATOM     27  C   UNL d   1       4.818  -2.296   2.696  0.00  0.00     0.042 A 
ATOM     28  C   UNL d   1       5.221  -1.019   2.278  0.00  0.00     0.033 A 
ATOM     29  C   UNL d   1       4.380  -0.229   1.467  0.00  0.00     0.039 A 
ATOM     30  C   UNL d   1       3.166  -0.729   0.992  0.00  0.00     0.068 A 
ATOM     31  C   UNL d   1       2.777  -2.006   1.376  0.00  0.00     0.039 A 
ATOM     32  C   UNL d   1       3.599  -2.777   2.213  0.00  0.00     0.033 A 
BRANCH  30  33
ATOM     33  O   UNL d   1       2.507   0.052   0.084  0.00  0.00    -0.356 OA
ATOM     34  C   UNL d   1       1.089  -0.076   0.035  0.00  0.00     0.210 C 
ENDBRANCH  30  33
ENDBRANCH  25  27
ENDBRANCH  22  25
ENDBRANCH   1  22
TORSDOF 6
