REMARK  5 active torsions:
REMARK  status: ('A' for Active; 'I' for Inactive)
REMARK       I    between atoms: C_2  and  N_3 
REMARK    1  A    between atoms: C_2  and  C_15 
REMARK    2  A    between atoms: N_3  and  N_4 
REMARK    3  A    between atoms: C_5  and  C_6 
REMARK    4  A    between atoms: C_15  and  O_16 
REMARK    5  A    between atoms: C_15  and  C_17 
ROOT
ATOM      1  O   UNL d   1       1.001   0.063   0.073  0.00  0.00    -0.268 OA
ATOM      2  C   UNL d   1       2.232   0.100  -0.062  0.00  0.00     0.271 C 
ATOM      3  N   UNL d   1       2.875   1.153  -0.707  0.00  0.00    -0.245 N 
ATOM      4  H   UNL d   1       3.837   1.061  -1.019  0.00  0.00     0.192 HD
ENDROOT
BRANCH   3   5
ATOM      5  N   UNL d   1       2.198   2.305  -1.033  0.00  0.00    -0.182 NA
ATOM      6  C   UNL d   1       2.917   3.249  -1.552  0.00  0.00     0.168 C 
BRANCH   6   7
ATOM      7  C   UNL d   1       2.293   4.405  -2.138  0.00  0.00     0.052 A 
ATOM      8  C   UNL d   1       2.623   4.988  -3.346  0.00  0.00     0.044 A 
ATOM      9  C   UNL d   1       1.635   5.955  -3.658  0.00  0.00    -0.007 A 
ATOM     10  C   UNL d   1       1.396   6.762  -4.786  0.00  0.00     0.014 A 
ATOM     11  C   UNL d   1       0.756   6.012  -2.578  0.00  0.00     0.043 A 
ATOM     12  C   UNL d   1       0.277   7.597  -4.805  0.00  0.00     0.001 A 
ATOM     13  C   UNL d   1      -0.582   7.651  -3.710  0.00  0.00     0.002 A 
ATOM     14  C   UNL d   1      -0.353   6.871  -2.568  0.00  0.00     0.030 A 
ATOM     15  N   UNL d   1       1.196   5.083  -1.653  0.00  0.00    -0.354 N 
ATOM     16  H   UNL d   1       0.742   4.888  -0.769  0.00  0.00     0.166 HD
ENDBRANCH   6   7
ENDBRANCH   3   5
BRANCH   2  17
ATOM     17  C   UNL d   1       3.121  -1.074   0.496  0.00  0.00     0.244 C 
BRANCH  17  18
ATOM     18  O   UNL d   1       2.800  -2.317  -0.133  0.00  0.00    -0.381 OA
ATOM     19  H   UNL d   1       2.979  -2.218  -1.082  0.00  0.00     0.211 HD
ENDBRANCH  17  18
BRANCH  17  20
ATOM     20  C   UNL d   1       4.635  -0.880   0.515  0.00  0.00    -0.021 C 
ATOM     21  C   UNL d   1       5.524  -1.967   0.444  0.00  0.00     0.010 C 
ATOM     22  C   UNL d   1       6.905  -1.757   0.505  0.00  0.00     0.001 C 
ATOM     23  C   UNL d   1       7.417  -0.461   0.504  0.00  0.00     0.000 C 
ATOM     24  C   UNL d   1       6.554   0.619   0.597  0.00  0.00     0.001 C 
ATOM     25  C   UNL d   1       5.191   0.391   0.724  0.00  0.00     0.010 C 
ENDBRANCH  17  20
ENDBRANCH   2  17
TORSDOF 5
