REMARK  10 active torsions:
REMARK  status: ('A' for Active; 'I' for Inactive)
REMARK    1  A    between atoms: O_2  and  C_3 
REMARK    2  A    between atoms: C_3  and  C_4 
REMARK    3  A    between atoms: C_4  and  O_5 
REMARK    4  A    between atoms: O_5  and  C_6 
REMARK    5  A    between atoms: C_11  and  N_12 
REMARK       I    between atoms: N_12  and  C_13 
REMARK       I    between atoms: C_13  and  N_15 
REMARK    6  A    between atoms: N_15  and  C_16 
REMARK    7  A    between atoms: C_16  and  C_17 
REMARK    8  A    between atoms: C_17  and  N_18 
REMARK       I    between atoms: N_18  and  C_19 
REMARK    9  A    between atoms: C_19  and  C_21 
REMARK   10  A    between atoms: C_24  and  O_25 
ROOT
ATOM      1  N   UNL d   1       6.516   1.744  -1.048  0.00  0.00    -0.306 N 
ATOM      2  C   UNL d   1       5.204   1.879  -1.496  0.00  0.00     0.320 C 
ATOM      3  O   UNL d   1       4.410   2.719  -1.073  0.00  0.00    -0.247 OA
ATOM      4  N   UNL d   1       4.785   0.850  -2.333  0.00  0.00    -0.341 N 
ATOM      5  H   UNL d   1       7.206   1.495  -1.740  0.00  0.00     0.171 HD
ATOM      6  H   UNL d   1       5.442   0.428  -2.968  0.00  0.00     0.164 HD
ENDROOT
BRANCH   4   7
ATOM      7  C   UNL d   1       3.380   0.390  -2.365  0.00  0.00     0.144 C 
BRANCH   7   8
ATOM      8  C   UNL d   1       2.906  -0.256  -3.671  0.00  0.00     0.142 C 
BRANCH   8   9
ATOM      9  N   UNL d   1       1.489  -0.647  -3.705  0.00  0.00    -0.355 N 
ATOM     10  C   UNL d   1       0.979  -1.294  -4.819  0.00  0.00     0.251 C 
ATOM     11  O   UNL d   1       1.675  -1.571  -5.799  0.00  0.00    -0.268 OA
ATOM     12  H   UNL d   1       0.911  -0.546  -2.879  0.00  0.00     0.162 HD
BRANCH  10  13
ATOM     13  C   UNL d   1      -0.470  -1.658  -4.838  0.00  0.00     0.032 A 
ATOM     14  C   UNL d   1      -0.876  -2.849  -5.469  0.00  0.00     0.020 A 
ATOM     15  C   UNL d   1      -2.236  -3.129  -5.670  0.00  0.00     0.037 A 
ATOM     16  C   UNL d   1      -3.192  -2.245  -5.184  0.00  0.00     0.065 A 
ATOM     17  C   UNL d   1      -2.807  -1.066  -4.553  0.00  0.00     0.037 A 
ATOM     18  C   UNL d   1      -1.447  -0.766  -4.382  0.00  0.00     0.020 A 
BRANCH  16  19
ATOM     19  O   UNL d   1      -4.529  -2.494  -5.299  0.00  0.00    -0.361 OA
ATOM     20  H   UNL d   1      -4.661  -3.393  -5.645  0.00  0.00     0.217 HD
ENDBRANCH  16  19
ENDBRANCH  10  13
ENDBRANCH   8   9
ENDBRANCH   7   8
ENDBRANCH   4   7
BRANCH   1  21
ATOM     21  C   UNL d   1       7.018   2.229   0.215  0.00  0.00     0.069 A 
ATOM     22  C   UNL d   1       8.392   2.561   0.297  0.00  0.00     0.032 A 
ATOM     23  C   UNL d   1       8.960   3.114   1.465  0.00  0.00     0.002 A 
ATOM     24  C   UNL d   1       8.171   3.338   2.583  0.00  0.00     0.003 A 
ATOM     25  C   UNL d   1       6.839   2.935   2.554  0.00  0.00     0.039 A 
ATOM     26  C   UNL d   1       6.258   2.371   1.395  0.00  0.00     0.095 A 
BRANCH  26  27
ATOM     27  O   UNL d   1       4.936   2.079   1.586  0.00  0.00    -0.347 OA
BRANCH  27  28
ATOM     28  C   UNL d   1       4.435   0.826   1.130  0.00  0.00     0.201 C 
BRANCH  28  29
ATOM     29  C   UNL d   1       2.920   0.979   0.948  0.00  0.00     0.193 C 
BRANCH  29  30
ATOM     30  O   UNL d   1       2.377  -0.207   0.369  0.00  0.00    -0.394 OA
ATOM     31  C   UNL d   1       0.989  -0.085   0.101  0.00  0.00     0.201 C 
ENDBRANCH  29  30
ENDBRANCH  28  29
ENDBRANCH  27  28
ENDBRANCH  26  27
ENDBRANCH   1  21
TORSDOF 10
