@<TRIPOS>MOLECULE
*****
 59 62 0 0 0
SMALL
GASTEIGER

@<TRIPOS>ATOM
      1 C           1.1583    0.0260   -0.0117 C.3     1  UNL1       -0.0181
      2 S           2.9599   -0.1986    0.1266 S.3     1  UNL1       -0.1641
      3 C           3.4782    0.8836   -1.2395 C.3     1  UNL1       -0.0044
      4 C           4.9912    1.0194   -1.3765 C.3     1  UNL1       -0.0169
      5 C           5.4874    1.9026   -2.5689 C.3     1  UNL1        0.1008
      6 N           4.9609    3.2796   -2.5312 N.am    1  UNL1       -0.2987
      7 C           3.6111    3.5695   -2.6737 C.2     1  UNL1        0.2630
      8 O           2.7570    2.7599   -3.0376 O.2     1  UNL1       -0.2685
      9 C           3.1635    4.9409   -2.3310 C.ar    1  UNL1        0.1260
     10 C           2.1026    5.1377   -1.4493 C.ar    1  UNL1       -0.0306
     11 C           1.6118    6.4312   -1.3015 C.ar    1  UNL1       -0.0504
     12 C           2.1738    7.4660   -2.0604 C.ar    1  UNL1        0.0004
     13 C           1.6956    8.7853   -1.9899 C.ar    1  UNL1       -0.0526
     14 C           2.2775    9.7820   -2.7714 C.ar    1  UNL1       -0.0611
     15 C           3.3276    9.4655   -3.6270 C.ar    1  UNL1       -0.0597
     16 C           3.7994    8.1548   -3.6963 C.ar    1  UNL1       -0.0357
     17 C           3.2526    7.1499   -2.9216 C.ar    1  UNL1        0.0718
     18 N           3.7696    5.9209   -3.0348 N.ar    1  UNL1       -0.2421
     19 C           7.0520    1.8625   -2.5289 C.2     1  UNL1        0.2376
     20 O           7.6400    1.1781   -1.6867 O.2     1  UNL1       -0.2734
     21 N           7.7377    2.5925   -3.4953 N.am    1  UNL1       -0.2840
     22 C           9.1564    2.5605   -3.5984 C.ar    1  UNL1        0.0342
     23 C           9.8774    3.7060   -3.9425 C.ar    1  UNL1       -0.0404
     24 C          11.2717    3.6426   -4.0802 C.ar    1  UNL1       -0.0593
     25 C          11.9479    2.4361   -3.8656 C.ar    1  UNL1       -0.0495
     26 C          11.2316    1.2706   -3.5520 C.ar    1  UNL1        0.0385
     27 C          11.9574   -0.0282   -3.4358 C.2     1  UNL1        0.2443
     28 O          13.1904   -0.0211   -3.5200 O.2     1  UNL1       -0.2702
     29 N          11.2286   -1.2081   -3.2475 N.am    1  UNL1       -0.3085
     30 C          11.9514   -2.4200   -3.0052 C.3     1  UNL1        0.0235
     31 C          11.6972   -3.8666   -3.3195 C.3     1  UNL1       -0.0328
     32 C          12.4989   -3.0530   -4.2720 C.3     1  UNL1       -0.0328
     33 C           9.8461    1.3561   -3.4052 C.ar    1  UNL1       -0.0284
     34 H           0.6846   -0.5221    0.8067 H       1  UNL1        0.0340
     35 H           0.7886   -0.3810   -0.9570 H       1  UNL1        0.0340
     36 H           0.8618    1.0776    0.0710 H       1  UNL1        0.0340
     37 H           3.0603    1.8523   -0.9700 H       1  UNL1        0.0377
     38 H           3.0492    0.5094   -2.1743 H       1  UNL1        0.0377
     39 H           5.4245    0.0146   -1.4880 H       1  UNL1        0.0296
     40 H           5.3947    1.4351   -0.4434 H       1  UNL1        0.0296
     41 H           5.1659    1.4483   -3.5149 H       1  UNL1        0.0595
     42 H           5.5831    4.0475   -2.2975 H       1  UNL1        0.1498
     43 H           1.6548    4.3120   -0.9046 H       1  UNL1        0.0641
     44 H           0.7818    6.6243   -0.6240 H       1  UNL1        0.0625
     45 H           0.8712    9.0447   -1.3289 H       1  UNL1        0.0624
     46 H           1.9128   10.8043   -2.7145 H       1  UNL1        0.0618
     47 H           3.7874   10.2343   -4.2416 H       1  UNL1        0.0618
     48 H           4.6128    7.9095   -4.3744 H       1  UNL1        0.0639
     49 H           7.2328    3.2445   -4.0836 H       1  UNL1        0.1549
     50 H           9.3865    4.6702   -4.0425 H       1  UNL1        0.0636
     51 H          11.8371    4.5300   -4.3617 H       1  UNL1        0.0618
     52 H          13.0347    2.4085   -3.9562 H       1  UNL1        0.0625
     53 H          10.2382   -1.1897   -3.0497 H       1  UNL1        0.1493
     54 H          12.5102   -2.3370   -2.0767 H       1  UNL1        0.0498
     55 H          10.7288   -4.2284   -3.6300 H       1  UNL1        0.0284
     56 H          12.2659   -4.6032   -2.7515 H       1  UNL1        0.0284
     57 H          12.0146   -2.8297   -5.2193 H       1  UNL1        0.0284
     58 H          13.5761   -3.1064   -4.3386 H       1  UNL1        0.0284
     59 H           9.2730    0.4701   -3.1747 H       1  UNL1        0.0644
@<TRIPOS>BOND
     1     1     2    1
     2     2     3    1
     3     3     4    1
     4     4     5    1
     5     5     6    1
     6     6     7   am
     7     7     8    2
     8     7     9    1
     9     9    10   ar
    10    10    11   ar
    11    11    12   ar
    12    12    13   ar
    13    13    14   ar
    14    14    15   ar
    15    15    16   ar
    16    16    17   ar
    17    12    17   ar
    18    17    18   ar
    19     9    18   ar
    20     5    19    1
    21    19    20    2
    22    19    21   am
    23    21    22    1
    24    22    23   ar
    25    23    24   ar
    26    24    25   ar
    27    25    26   ar
    28    26    27    1
    29    27    28    2
    30    27    29   am
    31    29    30    1
    32    30    31    1
    33    31    32    1
    34    30    32    1
    35    26    33   ar
    36    22    33   ar
    37     1    34    1
    38     1    35    1
    39     1    36    1
    40     3    37    1
    41     3    38    1
    42     4    39    1
    43     4    40    1
    44     5    41    1
    45     6    42    1
    46    10    43    1
    47    11    44    1
    48    13    45    1
    49    14    46    1
    50    15    47    1
    51    16    48    1
    52    21    49    1
    53    23    50    1
    54    24    51    1
    55    25    52    1
    56    29    53    1
    57    30    54    1
    58    31    55    1
    59    31    56    1
    60    32    57    1
    61    32    58    1
    62    33    59    1
