@<TRIPOS>MOLECULE
*****
 47 50 0 0 0
SMALL
GASTEIGER

@<TRIPOS>ATOM
      1 O           1.1217   -0.2097    0.2452 O.2     1  UNL1       -0.2737
      2 C           2.3474   -0.1581    0.1364 C.2     1  UNL1        0.2365
      3 C           3.0736    0.5874   -0.9776 C.3     1  UNL1        0.0513
      4 C           2.1682    1.3792   -1.9221 C.ar    1  UNL1       -0.0308
      5 C           1.2264    0.6664   -2.6851 C.ar    1  UNL1       -0.0565
      6 C           0.3671    1.3221   -3.5606 C.ar    1  UNL1       -0.0469
      7 C           0.4458    2.7082   -3.7078 C.ar    1  UNL1        0.0256
      8 BR         -0.8003    3.4878   -4.9258 Br      1  UNL1       -0.0497
      9 C           1.3918    3.4750   -2.9757 C.ar    1  UNL1       -0.0037
     10 C           1.5281    4.8863   -3.0857 C.ar    1  UNL1       -0.0530
     11 C           2.4564    5.6037   -2.3261 C.ar    1  UNL1       -0.0611
     12 C           3.2805    4.9356   -1.4431 C.ar    1  UNL1       -0.0612
     13 C           3.1810    3.5561   -1.3273 C.ar    1  UNL1       -0.0537
     14 C           2.2554    2.7916   -2.0688 C.ar    1  UNL1       -0.0132
     15 N           3.1358   -0.8187    1.0643 N.am    1  UNL1       -0.2066
     16 N           4.4985   -0.7702    1.0473 N.2     1  UNL1       -0.1846
     17 C           5.1480   -1.4973    1.9109 C.2     1  UNL1        0.0878
     18 C           6.5913   -1.4181    1.9115 C.ar    1  UNL1        0.1480
     19 C           7.3774   -0.3053    1.6960 C.ar    1  UNL1       -0.0143
     20 C           8.7106   -0.7409    1.6620 C.ar    1  UNL1       -0.0150
     21 C           8.7035   -2.0840    1.9732 C.ar    1  UNL1        0.1422
     22 C           9.8123   -3.0011    2.2554 C.ar    1  UNL1        0.0942
     23 C          10.0129   -4.1170    1.4132 C.ar    1  UNL1       -0.0445
     24 C          11.0758   -5.0129    1.6205 C.ar    1  UNL1       -0.0607
     25 C          12.0071   -4.7766    2.6245 C.ar    1  UNL1       -0.0553
     26 C          11.8625   -3.6600    3.4422 C.ar    1  UNL1        0.0163
     27 C          10.7753   -2.7715    3.2689 C.ar    1  UNL1        0.2837
     28 N          10.7450   -1.6100    4.1900 N.pl3   1  UNL1        0.0803
     29 O          11.6962   -1.4715    4.9649 O.2     1  UNL1        0.0415
     30 O           9.7867   -0.8236    4.1598 O.co2   1  UNL1       -0.5760
     31 O           7.4011   -2.5212    2.1171 O.2     1  UNL1       -0.4536
     32 H           3.6622   -0.1148   -1.5791 H       1  UNL1        0.0408
     33 H           3.8002    1.2275   -0.4787 H       1  UNL1        0.0408
     34 H           1.1361   -0.4129   -2.5749 H       1  UNL1        0.0621
     35 H          -0.3684    0.7419   -4.1139 H       1  UNL1        0.0629
     36 H           0.9041    5.4573   -3.7702 H       1  UNL1        0.0624
     37 H           2.5353    6.6825   -2.4192 H       1  UNL1        0.0618
     38 H           4.0061    5.4663   -0.8340 H       1  UNL1        0.0618
     39 H           3.8621    3.1030   -0.6177 H       1  UNL1        0.0624
     40 H           2.6351   -1.3139    1.7945 H       1  UNL1        0.1772
     41 H           4.6433   -2.1512    2.6444 H       1  UNL1        0.0883
     42 H           7.0136    0.7060    1.5917 H       1  UNL1        0.0656
     43 H           9.5951   -0.1305    1.5545 H       1  UNL1        0.0656
     44 H           9.3619   -4.2873    0.5555 H       1  UNL1        0.0627
     45 H          11.1823   -5.8974    0.9936 H       1  UNL1        0.0618
     46 H          12.8511   -5.4493    2.7681 H       1  UNL1        0.0620
     47 H          12.6080   -3.4930    4.2188 H       1  UNL1        0.0685
@<TRIPOS>UNITY_ATOM_ATTR
28 1
charge 1
30 1
charge -1
@<TRIPOS>BOND
     1     1     2    2
     2     2     3    1
     3     3     4    1
     4     4     5   ar
     5     5     6   ar
     6     6     7   ar
     7     7     8    1
     8     7     9   ar
     9     9    10   ar
    10    10    11   ar
    11    11    12   ar
    12    12    13   ar
    13    13    14   ar
    14     4    14   ar
    15     9    14   ar
    16     2    15   am
    17    15    16    1
    18    16    17    2
    19    17    18    1
    20    18    19   ar
    21    19    20   ar
    22    20    21   ar
    23    21    22    1
    24    22    23   ar
    25    23    24   ar
    26    24    25   ar
    27    25    26   ar
    28    26    27   ar
    29    22    27   ar
    30    27    28    1
    31    28    29    2
    32    28    30    1
    33    21    31   ar
    34    18    31   ar
    35     3    32    1
    36     3    33    1
    37     5    34    1
    38     6    35    1
    39    10    36    1
    40    11    37    1
    41    12    38    1
    42    13    39    1
    43    15    40    1
    44    17    41    1
    45    19    42    1
    46    20    43    1
    47    23    44    1
    48    24    45    1
    49    25    46    1
    50    26    47    1
