REMARK  4 active torsions:
REMARK  status: ('A' for Active; 'I' for Inactive)
REMARK       I    between atoms: C_2  and  N_3 
REMARK    1  A    between atoms: C_2  and  C_12 
REMARK    2  A    between atoms: N_3  and  N_4 
REMARK       I    between atoms: N_4  and  C_5 
REMARK    3  A    between atoms: C_5  and  C_7 
REMARK    4  A    between atoms: C_15  and  C_16 
ROOT
ATOM      1  O   UNL d   1       1.098  -0.028   0.009  0.00  0.00    -0.266 OA
ATOM      2  C   UNL d   1       2.327  -0.016  -0.028  0.00  0.00     0.270 C 
ATOM      3  N   UNL d   1       3.076  -1.082  -0.516  0.00  0.00    -0.263 N 
ATOM      4  H   UNL d   1       4.089  -1.146  -0.429  0.00  0.00     0.190 HD
ENDROOT
BRANCH   2   5
ATOM      5  C   UNL d   1       3.084   1.153   0.524  0.00  0.00     0.033 A 
ATOM      6  C   UNL d   1       4.245   1.643  -0.080  0.00  0.00     0.018 A 
ATOM      7  C   UNL d   1       4.978   2.671   0.539  0.00  0.00     0.013 A 
ATOM      8  C   UNL d   1       4.529   3.291   1.719  0.00  0.00    -0.026 A 
ATOM      9  C   UNL d   1       3.346   2.812   2.297  0.00  0.00     0.013 A 
ATOM     10  C   UNL d   1       2.625   1.764   1.700  0.00  0.00     0.018 A 
BRANCH   8  11
ATOM     11  C   UNL d   1       5.308   4.385   2.327  0.00  0.00    -0.026 A 
ATOM     12  C   UNL d   1       5.667   5.527   1.587  0.00  0.00     0.012 A 
ATOM     13  C   UNL d   1       6.552   6.475   2.108  0.00  0.00     0.001 A 
ATOM     14  C   UNL d   1       7.026   6.342   3.411  0.00  0.00     0.000 A 
ATOM     15  C   UNL d   1       6.633   5.251   4.182  0.00  0.00     0.001 A 
ATOM     16  C   UNL d   1       5.783   4.280   3.643  0.00  0.00     0.012 A 
ENDBRANCH   8  11
ENDBRANCH   2   5
BRANCH   3  17
ATOM     17  N   UNL d   1       2.401  -2.258  -0.946  0.00  0.00    -0.261 N 
ATOM     18  C   UNL d   1       3.109  -3.395  -1.334  0.00  0.00     0.293 C 
ATOM     19  O   UNL d   1       4.344  -3.437  -1.253  0.00  0.00    -0.264 OA
ATOM     20  H   UNL d   1       1.383  -2.236  -0.903  0.00  0.00     0.190 HD
BRANCH  18  21
ATOM     21  C   UNL d   1       2.285  -4.474  -1.863  0.00  0.00     0.144 A 
ATOM     22  C   UNL d   1       1.202  -4.439  -2.727  0.00  0.00     0.045 A 
ATOM     23  C   UNL d   1       0.766  -5.772  -2.915  0.00  0.00     0.027 A 
ATOM     24  C   UNL d   1       1.611  -6.557  -2.168  0.00  0.00     0.143 A 
ATOM     25  O   UNL d   1       2.549  -5.787  -1.545  0.00  0.00    -0.317 OA
ENDBRANCH  18  21
ENDBRANCH   3  17
TORSDOF 4
