REMARK  4 active torsions:
REMARK  status: ('A' for Active; 'I' for Inactive)
REMARK    1  A    between atoms: C_7  and  N_8 
REMARK       I    between atoms: N_8  and  C_9 
REMARK    2  A    between atoms: C_9  and  C_11 
REMARK    3  A    between atoms: C_11  and  N_13 
REMARK       I    between atoms: N_13  and  C_14 
REMARK    4  A    between atoms: C_14  and  C_16 
ROOT
ATOM      1  C   UNL d   1       3.111   3.977  -0.075  0.00  0.00     0.173 C 
ATOM      2  C   UNL d   1       2.422   4.681   1.059  0.00  0.00     0.042 C 
ENDROOT
BRANCH   1   3
ATOM      3  C   UNL d   1       2.555   2.563  -0.101  0.00  0.00     0.244 C 
ATOM      4  N   UNL d   1       1.169   2.381  -0.076  0.00  0.00    -0.325 N 
ATOM      5  H   UNL d   1       0.591   3.215  -0.075  0.00  0.00     0.169 HD
ATOM      6  O   UNL d   1       3.446   1.715  -0.138  0.00  0.00    -0.271 OA
BRANCH   4   7
ATOM      7  C   UNL d   1       0.419   1.155  -0.026  0.00  0.00     0.040 A 
ATOM      8  C   UNL d   1      -0.993   1.228  -0.009  0.00  0.00     0.030 A 
ATOM      9  C   UNL d   1      -1.784   0.059  -0.004  0.00  0.00     0.002 A 
ATOM     10  C   UNL d   1      -1.188  -1.195   0.002  0.00  0.00     0.001 A 
ATOM     11  C   UNL d   1       0.189  -1.282   0.008  0.00  0.00     0.009 A 
ATOM     12  C   UNL d   1       0.988  -0.132  -0.004  0.00  0.00    -0.035 A 
ATOM     13  C   UNL d   1       2.446  -0.413  -0.006  0.00  0.00     0.050 C 
ENDBRANCH   4   7
ENDBRANCH   1   3
BRANCH   1  14
ATOM     14  N   UNL d   1       4.599   3.783   0.132  0.00  0.00    -0.344 N 
ATOM     15  C   UNL d   1       5.636   4.696   0.092  0.00  0.00     0.252 C 
ATOM     16  O   UNL d   1       6.605   4.524  -0.615  0.00  0.00    -0.268 OA
ATOM     17  H   UNL d   1       4.901   2.872  -0.228  0.00  0.00     0.163 HD
BRANCH  15  18
ATOM     18  C   UNL d   1       5.574   5.846   1.038  0.00  0.00     0.032 C 
ATOM     19  C   UNL d   1       6.368   6.974   0.887  0.00  0.00     0.018 C 
ATOM     20  C   UNL d   1       6.178   8.062   1.754  0.00  0.00     0.025 C 
ATOM     21  C   UNL d   1       5.125   8.063   2.673  0.00  0.00     0.034 C 
ATOM     22 CL   UNL d   1       4.840   9.404   3.706  0.00  0.00    -0.084 Cl
ATOM     23  C   UNL d   1       4.367   6.925   2.844  0.00  0.00     0.025 C 
ATOM     24  C   UNL d   1       4.758   5.783   2.161  0.00  0.00     0.018 C 
ENDBRANCH  15  18
ENDBRANCH   1  14
TORSDOF 4
