REMARK  6 active torsions:
REMARK  status: ('A' for Active; 'I' for Inactive)
REMARK    1  A    between atoms: C_6  and  N_7 
REMARK    2  A    between atoms: C_14  and  C_15 
REMARK    3  A    between atoms: C_15  and  C_16 
REMARK    4  A    between atoms: C_16  and  N_17 
REMARK    5  A    between atoms: N_20  and  C_21 
REMARK    6  A    between atoms: C_24  and  N_25 
ROOT
ATOM      1  C   UNL d   1       2.604   1.889   2.056  0.00  0.00     0.238 C 
ENDROOT
BRANCH   1   2
ATOM      2  C   UNL d   1       2.717   2.028   0.526  0.00  0.00     0.070 C 
BRANCH   2   3
ATOM      3  C   UNL d   1       1.696   1.166  -0.226  0.00  0.00     0.222 C 
ATOM      4  O   UNL d   1       0.414   1.642   0.154  0.00  0.00    -0.334 OA
ATOM      5  C   UNL d   1      -0.578   0.711   0.039  0.00  0.00     0.096 A 
ATOM      6  C   UNL d   1      -1.882   1.202   0.036  0.00  0.00     0.041 A 
ATOM      7  C   UNL d   1      -0.336  -0.668   0.002  0.00  0.00     0.070 A 
ATOM      8  C   UNL d   1      -2.956   0.315  -0.012  0.00  0.00     0.039 A 
ATOM      9  C   UNL d   1      -2.710  -1.066  -0.056  0.00  0.00     0.105 A 
ATOM     10  C   UNL d   1      -1.399  -1.566  -0.046  0.00  0.00     0.068 A 
ATOM     11  N   UNL d   1       0.973  -1.151   0.049  0.00  0.00    -0.322 N 
ATOM     12  C   UNL d   1       2.047  -0.310  -0.002  0.00  0.00     0.251 C 
ATOM     13  H   UNL d   1       1.166  -2.143   0.138  0.00  0.00     0.169 HD
ATOM     14  O   UNL d   1       3.198  -0.706   0.119  0.00  0.00    -0.270 OA
BRANCH   9  15
ATOM     15  N   UNL d   1      -3.840  -2.001  -0.102  0.00  0.00    -0.116 N 
ATOM     16  O   UNL d   1      -4.980  -1.524  -0.093  0.00  0.00    -0.532 OA
ATOM     17  O   UNL d   1      -3.575  -3.212  -0.138  0.00  0.00    -0.532 OA
ENDBRANCH   9  15
ENDBRANCH   2   3
ENDBRANCH   1   2
BRANCH   1  18
ATOM     18  N   UNL d   1       3.709   2.679   2.772  0.00  0.00    -0.068 N 
ATOM     19  C   UNL d   1       3.939   4.074   2.162  0.00  0.00     0.254 C 
ATOM     20  C   UNL d   1       4.998   4.885   2.923  0.00  0.00     0.150 C 
ATOM     21  N   UNL d   1       4.689   4.967   4.348  0.00  0.00    -0.378 N 
ATOM     22  C   UNL d   1       4.554   3.657   5.007  0.00  0.00     0.150 C 
ATOM     23  C   UNL d   1       3.464   2.790   4.307  0.00  0.00     0.254 C 
ATOM     24  H   UNL d   1       4.576   2.136   2.650  0.00  0.00     0.280 HD
BRANCH  21  25
ATOM     25  C   UNL d   1       4.161   6.108   4.930  0.00  0.00     0.030 A 
ATOM     26  C   UNL d   1       4.720   6.605   6.121  0.00  0.00     0.032 A 
ATOM     27  C   UNL d   1       4.210   7.740   6.777  0.00  0.00     0.038 A 
ATOM     28  C   UNL d   1       3.151   8.449   6.207  0.00  0.00     0.103 A 
ATOM     29  C   UNL d   1       2.574   7.987   5.020  0.00  0.00     0.038 A 
ATOM     30  C   UNL d   1       3.086   6.833   4.390  0.00  0.00     0.032 A 
BRANCH  28  31
ATOM     31  N   UNL d   1       2.689   9.707   6.818  0.00  0.00    -0.116 N 
ATOM     32  O   UNL d   1       3.256  10.088   7.851  0.00  0.00    -0.532 OA
ATOM     33  O   UNL d   1       1.771  10.317   6.250  0.00  0.00    -0.532 OA
ENDBRANCH  28  31
ENDBRANCH  21  25
ENDBRANCH   1  18
TORSDOF 6
