REMARK  7 active torsions:
REMARK  status: ('A' for Active; 'I' for Inactive)
REMARK    1  A    between atoms: C_2  and  C_3 
REMARK    2  A    between atoms: C_3  and  N_6 
REMARK    3  A    between atoms: C_10  and  C_11 
REMARK    4  A    between atoms: C_11  and  C_12 
REMARK    5  A    between atoms: C_11  and  N_26 
REMARK    6  A    between atoms: N_29  and  C_30 
REMARK    7  A    between atoms: C_33  and  O_34 
ROOT
ATOM      1  C   UNL d   1       4.790  -1.667   1.310  0.00  0.00     0.299 C 
ENDROOT
BRANCH   1   2
ATOM      2  C   UNL d   1       5.311  -0.219   1.050  0.00  0.00     0.184 C 
ATOM      3  N   UNL d   1       6.613   0.020   1.127  0.00  0.00    -0.111 NA
ATOM      4  N   UNL d   1       6.782   1.368   1.116  0.00  0.00    -0.023 NA
ATOM      5  N   UNL d   1       5.632   1.994   0.955  0.00  0.00    -0.043 NA
ATOM      6  N   UNL d   1       4.688   1.046   0.751  0.00  0.00    -0.223 N 
BRANCH   6   7
ATOM      7  C   UNL d   1       3.238   1.513   0.829  0.00  0.00     0.051 C 
ATOM      8  C   UNL d   1       2.968   2.965   0.693  0.00  0.00     0.040 C 
ATOM      9  C   UNL d   1       3.019   1.104   2.279  0.00  0.00     0.040 C 
BRANCH   7  10
ATOM     10  C   UNL d   1       2.302   0.970  -0.409  0.00  0.00     0.028 C 
ATOM     11  C   UNL d   1       0.693   0.897  -0.960  0.00  0.00     0.007 C 
ENDBRANCH   7  10
ENDBRANCH   6   7
ENDBRANCH   1   2
BRANCH   1  12
ATOM     12  C   UNL d   1       5.454  -2.469   2.402  0.00  0.00     0.049 C 
ATOM     13  C   UNL d   1       6.011  -3.698   2.266  0.00  0.00     0.029 C 
ATOM     14  C   UNL d   1       6.310  -4.504   3.472  0.00  0.00    -0.006 C 
ATOM     15  C   UNL d   1       6.759  -5.844   3.558  0.00  0.00     0.053 C 
ATOM     16  C   UNL d   1       6.012  -3.869   4.689  0.00  0.00     0.048 C 
ATOM     17  C   UNL d   1       6.960  -6.339   4.855  0.00  0.00     0.105 C 
ATOM     18  C   UNL d   1       7.224  -5.439   5.839  0.00  0.00     0.107 C 
ATOM     19  O   UNL d   1       6.660  -7.523   5.534  0.00  0.00    -0.323 OA
ATOM     20  C   UNL d   1       6.496  -4.313   5.874  0.00  0.00     0.070 C 
ATOM     21  O   UNL d   1       7.607  -5.971   7.019  0.00  0.00    -0.323 OA
ATOM     22  C   UNL d   1       6.650  -7.011   6.939  0.00  0.00     0.352 C 
ATOM     23  N   UNL d   1       5.330  -2.691   4.790  0.00  0.00    -0.322 N 
ATOM     24  C   UNL d   1       5.266  -1.819   3.746  0.00  0.00     0.254 C 
ATOM     25  H   UNL d   1       5.188  -2.278   5.704  0.00  0.00     0.169 HD
ATOM     26  O   UNL d   1       4.965  -0.703   3.925  0.00  0.00    -0.268 OA
ENDBRANCH   1  12
BRANCH   1  27
ATOM     27  N   UNL d   1       3.245  -2.044   1.354  0.00  0.00    -0.052 N 
ATOM     28  C   UNL d   1       2.381  -1.636   2.752  0.00  0.00     0.256 C 
ATOM     29  C   UNL d   1       0.906  -1.062   2.619  0.00  0.00     0.150 C 
ATOM     30  N   UNL d   1       0.693  -0.255   1.401  0.00  0.00    -0.378 N 
ATOM     31  C   UNL d   1       1.140  -1.422   0.112  0.00  0.00     0.150 C 
ATOM     32  C   UNL d   1       2.696  -1.804  -0.007  0.00  0.00     0.256 C 
ATOM     33  H   UNL d   1       3.204  -3.068   1.388  0.00  0.00     0.281 HD
BRANCH  30  34
ATOM     34  C   UNL d   1      -0.057   1.168   1.588  0.00  0.00     0.030 C 
ATOM     35  C   UNL d   1       0.483   2.367   2.275  0.00  0.00     0.032 C 
ATOM     36  C   UNL d   1       0.127   3.768   2.048  0.00  0.00     0.039 C 
ATOM     37  C   UNL d   1      -0.915   4.109   1.230  0.00  0.00     0.068 C 
ATOM     38  C   UNL d   1      -1.522   3.049   0.576  0.00  0.00     0.039 C 
ATOM     39  C   UNL d   1      -1.170   1.637   0.809  0.00  0.00     0.032 C 
BRANCH  37  40
ATOM     40  O   UNL d   1      -1.251   5.432   1.176  0.00  0.00    -0.356 OA
ATOM     41  C   UNL d   1      -2.570   5.692   0.700  0.00  0.00     0.210 C 
ENDBRANCH  37  40
ENDBRANCH  30  34
ENDBRANCH   1  27
TORSDOF 7
