REMARK  7 active torsions:
REMARK  status: ('A' for Active; 'I' for Inactive)
REMARK    1  A    between atoms: C_2  and  C_3 
REMARK       I    between atoms: C_2  and  N_10 
REMARK    2  A    between atoms: C_3  and  C_4 
REMARK    3  A    between atoms: N_10  and  C_11 
REMARK    4  A    between atoms: C_11  and  C_12 
REMARK       I    between atoms: C_12  and  N_14 
REMARK    5  A    between atoms: N_14  and  N_15 
REMARK       I    between atoms: N_15  and  C_16 
REMARK    6  A    between atoms: C_16  and  C_18 
REMARK    7  A    between atoms: C_18  and  C_19 
ROOT
ATOM      1  C   UNL d   1       5.082  -2.832   0.440  0.00  0.00     0.253 C 
ATOM      2  O   UNL d   1       4.284  -3.764   0.557  0.00  0.00    -0.270 OA
ATOM      3  N   UNL d   1       6.451  -3.024   0.459  0.00  0.00    -0.266 N 
ATOM      4  H   UNL d   1       7.138  -2.277   0.362  0.00  0.00     0.190 HD
ENDROOT
BRANCH   1   5
ATOM      5  C   UNL d   1       4.636  -1.368   0.257  0.00  0.00     0.227 C 
BRANCH   5   6
ATOM      6  N   UNL d   1       3.190  -1.279   0.261  0.00  0.00    -0.352 N 
ATOM      7  C   UNL d   1       2.410  -0.207  -0.027  0.00  0.00     0.218 C 
ATOM      8  O   UNL d   1       1.216  -0.439  -0.223  0.00  0.00    -0.274 OA
ATOM      9  H   UNL d   1       2.668  -2.153   0.305  0.00  0.00     0.162 HD
BRANCH   7  10
ATOM     10  C   UNL d   1       3.047   1.187  -0.097  0.00  0.00     0.107 C 
BRANCH  10  11
ATOM     11  C   UNL d   1       2.031   2.355  -0.201  0.00  0.00    -0.006 C 
ATOM     12  C   UNL d   1       0.887   2.186   0.812  0.00  0.00     0.005 C 
ATOM     13  C   UNL d   1      -0.127   3.310   0.764  0.00  0.00     0.000 C 
ATOM     14  C   UNL d   1       0.540   4.646   1.008  0.00  0.00     0.000 C 
ATOM     15  C   UNL d   1       1.660   4.875  -0.003  0.00  0.00     0.000 C 
ATOM     16  C   UNL d   1       2.695   3.738   0.018  0.00  0.00     0.005 C 
ENDBRANCH  10  11
ENDBRANCH   7  10
ENDBRANCH   5   6
ENDBRANCH   1   5
BRANCH   3  17
ATOM     17  N   UNL d   1       6.972  -4.330   0.626  0.00  0.00    -0.267 N 
ATOM     18  C   UNL d   1       8.347  -4.486   0.643  0.00  0.00     0.236 C 
ATOM     19  O   UNL d   1       9.097  -3.518   0.511  0.00  0.00    -0.272 OA
ATOM     20  H   UNL d   1       6.299  -5.089   0.729  0.00  0.00     0.190 HD
BRANCH  18  21
ATOM     21  C   UNL d   1       8.845  -5.920   0.848  0.00  0.00     0.109 C 
BRANCH  21  22
ATOM     22  C   UNL d   1      10.392  -6.016   0.845  0.00  0.00    -0.006 C 
ATOM     23  C   UNL d   1      10.905  -7.199   1.688  0.00  0.00     0.005 C 
ATOM     24  C   UNL d   1      12.432  -7.319   1.634  0.00  0.00     0.000 C 
ATOM     25  C   UNL d   1      12.935  -7.423   0.198  0.00  0.00     0.000 C 
ATOM     26  C   UNL d   1      12.448  -6.244  -0.635  0.00  0.00     0.000 C 
ATOM     27  C   UNL d   1      10.926  -6.124  -0.596  0.00  0.00     0.005 C 
ENDBRANCH  21  22
ENDBRANCH  18  21
ENDBRANCH   3  17
TORSDOF 7
