@<TRIPOS>MOLECULE
*****
 63 66 0 0 0
SMALL
GASTEIGER

@<TRIPOS>ATOM
      1 C          22.9016   11.8014   -7.2831 C.3     1  UNL1       -0.0108
      2 C          22.3297   10.4470   -6.9060 C.3     1  UNL1        0.0878
      3 N          20.9278   10.1287   -7.4521 N.pl3   1  UNL1       -0.3883
      4 C          19.8111   11.1632   -7.6761 C.3     1  UNL1        0.0878
      5 C          20.2663   12.5536   -8.0911 C.3     1  UNL1       -0.0108
      6 C          20.3408    8.8187   -6.8587 C.ar    1  UNL1        0.1446
      7 C          19.4102    8.0511   -7.5767 C.ar    1  UNL1        0.0057
      8 C          18.8290    6.8371   -7.0186 C.ar    1  UNL1       -0.0285
      9 C          19.1769    6.3522   -5.7168 C.ar    1  UNL1        0.0866
     10 N          18.8742    5.0064   -5.1699 N.ar    1  UNL1       -0.1492
     11 N          19.6160    3.9847   -5.6600 N.ar    1  UNL1       -0.1471
     12 C          18.8779    2.9906   -5.1506 C.ar    1  UNL1        0.1135
     13 C          17.9245    2.1681   -5.7629 C.ar    1  UNL1       -0.0277
     14 C          17.1910    1.3177   -4.8987 C.ar    1  UNL1       -0.0271
     15 C          15.8546    0.8066   -5.3458 C.3     1  UNL1       -0.0379
     16 C          17.6590    1.0289   -3.6045 C.ar    1  UNL1        0.0386
     17 N          17.3819   -0.3112   -3.1344 N.am    1  UNL1       -0.2828
     18 C          18.0863   -1.0668   -2.1845 C.2     1  UNL1        0.2507
     19 O          19.2267   -0.8014   -1.8754 O.2     1  UNL1       -0.2722
     20 C          17.2907   -2.3689   -1.6138 C.3     1  UNL1        0.1605
     21 O          15.8622   -2.3671   -1.4965 O.3     1  UNL1       -0.3658
     22 C          15.2944   -1.0894   -1.2644 C.3     1  UNL1        0.0379
     23 C          17.8558   -2.9053   -0.2790 C.ar    1  UNL1        0.0083
     24 C          17.8629   -4.3069   -0.0300 C.ar    1  UNL1       -0.0542
     25 C          18.2542   -4.8277    1.2161 C.ar    1  UNL1       -0.0613
     26 C          18.7463   -3.9814    2.2012 C.ar    1  UNL1       -0.0604
     27 C          18.7789   -2.6142    1.9684 C.ar    1  UNL1       -0.0430
     28 C          18.2897   -2.0743    0.7738 C.ar    1  UNL1        0.0471
     29 CL         18.1914   -0.3454    0.7838 Cl      1  UNL1       -0.0832
     30 C          18.3195    2.1011   -2.9188 C.ar    1  UNL1       -0.0109
     31 C          18.6825    3.2660   -3.7623 C.ar    1  UNL1        0.1149
     32 N          18.3293    4.6343   -3.8739 N.ar    1  UNL1       -0.1470
     33 C          20.1597    7.0958   -5.0686 C.ar    1  UNL1       -0.0285
     34 C          20.7037    8.3066   -5.6055 C.ar    1  UNL1        0.0057
     35 H          23.9710   11.8787   -7.0651 H       1  UNL1        0.0289
     36 H          22.4402   12.5914   -6.6859 H       1  UNL1        0.0289
     37 H          22.8056   11.9908   -8.3526 H       1  UNL1        0.0289
     38 H          22.3676   10.3456   -5.8199 H       1  UNL1        0.0965
     39 H          22.9744    9.6848   -7.3602 H       1  UNL1        0.0965
     40 H          21.1620    9.8695   -8.4169 H       1  UNL1        0.3743
     41 H          19.1422   11.1996   -6.8107 H       1  UNL1        0.0965
     42 H          19.2507   10.7712   -8.5345 H       1  UNL1        0.0965
     43 H          20.6544   13.1081   -7.2348 H       1  UNL1        0.0289
     44 H          19.4485   13.1693   -8.4785 H       1  UNL1        0.0289
     45 H          20.9934   12.5059   -8.9048 H       1  UNL1        0.0289
     46 H          19.1196    8.3649   -8.5832 H       1  UNL1        0.0682
     47 H          18.0947    6.3281   -7.6507 H       1  UNL1        0.0641
     48 H          17.5383    2.5206   -6.7050 H       1  UNL1        0.0643
     49 H          15.4693    1.4285   -6.1587 H       1  UNL1        0.0278
     50 H          15.1265    0.8878   -4.5264 H       1  UNL1        0.0278
     51 H          15.9291   -0.2301   -5.6694 H       1  UNL1        0.0278
     52 H          16.7493   -0.8738   -3.6963 H       1  UNL1        0.1549
     53 H          17.4815   -3.1571   -2.3626 H       1  UNL1        0.0744
     54 H          14.2480   -1.1837   -0.9714 H       1  UNL1        0.0524
     55 H          15.2871   -0.5290   -2.1969 H       1  UNL1        0.0524
     56 H          15.8297   -0.5414   -0.4917 H       1  UNL1        0.0524
     57 H          17.5360   -5.0195   -0.7885 H       1  UNL1        0.0622
     58 H          18.1629   -5.8917    1.4310 H       1  UNL1        0.0618
     59 H          19.0807   -4.3684    3.1599 H       1  UNL1        0.0618
     60 H          19.1480   -1.9486    2.7444 H       1  UNL1        0.0632
     61 H          18.9146    1.8395   -2.0411 H       1  UNL1        0.0659
     62 H          20.5697    6.7069   -4.1395 H       1  UNL1        0.0641
     63 H          21.4384    8.7935   -4.9756 H       1  UNL1        0.0682
@<TRIPOS>UNITY_ATOM_ATTR
3 1
charge 1
@<TRIPOS>BOND
     1     1     2    1
     2     2     3    1
     3     3     4    1
     4     4     5    1
     5     3     6    1
     6     6     7   ar
     7     7     8   ar
     8     8     9   ar
     9     9    10    1
    10    10    11   ar
    11    11    12   ar
    12    12    13   ar
    13    13    14   ar
    14    14    15    1
    15    14    16   ar
    16    16    17    1
    17    17    18   am
    18    18    19    2
    19    21    22    1
    20    20    23    1
    21    23    24   ar
    22    24    25   ar
    23    25    26   ar
    24    26    27   ar
    25    27    28   ar
    26    23    28   ar
    27    28    29    1
    28    16    30   ar
    29    30    31   ar
    30    12    31   ar
    31    31    32   ar
    32    10    32   ar
    33     9    33   ar
    34    33    34   ar
    35     6    34   ar
    36    20    21    1
    37    20    18    1
    38     1    35    1
    39     1    36    1
    40     1    37    1
    41     2    38    1
    42     2    39    1
    43     3    40    1
    44     4    41    1
    45     4    42    1
    46     5    43    1
    47     5    44    1
    48     5    45    1
    49     7    46    1
    50     8    47    1
    51    13    48    1
    52    15    49    1
    53    15    50    1
    54    15    51    1
    55    17    52    1
    56    20    53    1
    57    22    54    1
    58    22    55    1
    59    22    56    1
    60    24    57    1
    61    25    58    1
    62    26    59    1
    63    27    60    1
    64    30    61    1
    65    33    62    1
    66    34    63    1
