@<TRIPOS>MOLECULE
*****
 27 27 0 0 0
SMALL
GASTEIGER

@<TRIPOS>ATOM
      1 O           1.0525    0.0023    0.1195 O.2     1  UNL1       -0.2702
      2 C           2.2818   -0.0462    0.0967 C.2     1  UNL1        0.2443
      3 N           3.0155   -0.8973    0.9062 N.am    1  UNL1       -0.3078
      4 C           2.3176   -1.7448    1.8587 C.3     1  UNL1        0.0303
      5 C           3.2764   -2.5442    2.6933 C.2     1  UNL1       -0.0688
      6 C           2.8740   -3.4462    3.6114 C.2     1  UNL1       -0.0614
      7 C           3.8186   -4.2629    4.4380 C.3     1  UNL1        0.0624
      8 O           3.0800   -5.1321    5.2839 O.3     1  UNL1       -0.3910
      9 C           3.0264    0.8975   -0.7844 C.ar    1  UNL1        0.0367
     10 C           4.1180    0.5104   -1.5702 C.ar    1  UNL1       -0.0496
     11 C           4.7773    1.4616   -2.3646 C.ar    1  UNL1       -0.0610
     12 C           4.3119    2.7772   -2.4272 C.ar    1  UNL1       -0.0617
     13 C           3.2080    3.1580   -1.6685 C.ar    1  UNL1       -0.0610
     14 C           2.5696    2.2223   -0.8503 C.ar    1  UNL1       -0.0496
     15 H           4.0205   -0.8003    0.9490 H       1  UNL1        0.1493
     16 H           1.6620   -2.4106    1.2870 H       1  UNL1        0.0506
     17 H           1.6974   -1.1089    2.5021 H       1  UNL1        0.0506
     18 H           4.3422   -2.3955    2.5491 H       1  UNL1        0.0585
     19 H           1.8099   -3.6202    3.7635 H       1  UNL1        0.0592
     20 H           4.4516   -3.6272    5.0648 H       1  UNL1        0.0601
     21 H           4.4516   -4.8849    3.7988 H       1  UNL1        0.0601
     22 H           2.5791   -4.5779    5.9053 H       1  UNL1        0.2098
     23 H           4.4389   -0.5265   -1.6096 H       1  UNL1        0.0625
     24 H           5.6526    1.1808   -2.9469 H       1  UNL1        0.0618
     25 H           4.7995    3.5020   -3.0767 H       1  UNL1        0.0618
     26 H           2.8430    4.1817   -1.7114 H       1  UNL1        0.0618
     27 H           1.7048    2.5260   -0.2641 H       1  UNL1        0.0625
@<TRIPOS>BOND
     1     1     2    2
     2     2     3   am
     3     3     4    1
     4     4     5    1
     5     5     6    2
     6     6     7    1
     7     7     8    1
     8     2     9    1
     9     9    10   ar
    10    10    11   ar
    11    11    12   ar
    12    12    13   ar
    13    13    14   ar
    14     9    14   ar
    15     3    15    1
    16     4    16    1
    17     4    17    1
    18     5    18    1
    19     6    19    1
    20     7    20    1
    21     7    21    1
    22     8    22    1
    23    10    23    1
    24    11    24    1
    25    12    25    1
    26    13    26    1
    27    14    27    1
