@<TRIPOS>MOLECULE
*****
 54 57 0 0 0
SMALL
GASTEIGER

@<TRIPOS>ATOM
      1 C           2.9160    1.1092   -0.9799 C.3     1  UNL1       -0.0425
      2 N           2.4058    0.1001    0.0901 N.4     1  UNL1        0.2396
      3 C           0.9565   -0.1075   -0.0909 C.3     1  UNL1        0.0139
      4 C           0.6284   -0.7643   -1.3614 C.ar    1  UNL1        0.1234
      5 C           1.3517   -1.3003   -2.4530 C.ar    1  UNL1        0.1773
      6 C           2.8470   -1.4079   -2.8825 C.2     1  UNL1        0.2854
      7 O           3.1174   -1.6230   -4.0745 O.2     1  UNL1       -0.2666
      8 N           3.9095   -1.1998   -1.9615 N.am    1  UNL1       -0.2016
      9 N           5.2520   -0.9510   -2.2933 N.2     1  UNL1       -0.1869
     10 C           6.0200   -0.5901   -1.2953 C.2     1  UNL1        0.0594
     11 C           7.4541   -0.4511   -1.3503 C.ar    1  UNL1        0.0317
     12 C           8.2869   -0.0573   -2.3731 C.ar    1  UNL1       -0.0460
     13 C           9.6659   -0.1163   -1.9974 C.ar    1  UNL1       -0.0541
     14 C           9.8373   -0.5615   -0.7048 C.ar    1  UNL1       -0.0237
     15 S           8.3415   -0.8514    0.0676 S.2     1  UNL1       -0.0957
     16 N           0.3818   -1.6928   -3.3587 N.ar    1  UNL1       -0.1239
     17 N          -0.8319   -1.5808   -2.8300 N.ar    1  UNL1       -0.0581
     18 N          -0.7478   -1.0034   -1.6183 N.ar    1  UNL1       -0.1868
     19 C          -1.8964   -0.6321   -0.8242 C.ar    1  UNL1        0.2404
     20 N          -2.8364   -1.5330   -0.5229 N.ar    1  UNL1       -0.0272
     21 O          -3.7216   -0.8428    0.3231 O.2     1  UNL1       -0.2388
     22 N          -3.3064    0.4726    0.5193 N.ar    1  UNL1       -0.0319
     23 C          -2.1931    0.5979   -0.1973 C.ar    1  UNL1        0.2064
     24 N          -1.4864    1.7468   -0.3007 N.pl3   1  UNL1       -0.3375
     25 C           2.8910    0.5176    1.4573 C.3     1  UNL1       -0.0208
     26 C           2.5951    1.9970    1.6326 C.3     1  UNL1       -0.0096
     27 C           2.8991    2.4822    3.0195 C.3     1  UNL1       -0.0480
     28 C           2.1977    1.6148    4.0478 C.3     1  UNL1       -0.0527
     29 C           2.6231    0.1525    3.9268 C.3     1  UNL1       -0.0480
     30 C           2.2970   -0.3812    2.5440 C.3     1  UNL1       -0.0096
     31 H           4.0001    1.1762   -0.8996 H       1  UNL1        0.0778
     32 H           2.4400    2.0753   -0.8202 H       1  UNL1        0.0778
     33 H           2.6084    0.8196   -1.9803 H       1  UNL1        0.0778
     34 H           2.6977   -0.8747    0.0670 H       1  UNL1        0.2037
     35 H           0.5774   -0.7479    0.7093 H       1  UNL1        0.0883
     36 H           0.5378    0.8814    0.0072 H       1  UNL1        0.0883
     37 H           3.7890   -1.2148   -0.9813 H       1  UNL1        0.1776
     38 H           5.5972   -0.3712   -0.2924 H       1  UNL1        0.0857
     39 H           7.9326    0.2572   -3.3472 H       1  UNL1        0.0629
     40 H          10.4943    0.1384   -2.6491 H       1  UNL1        0.0623
     41 H          10.7682   -0.7246   -0.1749 H       1  UNL1        0.0693
     42 H          -1.9789    2.5889    0.0066 H       1  UNL1        0.1439
     43 H          -0.9660    1.9368   -1.1519 H       1  UNL1        0.1439
     44 H           3.9789    0.3518    1.4373 H       1  UNL1        0.0851
     45 H           1.5441    2.1951    1.3960 H       1  UNL1        0.0320
     46 H           3.2083    2.5955    0.9503 H       1  UNL1        0.0320
     47 H           2.5673    3.5220    3.0897 H       1  UNL1        0.0267
     48 H           3.9838    2.4627    3.1717 H       1  UNL1        0.0267
     49 H           1.1117    1.6928    3.9017 H       1  UNL1        0.0265
     50 H           2.4279    1.9890    5.0462 H       1  UNL1        0.0265
     51 H           2.0915   -0.4485    4.6714 H       1  UNL1        0.0267
     52 H           3.6969    0.0513    4.1159 H       1  UNL1        0.0267
     53 H           1.2066   -0.4113    2.4860 H       1  UNL1        0.0320
     54 H           2.6509   -1.4152    2.4315 H       1  UNL1        0.0320
@<TRIPOS>UNITY_ATOM_ATTR
2 1
charge 1
@<TRIPOS>BOND
     1     3     4    1
     2     4     5   ar
     3     5     6    1
     4     6     7    2
     5     6     8   am
     6     8     9    1
     7     9    10    2
     8    10    11    1
     9    11    12   ar
    10    12    13   ar
    11    13    14   ar
    12    14    15   ar
    13    11    15   ar
    14     5    16   ar
    15    16    17   ar
    16    17    18   ar
    17     4    18   ar
    18    18    19    1
    19    19    20   ar
    20    20    21   ar
    21    21    22   ar
    22    22    23   ar
    23    19    23   ar
    24    23    24    1
    25     2    25    1
    26    25    26    1
    27    26    27    1
    28    27    28    1
    29    28    29    1
    30    29    30    1
    31    25    30    1
    32     2     3    1
    33     2     1    1
    34     1    31    1
    35     1    32    1
    36     1    33    1
    37     2    34    1
    38     3    35    1
    39     3    36    1
    40     8    37    1
    41    10    38    1
    42    12    39    1
    43    13    40    1
    44    14    41    1
    45    24    42    1
    46    24    43    1
    47    25    44    1
    48    26    45    1
    49    26    46    1
    50    27    47    1
    51    27    48    1
    52    28    49    1
    53    28    50    1
    54    29    51    1
    55    29    52    1
    56    30    53    1
    57    30    54    1
