@<TRIPOS>MOLECULE
*****
 46 47 0 0 0
SMALL
GASTEIGER

@<TRIPOS>ATOM
      1 C           1.0181   -0.0696    0.1987 C.3     1  UNL1       -0.0251
      2 C           2.5434   -0.0619    0.0087 C.2     1  UNL1        0.0237
      3 C           3.1098    0.0501   -1.2231 C.2     1  UNL1        0.0184
      4 C           2.3556    0.1012   -2.5220 C.2     1  UNL1        0.2426
      5 O           1.1659   -0.1979   -2.5890 O.2     1  UNL1       -0.2704
      6 N           3.0835    0.4072   -3.6629 N.am    1  UNL1       -0.2810
      7 C           2.3855    0.5829   -4.8983 C.ar    1  UNL1        0.0477
      8 C           2.7930   -0.1396   -6.0319 C.ar    1  UNL1       -0.0394
      9 C           2.0728   -0.0392   -7.2351 C.ar    1  UNL1       -0.0599
     10 C           0.9654    0.8023   -7.3292 C.ar    1  UNL1       -0.0606
     11 C           0.5693    1.5442   -6.2223 C.ar    1  UNL1       -0.0460
     12 C           1.2737    1.4475   -5.0180 C.ar    1  UNL1        0.0391
     13 BR          0.7367    2.6828   -3.6619 Br      1  UNL1       -0.0484
     14 N           3.2696   -0.1637    1.2135 N.pl3   1  UNL1       -0.2683
     15 N           4.6750   -0.2126    1.3635 N.am    1  UNL1       -0.2290
     16 C           5.3013   -0.3401    2.6097 C.2     1  UNL1        0.3152
     17 O           4.7420   -0.4762    3.6969 O.2     1  UNL1       -0.2636
     18 C           6.8656   -0.2970    2.5186 C.2     1  UNL1        0.3046
     19 O           7.3564   -0.1552    1.4007 O.2     1  UNL1       -0.2648
     20 N           7.5866   -0.4868    3.7094 N.am    1  UNL1       -0.2777
     21 C           9.0144   -0.4804    3.7723 C.ar    1  UNL1        0.0352
     22 C           9.7605    0.4391    3.0293 C.ar    1  UNL1       -0.0401
     23 C          11.1650    0.4532    3.0718 C.ar    1  UNL1       -0.0557
     24 C          11.8751   -0.4747    3.8421 C.ar    1  UNL1       -0.0320
     25 C          13.3831   -0.4512    3.8351 C.3     1  UNL1       -0.0383
     26 C          11.1299   -1.3976    4.5932 C.ar    1  UNL1        0.0456
     27 CL         11.9319   -2.6156    5.5286 Cl      1  UNL1       -0.0832
     28 C           9.7146   -1.3803    4.5883 C.ar    1  UNL1       -0.0219
     29 H           0.4182    0.0822   -0.6966 H       1  UNL1        0.0290
     30 H           0.7014    0.7468    0.8559 H       1  UNL1        0.0290
     31 H           0.6808   -1.0237    0.6164 H       1  UNL1        0.0290
     32 H           4.1857    0.0958   -1.3153 H       1  UNL1        0.0685
     33 H           4.0699    0.1855   -3.6904 H       1  UNL1        0.1551
     34 H           3.6257   -0.8373   -5.9911 H       1  UNL1        0.0636
     35 H           2.3621   -0.6279   -8.1041 H       1  UNL1        0.0618
     36 H           0.4142    0.8949   -8.2621 H       1  UNL1        0.0618
     37 H          -0.2820    2.2151   -6.3032 H       1  UNL1        0.0629
     38 H           2.7249   -0.2909    2.0744 H       1  UNL1        0.1696
     39 H           5.2515   -0.1070    0.5341 H       1  UNL1        0.1732
     40 H           7.0634   -0.7968    4.5244 H       1  UNL1        0.1553
     41 H           9.2587    1.1927    2.4282 H       1  UNL1        0.0636
     42 H          11.6972    1.2006    2.4858 H       1  UNL1        0.0621
     43 H          13.7721    0.3569    3.2038 H       1  UNL1        0.0278
     44 H          13.7886   -1.3893    3.4404 H       1  UNL1        0.0278
     45 H          13.7750   -0.2845    4.8443 H       1  UNL1        0.0278
     46 H           9.1864   -2.1273    5.1751 H       1  UNL1        0.0651
@<TRIPOS>BOND
     1     1     2    1
     2     2     3    2
     3     3     4    1
     4     4     5    2
     5     4     6   am
     6     6     7    1
     7     7     8   ar
     8     8     9   ar
     9     9    10   ar
    10    10    11   ar
    11    11    12   ar
    12     7    12   ar
    13    12    13    1
    14     2    14    1
    15    14    15    1
    16    15    16   am
    17    16    17    2
    18    16    18    1
    19    18    19    2
    20    18    20   am
    21    20    21    1
    22    21    22   ar
    23    22    23   ar
    24    23    24   ar
    25    24    25    1
    26    24    26   ar
    27    26    27    1
    28    26    28   ar
    29    21    28   ar
    30     1    29    1
    31     1    30    1
    32     1    31    1
    33     3    32    1
    34     6    33    1
    35     8    34    1
    36     9    35    1
    37    10    36    1
    38    11    37    1
    39    14    38    1
    40    15    39    1
    41    20    40    1
    42    22    41    1
    43    23    42    1
    44    25    43    1
    45    25    44    1
    46    25    45    1
    47    28    46    1
