REMARK  4 active torsions:
REMARK  status: ('A' for Active; 'I' for Inactive)
REMARK    1  A    between atoms: C_2  and  C_3 
REMARK    2  A    between atoms: C_3  and  C_4 
REMARK    3  A    between atoms: C_3  and  N_6 
REMARK       I    between atoms: N_6  and  C_7 
REMARK       I    between atoms: C_7  and  N_9 
REMARK    4  A    between atoms: N_9  and  C_10 
ROOT
ATOM      1  N   UNL d   1       4.494   1.442  -0.568  0.00  0.00    -0.338 N 
ATOM      2  C   UNL d   1       5.146   2.577  -1.038  0.00  0.00     0.322 C 
ATOM      3  O   UNL d   1       4.529   3.541  -1.467  0.00  0.00    -0.247 OA
ATOM      4  N   UNL d   1       6.527   2.533  -0.962  0.00  0.00    -0.291 N 
ATOM      5  H   UNL d   1       5.032   0.629  -0.304  0.00  0.00     0.164 HD
ATOM      6  H   UNL d   1       7.011   1.652  -1.011  0.00  0.00     0.172 HD
ENDROOT
BRANCH   1   7
ATOM      7  C   UNL d   1       2.997   1.362  -0.533  0.00  0.00     0.085 C 
BRANCH   7   8
ATOM      8  C   UNL d   1       2.510  -0.051  -0.096  0.00  0.00     0.021 C 
ATOM      9  C   UNL d   1       0.998  -0.297  -0.149  0.00  0.00     0.007 C 
ENDBRANCH   7   8
BRANCH   7  10
ATOM     10  C   UNL d   1       2.445   2.483   0.383  0.00  0.00     0.021 C 
ATOM     11  C   UNL d   1       0.940   2.700   0.381  0.00  0.00     0.007 C 
ENDBRANCH   7  10
ENDBRANCH   1   7
BRANCH   4  12
ATOM     12  C   UNL d   1       7.279   3.637  -1.375  0.00  0.00     0.161 A 
ATOM     13  C   UNL d   1       7.008   5.002  -1.106  0.00  0.00     0.087 A 
ATOM     14  C   UNL d   1       8.018   5.705  -1.712  0.00  0.00     0.078 A 
ATOM     15  C   UNL d   1       8.354   7.143  -1.801  0.00  0.00     0.079 C 
ATOM     16  O   UNL d   1       8.856   4.819  -2.320  0.00  0.00    -0.216 OA
ATOM     17  N   UNL d   1       8.429   3.518  -2.055  0.00  0.00    -0.110 NA
ENDBRANCH   4  12
TORSDOF 4
