REMARK  8 active torsions:
REMARK  status: ('A' for Active; 'I' for Inactive)
REMARK    1  A    between atoms: C_2  and  N_3 
REMARK       I    between atoms: N_3  and  C_4 
REMARK    2  A    between atoms: C_4  and  C_6 
REMARK    3  A    between atoms: C_10  and  N_11 
REMARK    4  A    between atoms: N_11  and  C_12 
REMARK    5  A    between atoms: C_12  and  C_13 
REMARK       I    between atoms: C_13  and  N_15 
REMARK    6  A    between atoms: N_15  and  C_16 
REMARK    7  A    between atoms: C_19  and  N_20 
REMARK       I    between atoms: N_20  and  C_21 
REMARK    8  A    between atoms: C_21  and  C_23 
ROOT
ATOM      1  C   UNL d   1       2.971  -7.068   3.535  0.00  0.00     0.239 C 
ATOM      2  O   UNL d   1       3.730  -7.662   4.305  0.00  0.00    -0.271 OA
ATOM      3  N   UNL d   1       1.854  -7.644   2.926  0.00  0.00    -0.326 N 
ATOM      4  H   UNL d   1       1.382  -7.167   2.168  0.00  0.00     0.169 HD
ENDROOT
BRANCH   3   5
ATOM      5  C   UNL d   1       1.379  -8.925   3.291  0.00  0.00     0.034 A 
ATOM      6  C   UNL d   1       0.771  -9.793   2.376  0.00  0.00     0.032 A 
ATOM      7  C   UNL d   1       0.262 -11.047   2.807  0.00  0.00     0.032 A 
ATOM      8  C   UNL d   1       0.379 -11.446   4.148  0.00  0.00     0.035 A 
ATOM      9  C   UNL d   1       0.955 -10.541   5.035  0.00  0.00     0.032 A 
ATOM     10  C   UNL d   1       1.455  -9.315   4.618  0.00  0.00     0.032 A 
BRANCH   8  11
ATOM     11  N   UNL d   1      -0.046 -12.737   4.578  0.00  0.00    -0.323 N 
ATOM     12  C   UNL d   1       0.066 -13.207   5.886  0.00  0.00     0.256 C 
ATOM     13  O   UNL d   1       0.490 -12.580   6.861  0.00  0.00    -0.267 OA
ATOM     14  H   UNL d   1      -0.429 -13.358   3.875  0.00  0.00     0.169 HD
BRANCH  12  15
ATOM     15  C   UNL d   1      -0.324 -14.600   6.188  0.00  0.00     0.032 A 
ATOM     16  C   UNL d   1      -0.895 -14.864   7.445  0.00  0.00     0.017 A 
ATOM     17  C   UNL d   1      -1.029 -16.174   7.900  0.00  0.00     0.002 A 
ATOM     18  C   UNL d   1      -0.646 -17.230   7.077  0.00  0.00     0.007 A 
ATOM     19  C   UNL d   1      -0.083 -16.978   5.817  0.00  0.00    -0.061 A 
ATOM     20  C   UNL d   1       0.422 -18.108   4.972  0.00  0.00     0.048 C 
ATOM     21  C   UNL d   1       0.080 -15.657   5.373  0.00  0.00     0.023 A 
ENDBRANCH  12  15
ENDBRANCH   8  11
ENDBRANCH   3   5
BRANCH   1  22
ATOM     22  C   UNL d   1       3.255  -5.614   3.150  0.00  0.00     0.223 C 
BRANCH  22  23
ATOM     23  N   UNL d   1       4.444  -5.126   3.854  0.00  0.00    -0.381 N 
ATOM     24  H   UNL d   1       4.969  -5.837   4.366  0.00  0.00     0.160 HD
BRANCH  23  25
ATOM     25  C   UNL d   1       5.014  -3.893   3.613  0.00  0.00     0.029 A 
ATOM     26  C   UNL d   1       6.222  -3.540   4.232  0.00  0.00     0.029 A 
ATOM     27  C   UNL d   1       6.816  -2.295   3.996  0.00  0.00     0.003 A 
ATOM     28  C   UNL d   1       6.188  -1.370   3.162  0.00  0.00     0.017 A 
ATOM     29  C   UNL d   1       5.000  -1.713   2.513  0.00  0.00     0.034 A 
ATOM     30  C   UNL d   1       4.407  -2.953   2.769  0.00  0.00     0.046 A 
BRANCH  29  31
ATOM     31  C   UNL d   1       4.497  -0.853   1.410  0.00  0.00     0.251 C 
ATOM     32  N   UNL d   1       3.134  -0.787   1.203  0.00  0.00    -0.357 N 
ATOM     33  H   UNL d   1       2.498  -1.207   1.869  0.00  0.00     0.162 HD
ATOM     34  O   UNL d   1       5.311  -0.260   0.699  0.00  0.00    -0.268 OA
BRANCH  32  35
ATOM     35  C   UNL d   1       2.599   0.011   0.113  0.00  0.00     0.118 C 
ATOM     36  C   UNL d   1       1.082   0.024   0.089  0.00  0.00     0.026 C 
ENDBRANCH  32  35
ENDBRANCH  29  31
ENDBRANCH  23  25
ENDBRANCH  22  23
ENDBRANCH   1  22
TORSDOF 8
