@<TRIPOS>MOLECULE
*****
 41 42 0 0 0
SMALL
GASTEIGER

@<TRIPOS>ATOM
      1 C           1.0635   -0.0177    0.0843 C.3     1  UNL1        0.0833
      2 O           2.5058   -0.0241    0.1002 O.3     1  UNL1       -0.4535
      3 C           3.0427    0.7687    1.0744 C.2     1  UNL1        0.4044
      4 O           2.3469    1.4437    1.8320 O.2     1  UNL1       -0.2261
      5 N           4.4309    0.7837    1.0285 N.am    1  UNL1       -0.2484
      6 C           5.1936    1.5797    1.9318 C.ar    1  UNL1        0.0734
      7 C           6.2642    2.4098    1.4948 C.ar    1  UNL1       -0.0163
      8 C           6.9029    3.3032    2.4003 C.ar    1  UNL1        0.0357
      9 N           7.9188    4.2289    1.9797 N.am    1  UNL1       -0.2777
     10 C           8.5723    5.1533    2.8183 C.2     1  UNL1        0.3031
     11 O           8.4024    5.3306    4.0217 O.2     1  UNL1       -0.2648
     12 C           9.6502    6.0591    2.1709 C.2     1  UNL1        0.2996
     13 O           9.8964    5.9752    0.9772 O.2     1  UNL1       -0.2652
     14 N          10.2705    6.9211    3.0706 N.am    1  UNL1       -0.3034
     15 C          11.2939    7.8666    2.6713 C.3     1  UNL1        0.0387
     16 C          11.7291    8.7892    3.7920 C.ar    1  UNL1       -0.0120
     17 C          12.4149    8.2695    4.9104 C.ar    1  UNL1       -0.0557
     18 C          12.7812    9.0941    5.9835 C.ar    1  UNL1       -0.0614
     19 C          12.4923   10.4552    5.9509 C.ar    1  UNL1       -0.0604
     20 C          11.8520   10.9949    4.8388 C.ar    1  UNL1       -0.0431
     21 C          11.4747   10.1732    3.7688 C.ar    1  UNL1        0.0456
     22 CL         10.6841   10.9479    2.4407 Cl      1  UNL1       -0.0832
     23 C           6.4873    3.2732    3.7374 C.ar    1  UNL1       -0.0376
     24 C           5.4989    2.4043    4.1876 C.ar    1  UNL1       -0.0229
     25 C           4.8601    1.5702    3.2926 C.ar    1  UNL1        0.1447
     26 F           3.9615    0.7008    3.7794 F       1  UNL1       -0.2035
     27 H           0.7107   -0.6707   -0.7209 H       1  UNL1        0.0661
     28 H           0.6756    0.9899   -0.1093 H       1  UNL1        0.0661
     29 H           0.6592   -0.4007    1.0288 H       1  UNL1        0.0661
     30 H           4.8606    0.3847    0.2060 H       1  UNL1        0.1583
     31 H           6.5388    2.4060    0.4427 H       1  UNL1        0.0656
     32 H           8.1901    4.2442    0.9993 H       1  UNL1        0.1553
     33 H           9.9328    6.9133    4.0313 H       1  UNL1        0.1495
     34 H          10.8988    8.4183    1.8153 H       1  UNL1        0.0512
     35 H          12.1562    7.3046    2.2942 H       1  UNL1        0.0512
     36 H          12.6659    7.2109    4.9614 H       1  UNL1        0.0621
     37 H          13.2847    8.6741    6.8525 H       1  UNL1        0.0618
     38 H          12.7623   11.0967    6.7868 H       1  UNL1        0.0618
     39 H          11.6360   12.0608    4.8121 H       1  UNL1        0.0632
     40 H           6.9083    3.9229    4.4931 H       1  UNL1        0.0637
     41 H           5.2230    2.3904    5.2362 H       1  UNL1        0.0647
@<TRIPOS>BOND
     1     1     2    1
     2     2     3    1
     3     3     4    2
     4     3     5   am
     5     5     6    1
     6     6     7   ar
     7     7     8   ar
     8     8     9    1
     9     9    10   am
    10    10    11    2
    11    10    12    1
    12    12    13    2
    13    12    14   am
    14    14    15    1
    15    15    16    1
    16    16    17   ar
    17    17    18   ar
    18    18    19   ar
    19    19    20   ar
    20    20    21   ar
    21    16    21   ar
    22    21    22    1
    23     8    23   ar
    24    23    24   ar
    25    24    25   ar
    26     6    25   ar
    27    25    26    1
    28     1    27    1
    29     1    28    1
    30     1    29    1
    31     5    30    1
    32     7    31    1
    33     9    32    1
    34    14    33    1
    35    15    34    1
    36    15    35    1
    37    17    36    1
    38    18    37    1
    39    19    38    1
    40    20    39    1
    41    23    40    1
    42    24    41    1
