@<TRIPOS>MOLECULE
*****
 41 42 0 0 0
SMALL
GASTEIGER

@<TRIPOS>ATOM
      1 O           1.0317   -0.1938   -0.0269 O.2     1  UNL1       -0.2734
      2 C           2.2613   -0.0614    0.0312 C.2     1  UNL1        0.2389
      3 C           2.9745    0.9485    0.9693 C.3     1  UNL1        0.0721
      4 S           1.7202    1.9532    1.8799 S.3     1  UNL1       -0.1420
      5 C           2.6755    3.1326    2.9399 C.3     1  UNL1        0.0721
      6 C           1.6807    4.0307    3.7351 C.2     1  UNL1        0.2389
      7 O           0.4500    3.9019    3.6951 O.2     1  UNL1       -0.2734
      8 N           2.2540    5.0344    4.5269 N.am    1  UNL1       -0.2358
      9 N           1.4056    5.5393    5.5586 N.pl3   1  UNL1       -0.2645
     10 C           1.7863    6.7348    6.2187 C.ar    1  UNL1        0.0444
     11 C           1.0829    7.0996    7.3832 C.ar    1  UNL1       -0.0394
     12 C           1.3703    8.2842    8.0747 C.ar    1  UNL1       -0.0600
     13 C           2.4063    9.1040    7.6423 C.ar    1  UNL1       -0.0616
     14 C           3.1284    8.7510    6.5043 C.ar    1  UNL1       -0.0600
     15 C           2.8162    7.5803    5.7950 C.ar    1  UNL1       -0.0394
     16 N           3.0179   -0.8534   -0.8127 N.am    1  UNL1       -0.2358
     17 N           4.3828   -1.0043   -0.7044 N.pl3   1  UNL1       -0.2645
     18 C           5.0664   -1.8940   -1.5481 C.ar    1  UNL1        0.0444
     19 C           6.1528   -2.5975   -1.0058 C.ar    1  UNL1       -0.0394
     20 C           6.9277   -3.4611   -1.7845 C.ar    1  UNL1       -0.0600
     21 C           6.5888   -3.6871   -3.1134 C.ar    1  UNL1       -0.0616
     22 C           5.4904   -3.0283   -3.6640 C.ar    1  UNL1       -0.0600
     23 C           4.7265   -2.1443   -2.8835 C.ar    1  UNL1       -0.0394
     24 H           3.6004    1.6062    0.3595 H       1  UNL1        0.0471
     25 H           3.5881    0.3916    1.6845 H       1  UNL1        0.0471
     26 H           3.3083    3.7676    2.3131 H       1  UNL1        0.0471
     27 H           3.2933    2.5722    3.6498 H       1  UNL1        0.0471
     28 H           3.2334    4.9919    4.7866 H       1  UNL1        0.1727
     29 H           0.4253    5.5855    5.2414 H       1  UNL1        0.1700
     30 H           0.3104    6.4430    7.7793 H       1  UNL1        0.0636
     31 H           0.7854    8.5645    8.9480 H       1  UNL1        0.0618
     32 H           2.6492   10.0131    8.1882 H       1  UNL1        0.0618
     33 H           3.9299    9.3982    6.1570 H       1  UNL1        0.0618
     34 H           3.3804    7.3608    4.8956 H       1  UNL1        0.0636
     35 H           2.5039   -1.5812   -1.3072 H       1  UNL1        0.1727
     36 H           4.9392   -0.4145   -0.0972 H       1  UNL1        0.1700
     37 H           6.3951   -2.4853    0.0479 H       1  UNL1        0.0636
     38 H           7.7961   -3.9506   -1.3514 H       1  UNL1        0.0618
     39 H           7.1776   -4.3759   -3.7151 H       1  UNL1        0.0618
     40 H           5.2420   -3.1893   -4.7111 H       1  UNL1        0.0618
     41 H           3.9027   -1.6163   -3.3565 H       1  UNL1        0.0636
@<TRIPOS>BOND
     1     1     2    2
     2     2     3    1
     3     3     4    1
     4     4     5    1
     5     5     6    1
     6     6     7    2
     7     6     8   am
     8     8     9    1
     9     9    10    1
    10    10    11   ar
    11    11    12   ar
    12    12    13   ar
    13    13    14   ar
    14    14    15   ar
    15    10    15   ar
    16     2    16   am
    17    16    17    1
    18    17    18    1
    19    18    19   ar
    20    19    20   ar
    21    20    21   ar
    22    21    22   ar
    23    22    23   ar
    24    18    23   ar
    25     3    24    1
    26     3    25    1
    27     5    26    1
    28     5    27    1
    29     8    28    1
    30     9    29    1
    31    11    30    1
    32    12    31    1
    33    13    32    1
    34    14    33    1
    35    15    34    1
    36    16    35    1
    37    17    36    1
    38    19    37    1
    39    20    38    1
    40    21    39    1
    41    22    40    1
    42    23    41    1
