REMARK  14 active torsions:
REMARK  status: ('A' for Active; 'I' for Inactive)
REMARK    1  A    between atoms: C_2  and  C_4 
REMARK    2  A    between atoms: C_4  and  C_5 
REMARK    3  A    between atoms: C_5  and  O_6 
REMARK    4  A    between atoms: O_6  and  C_7 
REMARK    5  A    between atoms: C_11  and  C_12 
REMARK       I    between atoms: C_12  and  N_14 
REMARK    6  A    between atoms: N_14  and  C_15 
REMARK    7  A    between atoms: C_15  and  N_17 
REMARK    8  A    between atoms: C_23  and  C_24 
REMARK    9  A    between atoms: C_24  and  C_25 
REMARK   10  A    between atoms: C_25  and  O_27 
REMARK   11  A    between atoms: O_27  and  C_28 
REMARK   12  A    between atoms: C_28  and  C_29 
REMARK   13  A    between atoms: C_29  and  C_30 
REMARK   14  A    between atoms: C_30  and  C_31 
ROOT
ATOM      1  N   UNL d   1       9.059   4.367   1.139  0.00  0.00    -0.343 N 
ATOM      2  C   UNL d   1       9.763   5.234   0.183  0.00  0.00     0.146 C 
ATOM      3  C   UNL d   1       8.856   5.389  -1.020  0.00  0.00     0.142 C 
ATOM      4  N   UNL d   1       7.602   5.998  -0.633  0.00  0.00    -0.358 N 
ATOM      5  C   UNL d   1       6.994   5.744   0.576  0.00  0.00     0.241 C 
ATOM      6  O   UNL d   1       5.869   6.200   0.783  0.00  0.00    -0.271 OA
ATOM      7  C   UNL d   1       7.853   5.077   1.718  0.00  0.00     0.188 C 
ATOM      8  H   UNL d   1       7.032   6.459  -1.335  0.00  0.00     0.162 HD
ENDROOT
BRANCH   1   9
ATOM      9  C   UNL d   1       9.754   3.235   1.671  0.00  0.00     0.177 C 
ATOM     10  S   UNL d   1      11.459   3.148   1.680  0.00  0.00    -0.041 SA
BRANCH   9  11
ATOM     11  N   UNL d   1       8.941   2.164   2.081  0.00  0.00    -0.299 N 
ATOM     12  C   UNL d   1       9.418   0.920   2.563  0.00  0.00     0.257 C 
ATOM     13  O   UNL d   1      10.561   0.719   2.968  0.00  0.00    -0.267 OA
ATOM     14  H   UNL d   1       7.981   2.227   1.790  0.00  0.00     0.171 HD
BRANCH  12  15
ATOM     15  C   UNL d   1       8.518  -0.265   2.681  0.00  0.00     0.035 A 
ATOM     16  C   UNL d   1       9.058  -1.448   3.233  0.00  0.00     0.017 A 
ATOM     17  C   UNL d   1       8.259  -2.567   3.469  0.00  0.00     0.004 A 
ATOM     18  C   UNL d   1       6.923  -2.539   3.090  0.00  0.00     0.037 A 
ATOM     19  C   UNL d   1       6.377  -1.379   2.540  0.00  0.00     0.069 A 
ATOM     20  C   UNL d   1       7.172  -0.244   2.335  0.00  0.00     0.053 A 
BRANCH  19  21
ATOM     21  O   UNL d   1       5.022  -1.408   2.335  0.00  0.00    -0.351 OA
BRANCH  21  22
ATOM     22  C   UNL d   1       4.587  -0.683   1.190  0.00  0.00     0.176 C 
BRANCH  22  23
ATOM     23  C   UNL d   1       3.064  -0.642   1.173  0.00  0.00     0.030 C 
BRANCH  23  24
ATOM     24  C   UNL d   1       2.531   0.062  -0.083  0.00  0.00    -0.021 C 
ATOM     25  C   UNL d   1       1.005   0.040  -0.090  0.00  0.00     0.009 C 
ATOM     26  C   UNL d   1       3.019   1.510  -0.173  0.00  0.00     0.009 C 
ENDBRANCH  23  24
ENDBRANCH  22  23
ENDBRANCH  21  22
ENDBRANCH  19  21
ENDBRANCH  12  15
ENDBRANCH   9  11
ENDBRANCH   1   9
BRANCH   7  27
ATOM     27  C   UNL d   1       8.189   6.276   2.686  0.00  0.00     0.146 C 
BRANCH  27  28
ATOM     28  C   UNL d   1       9.469   6.115   3.450  0.00  0.00     0.261 C 
ATOM     29  O   UNL d   1      10.142   5.092   3.437  0.00  0.00    -0.265 OA
BRANCH  28  30
ATOM     30  O   UNL d   1       9.863   7.168   4.198  0.00  0.00    -0.321 OA
BRANCH  30  31
ATOM     31  C   UNL d   1      11.137   6.857   4.820  0.00  0.00     0.179 C 
BRANCH  31  32
ATOM     32  C   UNL d   1      11.479   7.970   5.759  0.00  0.00     0.031 C 
BRANCH  32  33
ATOM     33  C   UNL d   1      12.836   7.809   6.457  0.00  0.00     0.041 C 
BRANCH  33  34
ATOM     34  C   UNL d   1      13.076   8.963   7.408  0.00  0.00    -0.058 A 
ATOM     35  C   UNL d   1      13.895   8.819   8.532  0.00  0.00     0.007 A 
ATOM     36  C   UNL d   1      13.929   9.830   9.499  0.00  0.00     0.001 A 
ATOM     37  C   UNL d   1      13.231  11.023   9.304  0.00  0.00     0.000 A 
ATOM     38  C   UNL d   1      12.480  11.206   8.155  0.00  0.00     0.001 A 
ATOM     39  C   UNL d   1      12.422  10.191   7.214  0.00  0.00     0.007 A 
ENDBRANCH  33  34
ENDBRANCH  32  33
ENDBRANCH  31  32
ENDBRANCH  30  31
ENDBRANCH  28  30
ENDBRANCH  27  28
ENDBRANCH   7  27
TORSDOF 14
