@<TRIPOS>MOLECULE
*****
 67 72 0 0 0
SMALL
GASTEIGER

@<TRIPOS>ATOM
      1 C           6.3560    1.2319   -4.8728 C.3     1  UNL1       -0.0401
      2 C           6.3824    0.8040   -3.4076 C.3     1  UNL1        0.0591
      3 C           7.3318    1.5463   -2.4329 C.3     1  UNL1       -0.0401
      4 C           5.1322    1.4558   -3.0440 C.3     1  UNL1       -0.0401
      5 N           6.2575   -0.6427   -3.1715 N.ar    1  UNL1       -0.2188
      6 N           7.3843   -1.3658   -3.3398 N.ar    1  UNL1       -0.0432
      7 N           7.0439   -2.6323   -3.2019 N.ar    1  UNL1       -0.0228
      8 N           5.7262   -2.7464   -2.8559 N.ar    1  UNL1       -0.1071
      9 C           5.2167   -1.5176   -2.7827 C.ar    1  UNL1        0.2048
     10 C           3.7171   -1.3110   -2.3561 C.3     1  UNL1        0.0727
     11 C           3.0637    0.0573   -2.1533 C.ar    1  UNL1        0.0725
     12 C           3.3854    0.8688   -1.1152 C.ar    1  UNL1       -0.0383
     13 C           3.1600    2.3033   -1.0411 C.ar    1  UNL1        0.0027
     14 C           3.8892    3.1583   -0.1627 C.ar    1  UNL1       -0.0070
     15 C           3.9040    4.5216   -0.4655 C.ar    1  UNL1        0.1669
     16 C           3.7555    4.8751   -1.7822 C.ar    1  UNL1        0.1682
     17 C           2.9355    4.0950   -2.5816 C.ar    1  UNL1        0.0078
     18 C           2.6092    2.8122   -2.2071 C.ar    1  UNL1        0.0529
     19 N           2.0235    1.9809   -3.1794 N.ar    1  UNL1       -0.3216
     20 C           2.2028    0.6286   -3.2175 C.ar    1  UNL1        0.2582
     21 O           1.8614   -0.0736   -4.1934 O.2     1  UNL1       -0.2674
     22 O           3.6111    6.2295   -1.9480 O.3     1  UNL1       -0.4525
     23 C           2.6293    6.3301   -0.9202 C.3     1  UNL1        0.2332
     24 O           3.0425    5.4704    0.2010 O.3     1  UNL1       -0.4526
     25 N           3.3714   -2.1036   -1.0300 N.4     1  UNL1        0.2486
     26 C           4.1944   -1.6570    0.2167 C.3     1  UNL1       -0.0147
     27 C           3.5765   -1.9634    1.5704 C.3     1  UNL1        0.0525
     28 N           2.1665   -1.5516    1.5095 N.pl3   1  UNL1       -0.3198
     29 C           1.5888   -0.5563    2.2797 C.ar    1  UNL1        0.0302
     30 C           2.0116    0.7891    2.3403 C.ar    1  UNL1       -0.0372
     31 C           1.4321    1.7252    3.2358 C.ar    1  UNL1       -0.0184
     32 C           0.3640    1.3392    4.0296 C.ar    1  UNL1        0.1170
     33 O          -0.2218    2.1641    4.9417 O.3     1  UNL1       -0.5068
     34 C          -0.1449    0.0581    3.9082 C.ar    1  UNL1       -0.0184
     35 C           0.4859   -0.8774    3.0769 C.ar    1  UNL1       -0.0372
     36 C           1.3773   -2.3703    0.5809 C.3     1  UNL1        0.0525
     37 C           1.8073   -2.0273   -0.8420 C.3     1  UNL1       -0.0147
     38 H           6.0968    2.3037   -4.9471 H       1  UNL1        0.0253
     39 H           5.5380    0.7103   -5.3999 H       1  UNL1        0.0253
     40 H           7.2928    1.0724   -5.3811 H       1  UNL1        0.0253
     41 H           7.0792    2.6218   -2.4056 H       1  UNL1        0.0253
     42 H           8.3788    1.4483   -2.6860 H       1  UNL1        0.0253
     43 H           7.1808    1.2077   -1.3906 H       1  UNL1        0.0253
     44 H           5.0264    2.5220   -3.2155 H       1  UNL1        0.0253
     45 H           5.1781    1.3415   -1.9830 H       1  UNL1        0.0253
     46 H           4.3717    0.9590   -3.6286 H       1  UNL1        0.0253
     47 H           3.1679   -1.8847   -3.1273 H       1  UNL1        0.0991
     48 H           4.2933    0.6335   -0.5880 H       1  UNL1        0.0631
     49 H           4.8199    2.7396    0.2730 H       1  UNL1        0.0662
     50 H           2.4574    4.5734   -3.4199 H       1  UNL1        0.0676
     51 H           1.7069    2.4196   -4.0360 H       1  UNL1        0.1689
     52 H           1.6634    5.9648   -1.3282 H       1  UNL1        0.1166
     53 H           2.4750    7.3896   -0.7061 H       1  UNL1        0.1166
     54 H           3.6336   -3.0819   -1.2160 H       1  UNL1        0.2046
     55 H           4.0979   -0.6097    0.3486 H       1  UNL1        0.0830
     56 H           5.2596   -1.8461    0.0578 H       1  UNL1        0.0830
     57 H           4.1189   -1.4140    2.3508 H       1  UNL1        0.0516
     58 H           3.6771   -3.0333    1.7533 H       1  UNL1        0.0516
     59 H           2.7741    1.1762    1.6752 H       1  UNL1        0.0637
     60 H           1.8134    2.7437    3.2933 H       1  UNL1        0.0655
     61 H           0.2916    2.9828    5.0420 H       1  UNL1        0.2921
     62 H          -1.0220   -0.2312    4.4790 H       1  UNL1        0.0655
     63 H           0.1231   -1.9000    3.0943 H       1  UNL1        0.0637
     64 H           0.3004   -2.2093    0.6808 H       1  UNL1        0.0516
     65 H           1.5917   -3.4283    0.7485 H       1  UNL1        0.0516
     66 H           1.4693   -1.0003   -1.0075 H       1  UNL1        0.0830
     67 H           1.3511   -2.6477   -1.6207 H       1  UNL1        0.0830
@<TRIPOS>UNITY_ATOM_ATTR
25 1
charge 1
@<TRIPOS>BOND
     1     1     2    1
     2     2     3    1
     3     2     4    1
     4     2     5    1
     5     5     6   ar
     6     6     7   ar
     7     7     8   ar
     8     8     9   ar
     9     5     9   ar
    10    11    12   ar
    11    12    13   ar
    12    13    14   ar
    13    14    15   ar
    14    15    16   ar
    15    16    17   ar
    16    17    18   ar
    17    13    18   ar
    18    18    19   ar
    19    19    20   ar
    20    11    20   ar
    21    20    21    2
    22    16    22    1
    23    22    23    1
    24    23    24    1
    25    15    24    1
    26    10    25    1
    27    25    26    1
    28    26    27    1
    29    27    28    1
    30    28    29    1
    31    29    30   ar
    32    30    31   ar
    33    31    32   ar
    34    32    33    1
    35    32    34   ar
    36    34    35   ar
    37    29    35   ar
    38    28    36    1
    39    36    37    1
    40    25    37    1
    41    10    11    1
    42    10     9    1
    43     1    38    1
    44     1    39    1
    45     1    40    1
    46     3    41    1
    47     3    42    1
    48     3    43    1
    49     4    44    1
    50     4    45    1
    51     4    46    1
    52    10    47    1
    53    12    48    1
    54    14    49    1
    55    17    50    1
    56    19    51    1
    57    23    52    1
    58    23    53    1
    59    25    54    1
    60    26    55    1
    61    26    56    1
    62    27    57    1
    63    27    58    1
    64    30    59    1
    65    31    60    1
    66    33    61    1
    67    34    62    1
    68    35    63    1
    69    36    64    1
    70    36    65    1
    71    37    66    1
    72    37    67    1
