REMARK  5 active torsions:
REMARK  status: ('A' for Active; 'I' for Inactive)
REMARK    1  A    between atoms: C_7  and  N_8 
REMARK       I    between atoms: N_8  and  C_9 
REMARK       I    between atoms: C_9  and  N_11 
REMARK    2  A    between atoms: N_11  and  C_12 
REMARK    3  A    between atoms: C_14  and  N_15 
REMARK       I    between atoms: N_15  and  C_16 
REMARK    4  A    between atoms: C_16  and  C_18 
REMARK    5  A    between atoms: C_27  and  N_28 
ROOT
ATOM      1  C   UNL d   1       2.419  -6.099   0.025  0.00  0.00     0.065 A 
ATOM      2  C   UNL d   1       2.596  -7.302  -0.717  0.00  0.00     0.061 A 
ATOM      3  C   UNL d   1       3.768  -8.085  -0.561  0.00  0.00     0.037 A 
ATOM      4  C   UNL d   1       4.794  -7.578   0.226  0.00  0.00     0.032 A 
ATOM      5  C   UNL d   1       4.631  -6.413   0.951  0.00  0.00     0.034 A 
ATOM      6  C   UNL d   1       3.456  -5.660   0.888  0.00  0.00     0.057 A 
ENDROOT
BRANCH   1   7
ATOM      7  N   UNL d   1       1.194  -5.339  -0.064  0.00  0.00    -0.306 N 
ATOM      8  C   UNL d   1       1.259  -3.966  -0.284  0.00  0.00     0.325 C 
ATOM      9  N   UNL d   1       0.089  -3.248  -0.038  0.00  0.00    -0.309 N 
ATOM     10  O   UNL d   1       2.308  -3.435  -0.662  0.00  0.00    -0.247 OA
ATOM     11  H   UNL d   1      -0.789  -3.745   0.003  0.00  0.00     0.170 HD
ATOM     12  H   UNL d   1       0.344  -5.832  -0.281  0.00  0.00     0.170 HD
BRANCH   9  13
ATOM     13  C   UNL d   1       0.036  -1.810  -0.012  0.00  0.00     0.037 A 
ATOM     14  C   UNL d   1      -1.186  -1.125   0.002  0.00  0.00     0.036 A 
ATOM     15  C   UNL d   1      -1.226   0.294   0.001  0.00  0.00    -0.059 A 
ATOM     16  C   UNL d   1      -0.032   1.032  -0.005  0.00  0.00     0.013 A 
ATOM     17  C   UNL d   1      -2.542   1.020  -0.004  0.00  0.00     0.048 C 
ATOM     18  C   UNL d   1       1.189   0.372   0.007  0.00  0.00    -0.059 A 
ATOM     19  C   UNL d   1       2.506   1.092   0.011  0.00  0.00     0.048 C 
ATOM     20  C   UNL d   1       1.199  -1.028   0.015  0.00  0.00     0.036 A 
ENDBRANCH   9  13
ENDBRANCH   1   7
BRANCH   6  21
ATOM     21  N   UNL d   1       3.393  -4.569   1.732  0.00  0.00    -0.379 N 
ATOM     22  C   UNL d   1       4.316  -3.460   1.518  0.00  0.00     0.123 C 
ATOM     23  C   UNL d   1       4.974  -3.155   2.857  0.00  0.00     0.020 C 
ATOM     24  C   UNL d   1       3.913  -2.912   3.939  0.00  0.00     0.003 C 
ATOM     25  C   UNL d   1       2.868  -4.036   3.994  0.00  0.00     0.020 C 
ATOM     26  C   UNL d   1       2.276  -4.303   2.614  0.00  0.00     0.123 C 
ENDBRANCH   6  21
BRANCH   3  27
ATOM     27  N   UNL d   1       3.890  -9.386  -1.135  0.00  0.00    -0.323 N 
ATOM     28  C   UNL d   1       4.926 -10.284  -0.866  0.00  0.00     0.257 C 
ATOM     29  O   UNL d   1       5.894 -10.098  -0.122  0.00  0.00    -0.267 OA
ATOM     30  H   UNL d   1       3.129  -9.705  -1.724  0.00  0.00     0.169 HD
BRANCH  28  31
ATOM     31  C   UNL d   1       4.902 -11.627  -1.486  0.00  0.00     0.054 A 
ATOM     32  C   UNL d   1       5.394 -12.697  -0.703  0.00  0.00     0.019 A 
ATOM     33  C   UNL d   1       5.622 -13.951  -1.268  0.00  0.00     0.001 A 
ATOM     34  C   UNL d   1       5.302 -14.167  -2.603  0.00  0.00     0.002 A 
ATOM     35  C   UNL d   1       4.801 -13.119  -3.380  0.00  0.00     0.025 A 
ATOM     36  C   UNL d   1       4.607 -11.847  -2.831  0.00  0.00     0.049 A 
ATOM     37 CL   UNL d   1       4.048 -10.607  -3.894  0.00  0.00    -0.083 Cl
ENDBRANCH  28  31
ENDBRANCH   3  27
TORSDOF 5
