@<TRIPOS>MOLECULE
*****
 45 47 0 0 0
SMALL
GASTEIGER

@<TRIPOS>ATOM
      1 O           1.0965    0.0694    0.0002 O.2     1  UNL1       -0.2738
      2 C           2.3248   -0.0308    0.0784 C.2     1  UNL1        0.2343
      3 C           3.0114   -1.2142    0.7917 C.3     1  UNL1        0.0861
      4 N           2.0656   -2.2308    1.2363 N.pl3   1  UNL1       -0.3354
      5 C           2.5168   -3.4314    1.7572 C.ar    1  UNL1        0.0275
      6 C           1.8674   -4.6313    1.4629 C.ar    1  UNL1       -0.0401
      7 C           2.1958   -5.8169    2.1438 C.ar    1  UNL1       -0.0479
      8 C           3.2553   -5.8547    3.0615 C.ar    1  UNL1        0.0368
      9 C           3.5836   -7.1706    3.7239 C.2     1  UNL1        0.2444
     10 O           2.9191   -8.1673    3.4882 O.2     1  UNL1       -0.2702
     11 N           4.6684   -7.1942    4.5751 N.am    1  UNL1       -0.3042
     12 C           5.1275   -8.4058    5.2448 C.3     1  UNL1        0.0700
     13 C           6.2874   -8.0640    6.1260 C.ar    1  UNL1        0.1218
     14 C           6.7857   -6.8654    6.6013 C.ar    1  UNL1       -0.0192
     15 C           7.9161   -7.1655    7.3886 C.ar    1  UNL1       -0.0236
     16 C           8.0346   -8.5341    7.3746 C.ar    1  UNL1        0.0921
     17 O           7.0542   -9.0919    6.6092 O.2     1  UNL1       -0.4662
     18 C           3.9701   -4.6728    3.2819 C.ar    1  UNL1       -0.0479
     19 C           3.6216   -3.4911    2.6112 C.ar    1  UNL1       -0.0401
     20 N           3.1099    1.0115   -0.3766 N.am    1  UNL1       -0.2830
     21 C           4.5136    1.0457   -0.5114 C.ar    1  UNL1        0.0519
     22 C           5.1825    2.2213   -0.1386 C.ar    1  UNL1       -0.0390
     23 C           6.5750    2.3111   -0.2643 C.ar    1  UNL1       -0.0599
     24 C           7.3152    1.2037   -0.6730 C.ar    1  UNL1       -0.0603
     25 C           6.6606    0.0426   -1.0647 C.ar    1  UNL1       -0.0416
     26 C           5.2680   -0.0013   -1.0715 C.ar    1  UNL1        0.0621
     27 CL          4.5700   -1.2450   -2.0647 Cl      1  UNL1       -0.0816
     28 H           3.5797   -0.8083    1.6343 H       1  UNL1        0.0557
     29 H           3.6946   -1.7221    0.1286 H       1  UNL1        0.0557
     30 H           1.1217   -2.1579    0.8657 H       1  UNL1        0.1466
     31 H           1.0956   -4.6615    0.6964 H       1  UNL1        0.0636
     32 H           1.5990   -6.7092    1.9628 H       1  UNL1        0.0626
     33 H           5.2301   -6.3718    4.6824 H       1  UNL1        0.1495
     34 H           5.4045   -9.1428    4.4828 H       1  UNL1        0.0543
     35 H           4.3004   -8.8119    5.8364 H       1  UNL1        0.0543
     36 H           6.3796   -5.8866    6.3992 H       1  UNL1        0.0652
     37 H           8.5545   -6.4643    7.9068 H       1  UNL1        0.0649
     38 H           8.7309   -9.2211    7.8375 H       1  UNL1        0.1029
     39 H           4.7843   -4.6060    3.9925 H       1  UNL1        0.0626
     40 H           4.1973   -2.5946    2.8225 H       1  UNL1        0.0636
     41 H           2.5893    1.8586   -0.5801 H       1  UNL1        0.1549
     42 H           4.6452    3.0738    0.2742 H       1  UNL1        0.0636
     43 H           7.0891    3.2450   -0.0448 H       1  UNL1        0.0618
     44 H           8.3988    1.2553   -0.7407 H       1  UNL1        0.0618
     45 H           7.2302   -0.8023   -1.4417 H       1  UNL1        0.0633
@<TRIPOS>BOND
     1     1     2    2
     2     2     3    1
     3     3     4    1
     4     4     5    1
     5     5     6   ar
     6     6     7   ar
     7     7     8   ar
     8     8     9    1
     9     9    10    2
    10     9    11   am
    11    11    12    1
    12    12    13    1
    13    13    14   ar
    14    14    15   ar
    15    15    16   ar
    16    16    17   ar
    17    13    17   ar
    18     8    18   ar
    19    18    19   ar
    20     5    19   ar
    21     2    20   am
    22    20    21    1
    23    21    22   ar
    24    22    23   ar
    25    23    24   ar
    26    24    25   ar
    27    25    26   ar
    28    21    26   ar
    29    26    27    1
    30     3    28    1
    31     3    29    1
    32     4    30    1
    33     6    31    1
    34     7    32    1
    35    11    33    1
    36    12    34    1
    37    12    35    1
    38    14    36    1
    39    15    37    1
    40    16    38    1
    41    18    39    1
    42    19    40    1
    43    20    41    1
    44    22    42    1
    45    23    43    1
    46    24    44    1
    47    25    45    1
