REMARK  10 active torsions:
REMARK  status: ('A' for Active; 'I' for Inactive)
REMARK    1  A    between atoms: C_2  and  C_3 
REMARK    2  A    between atoms: C_3  and  S_4 
REMARK    3  A    between atoms: S_4  and  C_5 
REMARK    4  A    between atoms: C_8  and  C_9 
REMARK       I    between atoms: C_9  and  N_11 
REMARK    5  A    between atoms: N_11  and  C_12 
REMARK    6  A    between atoms: C_12  and  C_13 
REMARK    7  A    between atoms: C_13  and  C_14 
REMARK    8  A    between atoms: C_13  and  N_24 
REMARK    9  A    between atoms: C_16  and  O_17 
REMARK   10  A    between atoms: C_21  and  O_22 
ROOT
ATOM      1  C   UNL d   1       7.495   4.635   8.905  0.00  0.00     0.241 C 
ENDROOT
BRANCH   1   2
ATOM      2  C   UNL d   1       6.689   5.131   7.644  0.00  0.00     0.161 C 
BRANCH   2   3
ATOM      3  N   UNL d   1       6.264   4.180   6.638  0.00  0.00    -0.354 N 
ATOM      4  C   UNL d   1       5.964   4.708   5.367  0.00  0.00     0.256 C 
ATOM      5  O   UNL d   1       5.832   5.896   5.175  0.00  0.00    -0.268 OA
ATOM      6  H   UNL d   1       6.749   3.290   6.614  0.00  0.00     0.162 HD
BRANCH   4   7
ATOM      7  C   UNL d   1       5.829   3.751   4.243  0.00  0.00     0.090 A 
ATOM      8  C   UNL d   1       5.309   4.184   3.040  0.00  0.00     0.139 A 
ATOM      9  N   UNL d   1       4.999   3.349   2.018  0.00  0.00    -0.234 NA
ATOM     10  C   UNL d   1       5.245   2.042   2.206  0.00  0.00     0.189 A 
ATOM     11  N   UNL d   1       5.821   1.535   3.296  0.00  0.00    -0.210 NA
ATOM     12  C   UNL d   1       6.102   2.403   4.279  0.00  0.00     0.146 A 
ATOM     13 CL   UNL d   1       6.858   1.581   5.596  0.00  0.00    -0.061 Cl
BRANCH  10  14
ATOM     14  S   UNL d   1       4.846   0.891   0.929  0.00  0.00    -0.090 SA
BRANCH  14  15
ATOM     15  C   UNL d   1       3.025   0.935   1.013  0.00  0.00     0.082 C 
BRANCH  15  16
ATOM     16  C   UNL d   1       2.467  -0.035  -0.030  0.00  0.00     0.006 C 
ATOM     17  C   UNL d   1       0.946  -0.045  -0.039  0.00  0.00     0.006 C 
ENDBRANCH  15  16
ENDBRANCH  14  15
ENDBRANCH  10  14
ENDBRANCH   4   7
ENDBRANCH   2   3
ENDBRANCH   1   2
BRANCH   1  18
ATOM     18  C   UNL d   1       8.855   4.002   8.490  0.00  0.00     0.010 C 
ATOM     19  C   UNL d   1       8.957   2.569   8.490  0.00  0.00     0.049 C 
ATOM     20  C   UNL d   1      10.185   1.906   8.267  0.00  0.00     0.069 C 
ATOM     21  C   UNL d   1      11.317   2.655   7.992  0.00  0.00     0.039 C 
ATOM     22  C   UNL d   1      11.235   4.027   7.940  0.00  0.00     0.040 C 
ATOM     23  C   UNL d   1      10.017   4.697   8.058  0.00  0.00     0.076 C 
BRANCH  20  24
ATOM     24  O   UNL d   1      10.212   0.538   8.379  0.00  0.00    -0.356 OA
ATOM     25  C   UNL d   1      11.530  -0.038   8.379  0.00  0.00     0.210 C 
ENDBRANCH  20  24
BRANCH  23  26
ATOM     26  O   UNL d   1      10.247   5.964   7.570  0.00  0.00    -0.355 OA
ATOM     27  C   UNL d   1       9.228   6.896   7.453  0.00  0.00     0.210 C 
ENDBRANCH  23  26
ENDBRANCH   1  18
BRANCH   1  28
ATOM     28  N   UNL d   1       7.588   5.800  10.164  0.00  0.00    -0.061 N 
ATOM     29  C   UNL d   1       8.244   7.154   9.904  0.00  0.00     0.236 C 
ATOM     30  C   UNL d   1       8.221   8.265  10.908  0.00  0.00     0.028 C 
ATOM     31  C   UNL d   1       6.777   8.468  11.248  0.00  0.00     0.003 C 
ATOM     32  C   UNL d   1       6.310   7.146  11.849  0.00  0.00     0.028 C 
ATOM     33  C   UNL d   1       6.237   6.019  10.806  0.00  0.00     0.236 C 
ATOM     34  H   UNL d   1       8.202   5.329  10.844  0.00  0.00     0.280 HD
ENDBRANCH   1  28
TORSDOF 10
