REMARK  8 active torsions:
REMARK  status: ('A' for Active; 'I' for Inactive)
REMARK       I    between atoms: C_2  and  N_3 
REMARK    1  A    between atoms: C_2  and  C_14 
REMARK    2  A    between atoms: N_3  and  CA_4 
REMARK    3  A    between atoms: CA_4  and  C_5 
REMARK    4  A    between atoms: CA_4  and  C_8 
REMARK    5  A    between atoms: C_14  and  C_15 
REMARK    6  A    between atoms: C_14  and  N_25 
REMARK    7  A    between atoms: C_15  and  C_16 
REMARK    8  A    between atoms: C_35  and  O_36 
ROOT
ATOM      1  C   UNL d   1       2.906   1.302  -0.557  0.00  0.00     0.185 C 
ENDROOT
BRANCH   1   2
ATOM      2  C   UNL d   1       2.024   0.142   0.237  0.00  0.00     0.241 C 
ATOM      3  O   UNL d   1       0.800   0.272   0.221  0.00  0.00    -0.271 OA
ATOM      4  N   UNL d   1       2.643  -0.958   0.868  0.00  0.00    -0.341 N 
ATOM      5  H   UNL d   1       3.637  -1.074   0.866  0.00  0.00     0.163 HD
BRANCH   4   6
ATOM      6  CA  UNL d   1       2.050  -2.342   1.217  0.00  0.00     0.219 C 
BRANCH   6   7
ATOM      7  C   UNL d   1       1.188  -2.989   0.010  0.00  0.00     0.201 C 
ATOM      8  O   UNL d   1       1.490  -4.135  -0.430  0.00  0.00    -0.646 OA
ATOM      9  OXT UNL d   1       0.259  -2.265  -0.449  0.00  0.00    -0.646 OA
ENDBRANCH   6   7
BRANCH   6  10
ATOM     10  C   UNL d   1       3.153  -3.319   1.831  0.00  0.00    -0.025 A 
ATOM     11  C   UNL d   1       3.037  -4.724   1.737  0.00  0.00     0.010 A 
ATOM     12  C   UNL d   1       3.862  -5.624   2.419  0.00  0.00     0.001 A 
ATOM     13  C   UNL d   1       4.916  -5.154   3.175  0.00  0.00     0.000 A 
ATOM     14  C   UNL d   1       5.111  -3.778   3.269  0.00  0.00     0.001 A 
ATOM     15  C   UNL d   1       4.235  -2.872   2.623  0.00  0.00     0.010 A 
ENDBRANCH   6  10
ENDBRANCH   4   6
ENDBRANCH   1   2
BRANCH   1  16
ATOM     16  C   UNL d   1       2.412   3.054  -0.185  0.00  0.00     0.052 C 
BRANCH  16  17
ATOM     17  C   UNL d   1       0.814   3.968  -0.028  0.00  0.00     0.022 C 
ATOM     18  C   UNL d   1       0.413   3.539   1.208  0.00  0.00     0.093 C 
ATOM     19  N   UNL d   1      -0.843   3.418   0.736  0.00  0.00    -0.285 NA
ATOM     20  C   UNL d   1      -1.255   4.713   0.778  0.00  0.00     0.015 A 
ATOM     21  H   UNL d   1      -1.147   2.888  -0.069  0.00  0.00     0.128 HD
ATOM     22  C   UNL d   1      -2.583   4.971   1.325  0.00  0.00     0.024 A 
ATOM     23  C   UNL d   1      -0.049   5.508   0.280  0.00  0.00    -0.025 A 
ATOM     24  C   UNL d   1      -3.144   6.188   1.546  0.00  0.00     0.002 A 
ATOM     25  C   UNL d   1      -2.271   7.169   1.233  0.00  0.00     0.001 A 
ATOM     26  C   UNL d   1      -0.910   6.807   0.609  0.00  0.00     0.010 A 
ENDBRANCH  16  17
ENDBRANCH   1  16
BRANCH   1  27
ATOM     27  N   UNL d   1       4.544   1.002  -0.610  0.00  0.00    -0.291 N 
ATOM     28  C   UNL d   1       5.430   1.981  -1.099  0.00  0.00     0.260 C 
ATOM     29  O   UNL d   1       5.076   3.017  -1.651  0.00  0.00    -0.267 OA
ATOM     30  C   UNL d   1       6.908   1.718  -0.984  0.00  0.00     0.058 A 
ATOM     31  C   UNL d   1       7.823   2.718  -0.702  0.00  0.00     0.019 A 
ATOM     32  C   UNL d   1       7.336   0.413  -1.226  0.00  0.00     0.047 A 
ATOM     33  C   UNL d   1       9.189   2.430  -0.755  0.00  0.00     0.001 A 
ATOM     34  C   UNL d   1       9.633   1.132  -1.030  0.00  0.00     0.002 A 
ATOM     35  C   UNL d   1       8.705   0.113  -1.272  0.00  0.00     0.030 A 
ATOM     36  N   UNL d   1       6.331  -0.517  -1.238  0.00  0.00    -0.346 N 
ATOM     37  C   UNL d   1       5.268  -0.254  -0.309  0.00  0.00     0.332 C 
ATOM     38  H   UNL d   1       6.349  -1.405  -1.714  0.00  0.00     0.164 HD
BRANCH  37  39
ATOM     39  O   UNL d   1       4.529  -1.415  -0.410  0.00  0.00    -0.359 OA
ATOM     40  H   UNL d   1       3.742  -1.222  -0.942  0.00  0.00     0.214 HD
ENDBRANCH  37  39
ENDBRANCH   1  27
TORSDOF 8
