REMARK  7 active torsions:
REMARK  status: ('A' for Active; 'I' for Inactive)
REMARK    1  A    between atoms: C_4  and  C_2 
REMARK    2  A    between atoms: C_4  and  C_14 
REMARK    3  A    between atoms: C_4  and  O_5 
REMARK    4  A    between atoms: O_5  and  C_6 
REMARK       I    between atoms: C_14  and  N_16 
REMARK    5  A    between atoms: N_16  and  C_17 
REMARK    6  A    between atoms: C_20  and  C_21 
REMARK    7  A    between atoms: C_21  and  N_22 
REMARK       I    between atoms: N_22  and  C_23 
REMARK       I    between atoms: C_23  and  N_24 
ROOT
ATOM      1  C   UNL d   1       1.231   0.297  -0.034  0.00  0.00     0.090 A 
ATOM      2  C   UNL d   1       0.231  -0.191   0.827  0.00  0.00     0.038 A 
ATOM      3  C   UNL d   1      -1.075  -0.424   0.382  0.00  0.00     0.003 A 
ATOM      4  C   UNL d   1      -1.444  -0.061  -0.904  0.00  0.00     0.002 A 
ATOM      5  C   UNL d   1      -0.489   0.488  -1.762  0.00  0.00     0.025 A 
ATOM      6  C   UNL d   1       0.849   0.669  -1.341  0.00  0.00     0.077 A 
ATOM      7  C   UNL d   1       1.790   1.198  -2.281  0.00  0.00     0.102 C 
ATOM      8  N   UNL d   1       2.501   1.671  -3.081  0.00  0.00    -0.191 NA
ENDROOT
BRANCH   1   9
ATOM      9  O   UNL d   1       2.584   0.207   0.241  0.00  0.00    -0.335 OA
BRANCH   9  10
ATOM     10  C   UNL d   1       3.121  -0.549   1.385  0.00  0.00     0.224 C 
BRANCH  10  11
ATOM     11  C   UNL d   1       4.671  -0.512   1.311  0.00  0.00     0.252 C 
ATOM     12  O   UNL d   1       5.247  -0.084   0.311  0.00  0.00    -0.270 OA
ATOM     13  N   UNL d   1       5.354  -0.999   2.432  0.00  0.00    -0.325 N 
ATOM     14  H   UNL d   1       4.859  -1.456   3.184  0.00  0.00     0.169 HD
BRANCH  13  15
ATOM     15  C   UNL d   1       6.766  -0.985   2.521  0.00  0.00     0.034 A 
ATOM     16  C   UNL d   1       7.480  -2.035   3.104  0.00  0.00     0.030 A 
ATOM     17  C   UNL d   1       8.880  -1.945   3.239  0.00  0.00     0.011 A 
ATOM     18  C   UNL d   1       9.588  -0.836   2.739  0.00  0.00    -0.040 A 
ATOM     19  C   UNL d   1       8.844   0.213   2.194  0.00  0.00     0.011 A 
ATOM     20  C   UNL d   1       7.461   0.133   2.077  0.00  0.00     0.030 A 
BRANCH  18  21
ATOM     21  C   UNL d   1      11.102  -0.843   2.748  0.00  0.00     0.162 C 
BRANCH  21  22
ATOM     22  N   UNL d   1      11.734   0.323   2.160  0.00  0.00    -0.339 N 
ATOM     23  C   UNL d   1      13.044   0.585   2.009  0.00  0.00     0.314 C 
ATOM     24  N   UNL d   1      13.913  -0.333   2.462  0.00  0.00    -0.352 N 
ATOM     25  O   UNL d   1      13.425   1.624   1.484  0.00  0.00    -0.248 OA
ATOM     26  H   UNL d   1      13.633  -1.208   2.869  0.00  0.00     0.160 HD
ATOM     27  H   UNL d   1      14.896  -0.138   2.341  0.00  0.00     0.160 HD
ATOM     28  H   UNL d   1      11.172   1.057   1.759  0.00  0.00     0.164 HD
ENDBRANCH  21  22
ENDBRANCH  18  21
ENDBRANCH  13  15
ENDBRANCH  10  11
BRANCH  10  29
ATOM     29  C   UNL d   1       2.557  -2.008   1.505  0.00  0.00     0.016 C 
ATOM     30  C   UNL d   1       3.337  -3.225   2.013  0.00  0.00     0.012 C 
ATOM     31  C   UNL d   1       1.994  -2.502   0.166  0.00  0.00     0.012 C 
ENDBRANCH  10  29
ENDBRANCH   9  10
ENDBRANCH   1   9
TORSDOF 7
