REMARK  7 active torsions:
REMARK  status: ('A' for Active; 'I' for Inactive)
REMARK    1  A    between atoms: O_2  and  C_3 
REMARK    2  A    between atoms: C_5  and  C_6 
REMARK    3  A    between atoms: C_6  and  N_7 
REMARK       I    between atoms: N_7  and  C_8 
REMARK    4  A    between atoms: C_8  and  C_10 
REMARK    5  A    between atoms: C_14  and  N_13 
REMARK    6  A    between atoms: C_27  and  O_28 
REMARK    7  A    between atoms: C_30  and  O_31 
ROOT
ATOM      1  C   UNL d   1      15.151   4.314   0.608  0.00  0.00     0.081 C 
ATOM      2  C   UNL d   1      13.894   3.402   0.119  0.00  0.00     0.033 C 
ATOM      3  C   UNL d   1      12.833   3.556   1.175  0.00  0.00     0.121 C 
ATOM      4  N   UNL d   1      13.603   3.360   2.646  0.00  0.00    -0.373 N 
ATOM      5  C   UNL d   1      14.257   4.693   2.918  0.00  0.00     0.121 C 
ATOM      6  C   UNL d   1      15.532   4.535   2.158  0.00  0.00     0.033 C 
ENDROOT
BRANCH   1   7
ATOM      7  C   UNL d   1      15.170   5.568  -0.155  0.00  0.00     0.222 C 
ATOM      8  N   UNL d   1      16.382   5.809  -0.720  0.00  0.00    -0.356 N 
ATOM      9  H   UNL d   1      17.131   5.128  -0.657  0.00  0.00     0.162 HD
ATOM     10  O   UNL d   1      14.153   6.290  -0.244  0.00  0.00    -0.273 OA
BRANCH   8  11
ATOM     11  C   UNL d   1      16.554   6.977  -1.524  0.00  0.00     0.161 C 
BRANCH  11  12
ATOM     12  C   UNL d   1      17.930   7.164  -2.101  0.00  0.00    -0.035 C 
ATOM     13  C   UNL d   1      18.224   8.389  -2.736  0.00  0.00     0.048 C 
ATOM     14  C   UNL d   1      19.544   8.767  -3.061  0.00  0.00     0.104 C 
ATOM     15  C   UNL d   1      20.576   7.848  -2.794  0.00  0.00     0.135 C 
ATOM     16  C   UNL d   1      20.278   6.580  -2.239  0.00  0.00     0.104 C 
ATOM     17  C   UNL d   1      18.964   6.239  -1.934  0.00  0.00     0.048 C 
BRANCH  14  18
ATOM     18  O   UNL d   1      19.687  10.116  -3.310  0.00  0.00    -0.353 OA
ATOM     19  C   UNL d   1      20.319  10.592  -4.497  0.00  0.00     0.210 C 
ENDBRANCH  14  18
BRANCH  15  20
ATOM     20  O   UNL d   1      21.913   8.016  -2.923  0.00  0.00    -0.351 OA
ATOM     21  C   UNL d   1      22.461   9.116  -3.550  0.00  0.00     0.210 C 
ENDBRANCH  15  20
BRANCH  16  22
ATOM     22  O   UNL d   1      21.185   5.601  -1.866  0.00  0.00    -0.353 OA
ATOM     23  C   UNL d   1      22.572   5.887  -2.059  0.00  0.00     0.210 C 
ENDBRANCH  16  22
ENDBRANCH  11  12
ENDBRANCH   8  11
ENDBRANCH   1   7
BRANCH   4  24
ATOM     24  C   UNL d   1      13.936   1.936   3.469  0.00  0.00     0.401 C 
ATOM     25  N   UNL d   1      15.440   1.138   3.982  0.00  0.00    -0.248 NA
ATOM     26  C   UNL d   1      15.951   0.496   2.976  0.00  0.00     0.031 C 
ATOM     27  H   UNL d   1      15.341   0.470   4.786  0.00  0.00     0.131 HD
ATOM     28  C   UNL d   1      17.310   0.008   2.440  0.00  0.00     0.023 C 
ATOM     29  C   UNL d   1      14.949   0.695   1.934  0.00  0.00     0.249 C 
ATOM     30  C   UNL d   1      17.784   0.612   1.318  0.00  0.00     0.021 C 
ATOM     31  C   UNL d   1      16.978   1.561   0.652  0.00  0.00     0.019 C 
ATOM     32 CL   UNL d   1      17.652   2.474  -0.652  0.00  0.00    -0.088 Cl
ATOM     33  C   UNL d   1      15.682   1.517   0.961  0.00  0.00     0.090 C 
ATOM     34  N   UNL d   1      13.762   0.918   2.404  0.00  0.00     0.140 N 
ATOM     35  H   UNL d   1      13.277   0.244   3.013  0.00  0.00     0.322 HD
ENDBRANCH   4  24
TORSDOF 7
