@<TRIPOS>MOLECULE
*****
 40 41 0 0 0
SMALL
GASTEIGER

@<TRIPOS>ATOM
      1 C           1.0268   -0.1235    0.0348 C.3     1  UNL1       -0.0134
      2 S           2.7135   -0.4849   -0.4919 S.3     1  UNL1       -0.1268
      3 C           3.3149   -1.4263    0.9166 C.ar    1  UNL1        0.0288
      4 C           3.2472   -2.7945    0.6018 C.ar    1  UNL1       -0.0465
      5 C           3.4485   -3.7788    1.5527 C.ar    1  UNL1       -0.0606
      6 C           3.8316   -3.4121    2.8318 C.ar    1  UNL1       -0.0599
      7 C           4.0079   -2.0515    3.1528 C.ar    1  UNL1       -0.0394
      8 C           3.7639   -1.0204    2.2029 C.ar    1  UNL1        0.0469
      9 N           4.0050    0.3322    2.6464 N.am    1  UNL1       -0.2830
     10 C           4.0748    1.4595    1.8433 C.2     1  UNL1        0.2373
     11 O           4.0663    1.4680    0.6090 O.2     1  UNL1       -0.2734
     12 C           4.3125    2.8337    2.4841 C.3     1  UNL1        0.0972
     13 C           5.7759    2.8740    2.9023 C.3     1  UNL1       -0.0381
     14 N           4.0185    3.8190    1.4073 N.am    1  UNL1       -0.3003
     15 C           4.2426    5.1657    1.5316 C.2     1  UNL1        0.2447
     16 O           4.6121    5.6858    2.5805 O.2     1  UNL1       -0.2702
     17 C           4.0646    6.0285    0.3308 C.ar    1  UNL1        0.0368
     18 C           5.0162    7.0359    0.1044 C.ar    1  UNL1       -0.0483
     19 C           4.8189    7.9909   -0.8978 C.ar    1  UNL1       -0.0427
     20 C           3.6937    7.9087   -1.7134 C.ar    1  UNL1        0.0410
     21 CL          3.4955    9.0294   -3.0052 Cl      1  UNL1       -0.0835
     22 C           2.7414    6.9089   -1.5015 C.ar    1  UNL1       -0.0427
     23 C           2.9226    5.9661   -0.4764 C.ar    1  UNL1       -0.0483
     24 H           0.6800    0.7607   -0.5081 H       1  UNL1        0.0344
     25 H           0.9263    0.0692    1.1068 H       1  UNL1        0.0344
     26 H           0.3968   -0.9697   -0.2457 H       1  UNL1        0.0344
     27 H           3.0092   -3.0967   -0.4166 H       1  UNL1        0.0629
     28 H           3.2867   -4.8164    1.2760 H       1  UNL1        0.0618
     29 H           4.0068   -4.1961    3.5669 H       1  UNL1        0.0618
     30 H           4.3400   -1.8351    4.1684 H       1  UNL1        0.0636
     31 H           4.3144    0.4314    3.6100 H       1  UNL1        0.1549
     32 H           3.6219    3.0208    3.3116 H       1  UNL1        0.0592
     33 H           6.4231    2.6252    2.0517 H       1  UNL1        0.0252
     34 H           5.9770    2.1467    3.6941 H       1  UNL1        0.0252
     35 H           6.0752    3.8591    3.2644 H       1  UNL1        0.0252
     36 H           3.8440    3.4066    0.4889 H       1  UNL1        0.1498
     37 H           5.9107    7.0856    0.7223 H       1  UNL1        0.0625
     38 H           5.5367    8.7976   -1.0257 H       1  UNL1        0.0632
     39 H           1.8473    6.8745   -2.1203 H       1  UNL1        0.0632
     40 H           2.1516    5.2231   -0.2939 H       1  UNL1        0.0625
@<TRIPOS>BOND
     1     1     2    1
     2     2     3    1
     3     3     4   ar
     4     4     5   ar
     5     5     6   ar
     6     6     7   ar
     7     7     8   ar
     8     3     8   ar
     9     8     9    1
    10     9    10   am
    11    10    11    2
    12    10    12    1
    13    12    13    1
    14    12    14    1
    15    14    15   am
    16    15    16    2
    17    15    17    1
    18    17    18   ar
    19    18    19   ar
    20    19    20   ar
    21    20    21    1
    22    20    22   ar
    23    22    23   ar
    24    17    23   ar
    25     1    24    1
    26     1    25    1
    27     1    26    1
    28     4    27    1
    29     5    28    1
    30     6    29    1
    31     7    30    1
    32     9    31    1
    33    12    32    1
    34    13    33    1
    35    13    34    1
    36    13    35    1
    37    14    36    1
    38    18    37    1
    39    19    38    1
    40    22    39    1
    41    23    40    1
