@<TRIPOS>MOLECULE
*****
 37 38 0 0 0
SMALL
GASTEIGER

@<TRIPOS>ATOM
      1 O           1.0151   -0.0051   -0.0636 O.2     1  UNL1       -0.2741
      2 C           2.2464    0.0313   -0.1226 C.2     1  UNL1        0.2305
      3 C           2.9953    1.1110   -0.9256 C.3     1  UNL1        0.0896
      4 N           2.1179    2.0568   -1.6268 N.am    1  UNL1       -0.2908
      5 C           2.6389    3.0709   -2.3879 C.2     1  UNL1        0.3003
      6 O           3.8491    3.2456   -2.5213 O.2     1  UNL1       -0.2528
      7 N           1.7070    3.8684   -2.9970 N.am    1  UNL1       -0.2953
      8 C           2.1097    4.9906   -3.8475 C.3     1  UNL1        0.0385
      9 C           0.9434    5.7768   -4.4157 C.ar    1  UNL1       -0.0239
     10 C           0.9948    7.1794   -4.5288 C.ar    1  UNL1       -0.0567
     11 C          -0.1284    7.9126   -4.9384 C.ar    1  UNL1       -0.0550
     12 C          -1.2941    7.2531   -5.3266 C.ar    1  UNL1        0.0156
     13 C          -1.3303    5.8556   -5.2820 C.ar    1  UNL1        0.2735
     14 N          -2.5684    5.1422   -5.6150 N.pl3   1  UNL1        0.0796
     15 O          -3.5480    5.8146   -5.9647 O.2     1  UNL1        0.0414
     16 O          -2.5665    3.9072   -5.5033 O.co2   1  UNL1       -0.5760
     17 C          -0.2152    5.1208   -4.8528 C.ar    1  UNL1        0.0203
     18 N           2.9931   -0.9127    0.5552 N.am    1  UNL1       -0.3112
     19 C           4.4176   -0.9961    0.6181 C.3     1  UNL1        0.0233
     20 C           5.1262   -2.2441    1.0889 C.3     1  UNL1       -0.0328
     21 C           5.1632   -1.8614   -0.3609 C.3     1  UNL1       -0.0328
     22 H           3.6318    0.6237   -1.6712 H       1  UNL1        0.0558
     23 H           3.6220    1.6883   -0.2382 H       1  UNL1        0.0558
     24 H           1.1197    1.9227   -1.5261 H       1  UNL1        0.1507
     25 H           0.7303    3.7252   -2.7924 H       1  UNL1        0.1506
     26 H           2.7262    4.6066   -4.6685 H       1  UNL1        0.0512
     27 H           2.7381    5.6530   -3.2392 H       1  UNL1        0.0512
     28 H           1.9077    7.7230   -4.2847 H       1  UNL1        0.0621
     29 H          -0.1024    9.0016   -4.9308 H       1  UNL1        0.0620
     30 H          -2.1544    7.8338   -5.6541 H       1  UNL1        0.0685
     31 H          -0.2492    4.0336   -4.8350 H       1  UNL1        0.0688
     32 H           2.4442   -1.5852    1.0824 H       1  UNL1        0.1490
     33 H           4.8818   -0.0676    0.9431 H       1  UNL1        0.0498
     34 H           4.5548   -3.1234    1.3630 H       1  UNL1        0.0284
     35 H           6.0423   -2.1349    1.6626 H       1  UNL1        0.0284
     36 H           4.5972   -2.4785   -1.0501 H       1  UNL1        0.0284
     37 H           6.0860   -1.4745   -0.7774 H       1  UNL1        0.0284
@<TRIPOS>UNITY_ATOM_ATTR
14 1
charge 1
16 1
charge -1
@<TRIPOS>BOND
     1     1     2    2
     2     2     3    1
     3     3     4    1
     4     4     5   am
     5     5     6    2
     6     5     7   am
     7     7     8    1
     8     8     9    1
     9     9    10   ar
    10    10    11   ar
    11    11    12   ar
    12    12    13   ar
    13    13    14    1
    14    14    15    2
    15    14    16    1
    16    13    17   ar
    17     9    17   ar
    18     2    18   am
    19    18    19    1
    20    19    20    1
    21    20    21    1
    22    19    21    1
    23     3    22    1
    24     3    23    1
    25     4    24    1
    26     7    25    1
    27     8    26    1
    28     8    27    1
    29    10    28    1
    30    11    29    1
    31    12    30    1
    32    17    31    1
    33    18    32    1
    34    19    33    1
    35    20    34    1
    36    20    35    1
    37    21    36    1
    38    21    37    1
