@<TRIPOS>MOLECULE
*****
 60 62 0 0 0
SMALL
GASTEIGER

@<TRIPOS>ATOM
      1 C           0.9996   -0.0723   -0.3673 C.3     1  UNL1       -0.0108
      2 C           2.4744   -0.1089   -0.0193 C.3     1  UNL1        0.0878
      3 N           2.8174    0.3569    1.4033 N.pl3   1  UNL1       -0.3883
      4 C           1.9731    0.2444    2.6609 C.3     1  UNL1        0.0878
      5 C           0.4767    0.2809    2.4378 C.3     1  UNL1       -0.0108
      6 C           4.3025    0.2458    1.6867 C.ar    1  UNL1        0.1446
      7 C           4.8980   -0.4381    2.7601 C.ar    1  UNL1        0.0053
      8 C           6.2857   -0.2553    3.0701 C.ar    1  UNL1       -0.0345
      9 C           7.1183    0.5297    2.2532 C.ar    1  UNL1        0.0338
     10 N           8.5412    0.6359    2.4810 N.am    1  UNL1       -0.2848
     11 C           9.4295    1.3191    1.6148 C.2     1  UNL1        0.2275
     12 O           9.0386    1.9049    0.6176 O.2     1  UNL1       -0.2746
     13 C          10.9546    1.2954    1.9542 C.3     1  UNL1        0.0780
     14 S          11.8358    2.3245    0.6960 S.3     1  UNL1       -0.0750
     15 C          13.5312    2.3566    1.1058 C.ar    1  UNL1        0.2105
     16 N          14.2671    1.2549    1.2716 N.ar    1  UNL1       -0.1443
     17 N          15.5153    1.7813    1.3480 N.ar    1  UNL1       -0.2446
     18 C          15.5249    3.1490    1.2213 C.ar    1  UNL1        0.2317
     19 N          16.6926    3.8891    1.2433 N.pl3   1  UNL1       -0.2054
     20 N          16.6595    5.2487    0.9870 N.2     1  UNL1       -0.1874
     21 C          17.5443    6.0534    1.4965 C.2     1  UNL1        0.0563
     22 C          17.2591    7.5293    1.6133 C.ar    1  UNL1        0.0362
     23 C          18.1800    8.4205    1.0285 C.ar    1  UNL1       -0.0496
     24 C          18.0422    9.8116    1.1860 C.ar    1  UNL1       -0.0609
     25 C          16.9589   10.3359    1.8819 C.ar    1  UNL1       -0.0583
     26 C          16.0502    9.4667    2.4763 C.ar    1  UNL1       -0.0193
     27 C          16.1957    8.0680    2.3789 C.ar    1  UNL1        0.1287
     28 O          15.2519    7.4412    3.1584 O.3     1  UNL1       -0.4945
     29 C          15.1440    6.0395    3.0432 C.3     1  UNL1        0.0788
     30 N          14.2650    3.5224    1.0764 N.ar    1  UNL1       -0.1865
     31 C           6.4870    1.1733    1.1871 C.ar    1  UNL1       -0.0345
     32 C           5.1257    1.0392    0.9042 C.ar    1  UNL1        0.0053
     33 H           0.8156   -0.1763   -1.4405 H       1  UNL1        0.0289
     34 H           0.5604    0.8913   -0.0976 H       1  UNL1        0.0289
     35 H           0.4741   -0.9030    0.1034 H       1  UNL1        0.0289
     36 H           2.9324    0.6451   -0.6750 H       1  UNL1        0.0965
     37 H           2.9376   -1.0751   -0.2418 H       1  UNL1        0.0965
     38 H           2.7249    1.3680    1.2593 H       1  UNL1        0.3743
     39 H           2.2339    1.1427    3.2372 H       1  UNL1        0.0965
     40 H           2.2459   -0.6369    3.2459 H       1  UNL1        0.0965
     41 H           0.1903    1.1352    1.8212 H       1  UNL1        0.0289
     42 H          -0.0796    0.3932    3.3716 H       1  UNL1        0.0289
     43 H           0.1334   -0.6614    2.0079 H       1  UNL1        0.0289
     44 H           4.3313   -1.1162    3.3952 H       1  UNL1        0.0682
     45 H           6.6810   -0.7322    3.9683 H       1  UNL1        0.0638
     46 H           8.9270    0.1208    3.2639 H       1  UNL1        0.1548
     47 H          11.3139    0.2634    1.9168 H       1  UNL1        0.0475
     48 H          11.1094    1.7236    2.9471 H       1  UNL1        0.0475
     49 H          16.3035    1.1572    1.4458 H       1  UNL1        0.1919
     50 H          17.5282    3.4994    1.6775 H       1  UNL1        0.1774
     51 H          18.4844    5.7107    1.9682 H       1  UNL1        0.0852
     52 H          19.0116    8.0524    0.4332 H       1  UNL1        0.0625
     53 H          18.7801   10.4940    0.7674 H       1  UNL1        0.0618
     54 H          16.8218   11.4119    1.9735 H       1  UNL1        0.0619
     55 H          15.2196    9.8796    3.0486 H       1  UNL1        0.0654
     56 H          14.3609    5.6424    3.6886 H       1  UNL1        0.0660
     57 H          16.0745    5.5677    3.3779 H       1  UNL1        0.0660
     58 H          14.8247    5.8085    2.0283 H       1  UNL1        0.0660
     59 H           7.0133    1.8395    0.5163 H       1  UNL1        0.0638
     60 H           4.7544    1.5955    0.0497 H       1  UNL1        0.0682
@<TRIPOS>UNITY_ATOM_ATTR
3 1
charge 1
@<TRIPOS>BOND
     1     1     2    1
     2     2     3    1
     3     3     4    1
     4     4     5    1
     5     3     6    1
     6     6     7   ar
     7     7     8   ar
     8     8     9   ar
     9     9    10    1
    10    10    11   am
    11    11    12    2
    12    11    13    1
    13    13    14    1
    14    14    15    1
    15    15    16   ar
    16    16    17   ar
    17    17    18   ar
    18    18    19    1
    19    19    20    1
    20    20    21    2
    21    21    22    1
    22    22    23   ar
    23    23    24   ar
    24    24    25   ar
    25    25    26   ar
    26    26    27   ar
    27    22    27   ar
    28    27    28    1
    29    28    29    1
    30    18    30   ar
    31    15    30   ar
    32     9    31   ar
    33    31    32   ar
    34     6    32   ar
    35     1    33    1
    36     1    34    1
    37     1    35    1
    38     2    36    1
    39     2    37    1
    40     3    38    1
    41     4    39    1
    42     4    40    1
    43     5    41    1
    44     5    42    1
    45     5    43    1
    46     7    44    1
    47     8    45    1
    48    10    46    1
    49    13    47    1
    50    13    48    1
    51    17    49    1
    52    19    50    1
    53    21    51    1
    54    23    52    1
    55    24    53    1
    56    25    54    1
    57    26    55    1
    58    29    56    1
    59    29    57    1
    60    29    58    1
    61    31    59    1
    62    32    60    1
