@<TRIPOS>MOLECULE
*****
 60 62 0 0 0
SMALL
GASTEIGER

@<TRIPOS>ATOM
      1 C           0.8822    1.9994   -0.0203 C.3     1  UNL1       -0.0366
      2 C          -0.1266    0.9085   -0.1089 C.ar    1  UNL1       -0.0110
      3 C           0.3560   -0.4081   -0.0114 C.ar    1  UNL1        0.0456
      4 CL          2.0518   -0.7669    0.0435 Cl      1  UNL1       -0.0832
      5 C          -0.5115   -1.4868    0.0158 C.ar    1  UNL1       -0.0430
      6 C          -1.8813   -1.2668   -0.0303 C.ar    1  UNL1       -0.0586
      7 C          -2.3835    0.0422   -0.1635 C.ar    1  UNL1       -0.0401
      8 C          -1.5170    1.1627   -0.2420 C.ar    1  UNL1        0.0378
      9 N          -2.1176    2.4693   -0.4512 N.am    1  UNL1       -0.2824
     10 C          -1.5078    3.7314   -0.3747 C.2     1  UNL1        0.2548
     11 O          -0.3338    3.9829   -0.1220 O.2     1  UNL1       -0.2717
     12 C          -2.3741    4.9563   -0.5629 C.3     1  UNL1        0.1655
     13 O          -1.4206    6.0132   -0.3495 O.3     1  UNL1       -0.4821
     14 C          -1.7871    7.2741   -0.0488 C.ar    1  UNL1        0.1298
     15 C          -1.0612    8.2314   -0.7965 C.ar    1  UNL1       -0.0193
     16 C          -1.3124    9.5894   -0.6574 C.ar    1  UNL1       -0.0583
     17 C          -2.3289    9.9881    0.2011 C.ar    1  UNL1       -0.0609
     18 C          -3.0156    9.0394    0.9890 C.ar    1  UNL1       -0.0496
     19 C          -2.7159    7.6668    0.9201 C.ar    1  UNL1        0.0362
     20 C          -3.4616    6.7068    1.8278 C.2     1  UNL1        0.0563
     21 N          -3.0250    5.5079    2.0897 N.2     1  UNL1       -0.1872
     22 N          -3.8567    4.5241    2.6150 N.am    1  UNL1       -0.1992
     23 C          -3.4136    3.1786    2.5399 C.2     1  UNL1        0.3181
     24 O          -2.3484    2.7941    2.1301 O.2     1  UNL1       -0.2634
     25 C          -4.3957    2.0838    3.0078 C.2     1  UNL1        0.3007
     26 O          -5.3961    2.3984    3.6353 O.2     1  UNL1       -0.2651
     27 N          -4.0263    0.7627    2.6934 N.am    1  UNL1       -0.3072
     28 C          -4.6602   -0.3313    3.4086 C.3     1  UNL1        0.0160
     29 C          -4.1506   -1.7511    3.1105 C.3     1  UNL1       -0.0120
     30 C          -4.8443   -2.8422    3.9139 C.ar    1  UNL1       -0.0459
     31 C          -5.6754   -2.5644    5.0118 C.ar    1  UNL1       -0.0585
     32 C          -6.1174   -3.5838    5.8547 C.ar    1  UNL1       -0.0615
     33 C          -5.8180   -4.9085    5.5595 C.ar    1  UNL1       -0.0617
     34 C          -5.0519   -5.2113    4.4361 C.ar    1  UNL1       -0.0615
     35 C          -4.5608   -4.1856    3.6228 C.ar    1  UNL1       -0.0585
     36 H           1.9333    1.7430    0.0389 H       1  UNL1        0.0279
     37 H           0.6927    2.5327    0.9219 H       1  UNL1        0.0279
     38 H           0.8173    2.5573   -0.9589 H       1  UNL1        0.0279
     39 H          -0.1033   -2.4918    0.0697 H       1  UNL1        0.0632
     40 H          -2.5450   -2.1282    0.0156 H       1  UNL1        0.0619
     41 H          -3.4682    0.1487   -0.1912 H       1  UNL1        0.0636
     42 H          -3.1255    2.4855   -0.3615 H       1  UNL1        0.1549
     43 H          -3.1793    4.8777    0.1424 H       1  UNL1        0.0795
     44 H          -2.8013    5.0503   -1.5562 H       1  UNL1        0.0795
     45 H          -0.3007    7.9037   -1.5082 H       1  UNL1        0.0654
     46 H          -0.7305   10.3191   -1.2191 H       1  UNL1        0.0619
     47 H          -2.5789   11.0455    0.2644 H       1  UNL1        0.0618
     48 H          -3.7819    9.4031    1.6657 H       1  UNL1        0.0625
     49 H          -4.4375    7.0645    2.1927 H       1  UNL1        0.0852
     50 H          -4.7980    4.7380    2.9225 H       1  UNL1        0.1777
     51 H          -3.1068    0.6225    2.2763 H       1  UNL1        0.1492
     52 H          -5.7323   -0.2786    3.1916 H       1  UNL1        0.0465
     53 H          -4.5189   -0.1149    4.4740 H       1  UNL1        0.0465
     54 H          -3.0799   -1.8101    3.3524 H       1  UNL1        0.0328
     55 H          -4.2508   -1.9728    2.0414 H       1  UNL1        0.0328
     56 H          -5.9808   -1.5509    5.2574 H       1  UNL1        0.0620
     57 H          -6.6760   -3.3344    6.7534 H       1  UNL1        0.0618
     58 H          -6.1807   -5.7015    6.2072 H       1  UNL1        0.0618
     59 H          -4.8089   -6.2466    4.2116 H       1  UNL1        0.0618
     60 H          -3.9350   -4.4433    2.7711 H       1  UNL1        0.0620
@<TRIPOS>BOND
     1     1     2    1
     2     2     3   ar
     3     3     4    1
     4     3     5   ar
     5     5     6   ar
     6     6     7   ar
     7     7     8   ar
     8     2     8   ar
     9     8     9    1
    10     9    10   am
    11    10    11    2
    12    10    12    1
    13    12    13    1
    14    13    14    1
    15    14    15   ar
    16    15    16   ar
    17    16    17   ar
    18    17    18   ar
    19    18    19   ar
    20    14    19   ar
    21    19    20    1
    22    20    21    2
    23    21    22    1
    24    22    23   am
    25    23    24    2
    26    23    25    1
    27    25    26    2
    28    25    27   am
    29    27    28    1
    30    28    29    1
    31    29    30    1
    32    30    31   ar
    33    31    32   ar
    34    32    33   ar
    35    33    34   ar
    36    34    35   ar
    37    30    35   ar
    38     1    36    1
    39     1    37    1
    40     1    38    1
    41     5    39    1
    42     6    40    1
    43     7    41    1
    44     9    42    1
    45    12    43    1
    46    12    44    1
    47    15    45    1
    48    16    46    1
    49    17    47    1
    50    18    48    1
    51    20    49    1
    52    22    50    1
    53    27    51    1
    54    28    52    1
    55    28    53    1
    56    29    54    1
    57    29    55    1
    58    31    56    1
    59    32    57    1
    60    33    58    1
    61    34    59    1
    62    35    60    1
