REMARK  5 active torsions:
REMARK  status: ('A' for Active; 'I' for Inactive)
REMARK    1  A    between atoms: C_5  and  N_6 
REMARK       I    between atoms: N_6  and  C_7 
REMARK    2  A    between atoms: C_7  and  C_9 
REMARK    3  A    between atoms: C_14  and  O_15 
REMARK    4  A    between atoms: O_15  and  C_16 
REMARK    5  A    between atoms: C_22  and  N_23 
ROOT
ATOM      1  N   UNL d   1      -2.380   1.888   0.244  0.00  0.00    -0.321 N 
ATOM      2  C   UNL d   1      -2.417   3.261   0.480  0.00  0.00     0.260 C 
ATOM      3  O   UNL d   1      -1.514   3.954   0.955  0.00  0.00    -0.267 OA
ATOM      4  H   UNL d   1      -3.235   1.412  -0.008  0.00  0.00     0.169 HD
ENDROOT
BRANCH   2   5
ATOM      5  C   UNL d   1      -3.674   3.974   0.197  0.00  0.00     0.085 A 
ATOM      6  C   UNL d   1      -4.769   3.630   0.999  0.00  0.00     0.023 A 
ATOM      7  C   UNL d   1      -5.914   4.417   0.979  0.00  0.00     0.020 A 
ATOM      8  C   UNL d   1      -5.934   5.517   0.143  0.00  0.00     0.119 A 
ATOM      9  N   UNL d   1      -4.907   5.856  -0.668  0.00  0.00    -0.236 NA
ATOM     10  C   UNL d   1      -3.770   5.098  -0.636  0.00  0.00     0.185 A 
BRANCH  10  11
ATOM     11  O   UNL d   1      -2.797   5.627  -1.462  0.00  0.00    -0.291 OA
BRANCH  11  12
ATOM     12  C   UNL d   1      -1.666   4.919  -1.782  0.00  0.00     0.077 A 
ATOM     13  C   UNL d   1      -0.433   5.521  -1.504  0.00  0.00     0.037 A 
ATOM     14  C   UNL d   1       0.754   4.820  -1.724  0.00  0.00     0.003 A 
ATOM     15  C   UNL d   1       0.705   3.507  -2.188  0.00  0.00     0.000 A 
ATOM     16  C   UNL d   1      -0.525   2.914  -2.482  0.00  0.00     0.003 A 
ATOM     17  C   UNL d   1      -1.711   3.633  -2.322  0.00  0.00     0.037 A 
ENDBRANCH  11  12
ENDBRANCH  10  11
ENDBRANCH   2   5
BRANCH   1  18
ATOM     18  C   UNL d   1      -1.187   1.095   0.225  0.00  0.00     0.061 A 
ATOM     19  C   UNL d   1       0.076   1.701   0.282  0.00  0.00     0.032 A 
ATOM     20  C   UNL d   1       1.264   0.988   0.138  0.00  0.00     0.009 A 
ATOM     21  C   UNL d   1       1.231  -0.391   0.029  0.00  0.00    -0.060 A 
ATOM     22  C   UNL d   1       2.514  -1.165   0.032  0.00  0.00     0.048 C 
ATOM     23  C   UNL d   1      -0.021  -1.027  -0.012  0.00  0.00     0.038 A 
ATOM     24  C   UNL d   1      -1.239  -0.308   0.092  0.00  0.00     0.053 A 
BRANCH  24  25
ATOM     25  N   UNL d   1      -2.439  -1.004  -0.139  0.00  0.00    -0.397 N 
ATOM     26  H   UNL d   1      -3.298  -0.557   0.146  0.00  0.00     0.156 HD
ATOM     27  H   UNL d   1      -2.406  -1.993   0.099  0.00  0.00     0.156 HD
ENDBRANCH  24  25
ENDBRANCH   1  18
TORSDOF 5
