@<TRIPOS>MOLECULE
*****
 62 64 0 0 0
SMALL
GASTEIGER

@<TRIPOS>ATOM
      1 C           1.2736    0.5865   -0.2626 C.3     1  UNL1        0.0790
      2 O           2.6262    0.1582   -0.0942 O.3     1  UNL1       -0.4913
      3 C           3.1158   -0.3551    1.0909 C.ar    1  UNL1        0.1659
      4 C           4.3410    0.2233    1.4947 C.ar    1  UNL1       -0.0039
      5 C           5.2015   -0.3569    2.4801 C.ar    1  UNL1        0.0442
      6 C           6.5785    0.2120    2.6346 C.2     1  UNL1        0.2498
      7 O           6.7675    1.2162    1.9420 O.2     1  UNL1       -0.2698
      8 N           7.5706   -0.3642    3.4748 N.am    1  UNL1       -0.2636
      9 C           8.9267    0.0535    3.5330 C.2     1  UNL1        0.1411
     10 S           9.5632    1.2350    2.4960 S.2     1  UNL1       -0.0182
     11 N           9.7199   -0.6189    4.5038 N.am    1  UNL1       -0.2966
     12 C          11.0665   -0.2185    4.8325 C.ar    1  UNL1        0.0326
     13 C          12.1209   -1.1279    4.9590 C.ar    1  UNL1       -0.0398
     14 C          13.4242   -0.6537    5.2366 C.ar    1  UNL1       -0.0479
     15 C          13.7041    0.7274    5.3284 C.ar    1  UNL1        0.0368
     16 C          15.1145    1.1849    5.4627 C.2     1  UNL1        0.2443
     17 O          15.9863    0.3028    5.4384 O.2     1  UNL1       -0.2702
     18 N          15.3949    2.5391    5.6037 N.am    1  UNL1       -0.3085
     19 C          16.7630    3.0694    5.7275 C.3     1  UNL1        0.0234
     20 C          16.7591    4.5508    6.1747 C.3     1  UNL1       -0.0345
     21 C          18.1709    5.0830    6.4581 C.3     1  UNL1       -0.0514
     22 C          18.9201    4.2060    7.4557 C.3     1  UNL1       -0.0529
     23 C          18.9686    2.7725    6.9681 C.3     1  UNL1       -0.0514
     24 C          17.5748    2.2355    6.7261 C.3     1  UNL1       -0.0345
     25 C          12.6444    1.6176    5.2562 C.ar    1  UNL1       -0.0479
     26 C          11.3506    1.1379    5.0457 C.ar    1  UNL1       -0.0398
     27 C           4.7637   -1.4784    3.1615 C.ar    1  UNL1       -0.0039
     28 C           3.5499   -2.0760    2.7896 C.ar    1  UNL1        0.1659
     29 O           3.3092   -3.2511    3.4875 O.3     1  UNL1       -0.4913
     30 C           2.1585   -4.0210    3.1327 C.3     1  UNL1        0.0790
     31 C           2.7287   -1.5305    1.7524 C.ar    1  UNL1        0.2035
     32 O           1.6637   -2.3289    1.5017 O.3     1  UNL1       -0.4885
     33 C           0.6531   -1.9776    0.6267 C.3     1  UNL1        0.0791
     34 H           1.2059    1.2739   -1.1090 H       1  UNL1        0.0660
     35 H           0.8475    1.0322    0.6390 H       1  UNL1        0.0660
     36 H           0.6187   -0.1926   -0.6519 H       1  UNL1        0.0660
     37 H           4.6646    1.1352    0.9842 H       1  UNL1        0.0663
     38 H           7.3180   -1.1743    4.0208 H       1  UNL1        0.1568
     39 H           9.4514   -1.5381    4.8359 H       1  UNL1        0.1538
     40 H          11.9954   -2.1906    4.7638 H       1  UNL1        0.0636
     41 H          14.2409   -1.3692    5.3565 H       1  UNL1        0.0626
     42 H          14.6681    3.2191    5.4288 H       1  UNL1        0.1493
     43 H          17.2203    3.0114    4.7305 H       1  UNL1        0.0498
     44 H          16.1533    4.6590    7.0843 H       1  UNL1        0.0283
     45 H          16.2845    5.1835    5.4138 H       1  UNL1        0.0283
     46 H          18.1172    6.1061    6.8478 H       1  UNL1        0.0266
     47 H          18.7386    5.1280    5.5204 H       1  UNL1        0.0266
     48 H          18.4225    4.2455    8.4325 H       1  UNL1        0.0265
     49 H          19.9415    4.5744    7.5962 H       1  UNL1        0.0265
     50 H          19.4693    2.1342    7.7033 H       1  UNL1        0.0266
     51 H          19.5446    2.7104    6.0367 H       1  UNL1        0.0266
     52 H          17.0193    2.1720    7.6707 H       1  UNL1        0.0283
     53 H          17.7133    1.2164    6.3661 H       1  UNL1        0.0283
     54 H          12.7714    2.6881    5.3413 H       1  UNL1        0.0626
     55 H          10.5533    1.8740    5.0154 H       1  UNL1        0.0636
     56 H           5.3463   -1.9331    3.9531 H       1  UNL1        0.0663
     57 H           2.1150   -4.9267    3.7361 H       1  UNL1        0.0660
     58 H           2.2123   -4.3582    2.0875 H       1  UNL1        0.0660
     59 H           1.2403   -3.4597    3.3519 H       1  UNL1        0.0660
     60 H          -0.1370   -2.7267    0.5924 H       1  UNL1        0.0660
     61 H           1.0987   -1.9580   -0.3687 H       1  UNL1        0.0660
     62 H           0.1797   -1.0789    1.0272 H       1  UNL1        0.0660
@<TRIPOS>BOND
     1     1     2    1
     2     2     3    1
     3     3     4   ar
     4     4     5   ar
     5     5     6    1
     6     6     7    2
     7     6     8   am
     8     8     9    1
     9     9    10    2
    10     9    11    1
    11    11    12    1
    12    12    13   ar
    13    13    14   ar
    14    14    15   ar
    15    15    16    1
    16    16    17    2
    17    16    18   am
    18    18    19    1
    19    19    20    1
    20    20    21    1
    21    21    22    1
    22    22    23    1
    23    23    24    1
    24    19    24    1
    25    15    25   ar
    26    25    26   ar
    27    12    26   ar
    28     5    27   ar
    29    27    28   ar
    30    28    29    1
    31    29    30    1
    32    28    31   ar
    33     3    31   ar
    34    31    32    1
    35    32    33    1
    36     1    34    1
    37     1    35    1
    38     1    36    1
    39     4    37    1
    40     8    38    1
    41    11    39    1
    42    13    40    1
    43    14    41    1
    44    18    42    1
    45    19    43    1
    46    20    44    1
    47    20    45    1
    48    21    46    1
    49    21    47    1
    50    22    48    1
    51    22    49    1
    52    23    50    1
    53    23    51    1
    54    24    52    1
    55    24    53    1
    56    25    54    1
    57    26    55    1
    58    27    56    1
    59    30    57    1
    60    30    58    1
    61    30    59    1
    62    33    60    1
    63    33    61    1
    64    33    62    1
