REMARK  11 active torsions:
REMARK  status: ('A' for Active; 'I' for Inactive)
REMARK    1  A    between atoms: O_2  and  C_3 
REMARK    2  A    between atoms: C_5  and  C_6 
REMARK    3  A    between atoms: C_7  and  C_8 
REMARK       I    between atoms: C_8  and  N_10 
REMARK    4  A    between atoms: N_10  and  N_11 
REMARK    5  A    between atoms: N_11  and  C_12 
REMARK    6  A    between atoms: C_12  and  N_14 
REMARK    7  A    between atoms: N_14  and  C_15 
REMARK    8  A    between atoms: C_15  and  C_16 
REMARK    9  A    between atoms: C_16  and  C_17 
REMARK   10  A    between atoms: C_21  and  O_22 
REMARK   11  A    between atoms: C_24  and  O_25 
ROOT
ATOM      1  C   UNL d   1       8.636  -3.848   1.300  0.00  0.00     0.259 C 
ATOM      2  O   UNL d   1       9.057  -2.985   2.046  0.00  0.00    -0.267 OA
ATOM      3  N   UNL d   1       9.389  -4.953   0.905  0.00  0.00    -0.264 N 
ATOM      4  H   UNL d   1       9.049  -5.682   0.283  0.00  0.00     0.190 HD
ENDROOT
BRANCH   1   5
ATOM      5  C   UNL d   1       7.238  -3.805   0.722  0.00  0.00     0.076 C 
ATOM      6  C   UNL d   1       6.350  -2.821   1.006  0.00  0.00     0.017 C 
BRANCH   6   7
ATOM      7  C   UNL d   1       4.974  -2.665   0.426  0.00  0.00    -0.031 A 
ATOM      8  C   UNL d   1       4.167  -1.523   0.679  0.00  0.00     0.051 A 
ATOM      9  C   UNL d   1       2.959  -1.250  -0.036  0.00  0.00     0.105 A 
ATOM     10  C   UNL d   1       2.552  -2.177  -1.016  0.00  0.00     0.135 A 
ATOM     11  C   UNL d   1       3.304  -3.363  -1.213  0.00  0.00     0.105 A 
ATOM     12  C   UNL d   1       4.473  -3.602  -0.478  0.00  0.00     0.051 A 
BRANCH   9  13
ATOM     13  O   UNL d   1       2.490   0.042   0.127  0.00  0.00    -0.353 OA
ATOM     14  C   UNL d   1       1.134   0.307   0.492  0.00  0.00     0.210 C 
ENDBRANCH   9  13
BRANCH  10  15
ATOM     15  O   UNL d   1       1.556  -2.076  -1.929  0.00  0.00    -0.351 OA
ATOM     16  C   UNL d   1       0.547  -1.133  -1.851  0.00  0.00     0.210 C 
ENDBRANCH  10  15
BRANCH  11  17
ATOM     17  O   UNL d   1       3.054  -4.356  -2.149  0.00  0.00    -0.353 OA
ATOM     18  C   UNL d   1       1.947  -4.191  -3.035  0.00  0.00     0.210 C 
ENDBRANCH  11  17
ENDBRANCH   6   7
ENDBRANCH   1   5
BRANCH   3  19
ATOM     19  N   UNL d   1      10.728  -5.139   1.400  0.00  0.00    -0.274 N 
ATOM     20  H   UNL d   1      11.066  -4.415   2.028  0.00  0.00     0.189 HD
BRANCH  19  21
ATOM     21  C   UNL d   1      11.475  -6.257   1.026  0.00  0.00     0.186 C 
ATOM     22  S   UNL d   1      10.864  -7.426  -0.022  0.00  0.00    -0.040 SA
BRANCH  21  23
ATOM     23  N   UNL d   1      12.748  -6.319   1.596  0.00  0.00    -0.366 N 
ATOM     24  H   UNL d   1      13.067  -5.564   2.188  0.00  0.00     0.161 HD
BRANCH  23  25
ATOM     25  C   UNL d   1      13.706  -7.399   1.304  0.00  0.00     0.122 C 
BRANCH  25  26
ATOM     26  C   UNL d   1      15.079  -7.290   1.981  0.00  0.00     0.023 C 
BRANCH  26  27
ATOM     27  C   UNL d   1      16.011  -8.475   1.610  0.00  0.00    -0.021 C 
ATOM     28  C   UNL d   1      16.268  -8.556   0.102  0.00  0.00     0.009 C 
ATOM     29  C   UNL d   1      17.353  -8.354   2.337  0.00  0.00     0.009 C 
ENDBRANCH  26  27
ENDBRANCH  25  26
ENDBRANCH  23  25
ENDBRANCH  21  23
ENDBRANCH  19  21
ENDBRANCH   3  19
TORSDOF 11
