REMARK  5 active torsions:
REMARK  status: ('A' for Active; 'I' for Inactive)
REMARK    1  A    between atoms: C_2  and  O_3 
REMARK    2  A    between atoms: C_2  and  C_12 
REMARK    3  A    between atoms: O_3  and  C_4 
REMARK       I    between atoms: C_12  and  N_14 
REMARK    4  A    between atoms: N_14  and  N_15 
REMARK    5  A    between atoms: N_15  and  C_16 
ROOT
ATOM      1  C   UNL d   1       2.591  -2.291  -0.660  0.00  0.00     0.070 A 
ATOM      2  C   UNL d   1       1.277  -2.704  -0.433  0.00  0.00     0.038 A 
ATOM      3  C   UNL d   1       0.929  -4.037  -0.217  0.00  0.00     0.025 A 
ATOM      4  C   UNL d   1       1.884  -5.029  -0.364  0.00  0.00     0.044 A 
ATOM      5  C   UNL d   1       1.470  -6.403  -0.309  0.00  0.00     0.099 C 
ATOM      6  N   UNL d   1       1.088  -7.493  -0.290  0.00  0.00    -0.191 NA
ATOM      7  C   UNL d   1       3.201  -4.659  -0.651  0.00  0.00     0.025 A 
ATOM      8  C   UNL d   1       3.554  -3.298  -0.791  0.00  0.00     0.038 A 
ENDROOT
BRANCH   1   9
ATOM      9  O   UNL d   1       2.971  -0.993  -0.919  0.00  0.00    -0.337 OA
BRANCH   9  10
ATOM     10  C   UNL d   1       2.510   0.080  -0.065  0.00  0.00     0.218 C 
ATOM     11  C   UNL d   1       0.983   0.226   0.021  0.00  0.00     0.050 C 
BRANCH  10  12
ATOM     12  C   UNL d   1       3.047   1.477  -0.561  0.00  0.00     0.265 C 
ATOM     13  O   UNL d   1       2.288   2.420  -0.816  0.00  0.00    -0.269 OA
ATOM     14  N   UNL d   1       4.429   1.625  -0.671  0.00  0.00    -0.267 N 
ATOM     15  H   UNL d   1       5.078   0.934  -0.315  0.00  0.00     0.190 HD
BRANCH  14  16
ATOM     16  N   UNL d   1       4.923   2.917  -0.947  0.00  0.00    -0.295 N 
ATOM     17  H   UNL d   1       4.244   3.665  -1.120  0.00  0.00     0.187 HD
BRANCH  16  18
ATOM     18  C   UNL d   1       6.298   3.172  -1.084  0.00  0.00     0.090 A 
ATOM     19  C   UNL d   1       7.187   2.241  -1.640  0.00  0.00     0.037 A 
ATOM     20  C   UNL d   1       8.558   2.526  -1.764  0.00  0.00     0.048 A 
ATOM     21  C   UNL d   1       9.059   3.744  -1.316  0.00  0.00     0.158 A 
ATOM     22  F   UNL d   1      10.364   4.015  -1.461  0.00  0.00    -0.203 F 
ATOM     23  C   UNL d   1       8.212   4.668  -0.729  0.00  0.00     0.195 A 
ATOM     24  F   UNL d   1       8.706   5.830  -0.274  0.00  0.00    -0.199 F 
ATOM     25  C   UNL d   1       6.850   4.385  -0.612  0.00  0.00     0.185 A 
ATOM     26  F   UNL d   1       6.056   5.288  -0.013  0.00  0.00    -0.200 F 
ENDBRANCH  16  18
ENDBRANCH  14  16
ENDBRANCH  10  12
ENDBRANCH   9  10
ENDBRANCH   1   9
TORSDOF 5
