@<TRIPOS>MOLECULE
*****
 48 50 0 0 0
SMALL
GASTEIGER

@<TRIPOS>ATOM
      1 N           1.2056    0.0448    0.0074 N.am    1  UNL1       -0.3131
      2 C           2.5540   -0.0699    0.0191 C.2     1  UNL1        0.3013
      3 O           3.0437   -1.1971   -0.0443 O.2     1  UNL1       -0.2527
      4 N           3.2315    1.1142    0.1782 N.am    1  UNL1       -0.2696
      5 C           4.6367    1.2158    0.0969 C.ar    1  UNL1        0.0365
      6 C           5.3686    2.1053    0.8762 C.ar    1  UNL1       -0.0403
      7 C           6.7589    2.1975    0.7025 C.ar    1  UNL1       -0.0583
      8 C           7.4082    1.4312   -0.2782 C.ar    1  UNL1       -0.0404
      9 C           6.6602    0.5967   -1.1140 C.ar    1  UNL1        0.0354
     10 N           7.2750   -0.1175   -2.1732 N.am    1  UNL1       -0.2814
     11 C           6.6332   -1.0496   -2.9774 C.2     1  UNL1        0.2486
     12 O           5.4242   -1.2994   -3.0220 O.2     1  UNL1       -0.2698
     13 C           7.4380   -1.8263   -3.9408 C.ar    1  UNL1        0.0434
     14 C           6.8808   -1.8804   -5.2339 C.ar    1  UNL1       -0.0493
     15 C           7.4318   -2.6914   -6.2168 C.ar    1  UNL1       -0.0610
     16 C           8.5888   -3.4056   -5.9385 C.ar    1  UNL1       -0.0614
     17 C           9.1421   -3.3718   -4.6554 C.ar    1  UNL1       -0.0546
     18 C           8.5589   -2.6115   -3.6205 C.ar    1  UNL1        0.0017
     19 C           9.1970   -2.7182   -2.2529 C.3     1  UNL1        0.1153
     20 O           8.3333   -2.2500   -1.2367 O.3     1  UNL1       -0.4873
     21 C           8.8340   -1.7931   -0.0607 C.ar    1  UNL1        0.1216
     22 C           7.8748   -1.6521    0.9479 C.ar    1  UNL1       -0.0199
     23 C           8.2215   -1.1415    2.1955 C.ar    1  UNL1       -0.0577
     24 C           9.5522   -0.8294    2.4616 C.ar    1  UNL1       -0.0513
     25 C          10.4978   -0.9280    1.4361 C.ar    1  UNL1        0.0176
     26 C          11.8955   -0.5276    1.6746 C.2     1  UNL1        0.1503
     27 O          12.7297   -0.5427    0.7758 O.2     1  UNL1       -0.2957
     28 C          10.1375   -1.3810    0.1654 C.ar    1  UNL1       -0.0097
     29 C           5.2986    0.4678   -0.8657 C.ar    1  UNL1       -0.0192
     30 H           0.7033   -0.8282   -0.0974 H       1  UNL1        0.1465
     31 H           0.6932    0.9092   -0.0024 H       1  UNL1        0.1465
     32 H           2.7111    1.9555    0.3650 H       1  UNL1        0.1564
     33 H           4.8888    2.6758    1.6649 H       1  UNL1        0.0636
     34 H           7.3390    2.8742    1.3267 H       1  UNL1        0.0619
     35 H           8.4927    1.4794   -0.3504 H       1  UNL1        0.0636
     36 H           8.2856   -0.0906   -2.2072 H       1  UNL1        0.1551
     37 H           5.9807   -1.3062   -5.4564 H       1  UNL1        0.0625
     38 H           6.9478   -2.7726   -7.1858 H       1  UNL1        0.0618
     39 H           9.0532   -4.0030   -6.7182 H       1  UNL1        0.0618
     40 H          10.0252   -3.9767   -4.4556 H       1  UNL1        0.0622
     41 H          10.1488   -2.1839   -2.3176 H       1  UNL1        0.0748
     42 H           9.3779   -3.7712   -2.0168 H       1  UNL1        0.0748
     43 H           6.8338   -1.8992    0.7327 H       1  UNL1        0.0654
     44 H           7.4464   -0.9795    2.9405 H       1  UNL1        0.0619
     45 H           9.8295   -0.4984    3.4574 H       1  UNL1        0.0624
     46 H          12.1550   -0.2082    2.6955 H       1  UNL1        0.1081
     47 H          10.8870   -1.3769   -0.6178 H       1  UNL1        0.0661
     48 H           4.6946   -0.2035   -1.4547 H       1  UNL1        0.0655
@<TRIPOS>BOND
     1     1     2   am
     2     2     3    2
     3     2     4   am
     4     4     5    1
     5     5     6   ar
     6     6     7   ar
     7     7     8   ar
     8     8     9   ar
     9     9    10    1
    10    10    11   am
    11    11    12    2
    12    11    13    1
    13    13    14   ar
    14    14    15   ar
    15    15    16   ar
    16    16    17   ar
    17    17    18   ar
    18    13    18   ar
    19    18    19    1
    20    19    20    1
    21    20    21    1
    22    21    22   ar
    23    22    23   ar
    24    23    24   ar
    25    24    25   ar
    26    25    26    1
    27    26    27    2
    28    25    28   ar
    29    21    28   ar
    30     9    29   ar
    31     5    29   ar
    32     1    30    1
    33     1    31    1
    34     4    32    1
    35     6    33    1
    36     7    34    1
    37     8    35    1
    38    10    36    1
    39    14    37    1
    40    15    38    1
    41    16    39    1
    42    17    40    1
    43    19    41    1
    44    19    42    1
    45    22    43    1
    46    23    44    1
    47    24    45    1
    48    26    46    1
    49    28    47    1
    50    29    48    1
