REMARK  4 active torsions:
REMARK  status: ('A' for Active; 'I' for Inactive)
REMARK       I    between atoms: C_2  and  N_3 
REMARK    1  A    between atoms: C_17  and  C_2 
REMARK    2  A    between atoms: N_3  and  N_4 
REMARK    3  A    between atoms: N_4  and  S_5 
REMARK    4  A    between atoms: S_5  and  C_8 
ROOT
ATOM      1  O   UNL d   1       3.668  -3.571  -0.035  0.00  0.00    -0.269 OA
ATOM      2  C   UNL d   1       2.730  -2.801   0.158  0.00  0.00     0.268 C 
ATOM      3  N   UNL d   1       1.441  -3.235   0.471  0.00  0.00    -0.258 N 
ATOM      4  H   UNL d   1       0.652  -2.591   0.526  0.00  0.00     0.190 HD
ENDROOT
BRANCH   3   5
ATOM      5  N   UNL d   1       1.095  -4.679   0.575  0.00  0.00    -0.220 N 
ATOM      6  H   UNL d   1       1.807  -5.261   1.027  0.00  0.00     0.200 HD
BRANCH   5   7
ATOM      7  S   UNL d   1      -0.556  -4.999   0.932  0.00  0.00     0.278 S 
ATOM      8  O   UNL d   1      -0.721  -4.546   2.294  0.00  0.00    -0.199 OA
ATOM      9  O   UNL d   1      -1.312  -4.418  -0.161  0.00  0.00    -0.199 OA
BRANCH   7  10
ATOM     10  C   UNL d   1      -0.798  -6.740   0.898  0.00  0.00     0.112 A 
ATOM     11  C   UNL d   1       0.188  -7.658   0.480  0.00  0.00     0.028 A 
ATOM     12  C   UNL d   1      -0.009  -9.066   0.502  0.00  0.00     0.004 A 
ATOM     13  C   UNL d   1      -1.204  -9.677   0.919  0.00  0.00     0.035 A 
ATOM     14  C   UNL d   1      -2.243  -8.800   1.307  0.00  0.00     0.098 A 
ATOM     15  N   UNL d   1      -3.466  -9.178   1.705  0.00  0.00    -0.191 NA
ATOM     16  C   UNL d   1      -2.043  -7.296   1.300  0.00  0.00     0.119 A 
ATOM     17  S   UNL d   1      -4.305  -7.785   2.030  0.00  0.00     0.117 SA
ATOM     18  N   UNL d   1      -3.147  -6.644   1.702  0.00  0.00    -0.190 NA
ENDBRANCH   7  10
ENDBRANCH   5   7
ENDBRANCH   3   5
BRANCH   2  19
ATOM     19  C   UNL d   1       2.845  -1.255   0.117  0.00  0.00     0.246 C 
ATOM     20  C   UNL d   1       3.508  -0.758   1.398  0.00  0.00     0.218 C 
ATOM     21  O   UNL d   1       3.290   0.656   1.544  0.00  0.00    -0.345 OA
ATOM     22  C   UNL d   1       3.517   1.324   0.364  0.00  0.00     0.102 A 
ATOM     23  C   UNL d   1       3.597   2.716   0.436  0.00  0.00     0.039 A 
ATOM     24  C   UNL d   1       3.648   0.670  -0.870  0.00  0.00     0.103 A 
ATOM     25  C   UNL d   1       3.835   3.461  -0.721  0.00  0.00     0.003 A 
ATOM     26  C   UNL d   1       3.984   2.811  -1.948  0.00  0.00     0.003 A 
ATOM     27  C   UNL d   1       3.893   1.416  -2.022  0.00  0.00     0.040 A 
ATOM     28  O   UNL d   1       3.539  -0.701  -1.005  0.00  0.00    -0.331 OA
ENDBRANCH   2  19
TORSDOF 4
