@<TRIPOS>MOLECULE
*****
 34 35 0 0 0
SMALL
GASTEIGER

@<TRIPOS>ATOM
      1 O           1.1312    0.1028    0.1309 O.2     1  UNL1       -0.2739
      2 C           2.3553    0.0166    0.0205 C.2     1  UNL1        0.2334
      3 C           3.0617   -1.0104   -0.8678 C.3     1  UNL1        0.0505
      4 C           2.1384   -1.9635   -1.6047 C.ar    1  UNL1       -0.0386
      5 C           0.9850   -1.5090   -2.2621 C.ar    1  UNL1       -0.0581
      6 C           0.0669   -2.4133   -2.7965 C.ar    1  UNL1       -0.0615
      7 C           0.3476   -3.7762   -2.7904 C.ar    1  UNL1       -0.0617
      8 C           1.5300   -4.2374   -2.2161 C.ar    1  UNL1       -0.0615
      9 C           2.4185   -3.3379   -1.6219 C.ar    1  UNL1       -0.0581
     10 N           3.1340    0.9022    0.7250 N.am    1  UNL1       -0.2339
     11 N           4.5261    0.8723    0.8164 N.am    1  UNL1       -0.2303
     12 C           5.1555    1.8304    1.5918 C.2     1  UNL1        0.2637
     13 O           4.5510    2.6284    2.3132 O.2     1  UNL1       -0.2685
     14 C           6.6417    1.8594    1.5310 C.ar    1  UNL1        0.0795
     15 C           7.3626    2.0999    2.7108 C.ar    1  UNL1       -0.0460
     16 C           8.7512    2.2620    2.6690 C.ar    1  UNL1       -0.0608
     17 C           9.4309    2.1442    1.4572 C.ar    1  UNL1       -0.0583
     18 C           8.7239    1.8845    0.2809 C.ar    1  UNL1       -0.0194
     19 C           7.3345    1.7351    0.3204 C.ar    1  UNL1        0.1290
     20 O           6.6493    1.4655   -0.8336 O.3     1  UNL1       -0.5060
     21 H           3.7172   -1.5982   -0.2122 H       1  UNL1        0.0407
     22 H           3.6910   -0.4920   -1.6007 H       1  UNL1        0.0407
     23 H           0.7545   -0.4460   -2.3078 H       1  UNL1        0.0620
     24 H          -0.8797   -2.0514   -3.1896 H       1  UNL1        0.0618
     25 H          -0.3579   -4.4765   -3.2285 H       1  UNL1        0.0618
     26 H           1.7456   -5.3023   -2.2024 H       1  UNL1        0.0618
     27 H           3.3187   -3.7242   -1.1499 H       1  UNL1        0.0620
     28 H           2.6499    1.5783    1.3174 H       1  UNL1        0.1728
     29 H           5.0697    0.3386    0.1444 H       1  UNL1        0.1731
     30 H           6.8455    2.1632    3.6667 H       1  UNL1        0.0626
     31 H           9.3018    2.4991    3.5775 H       1  UNL1        0.0618
     32 H          10.5134    2.2558    1.4308 H       1  UNL1        0.0619
     33 H           9.2732    1.8186   -0.6539 H       1  UNL1        0.0654
     34 H           7.2682    1.4926   -1.5841 H       1  UNL1        0.2922
@<TRIPOS>BOND
     1     1     2    2
     2     2     3    1
     3     3     4    1
     4     4     5   ar
     5     5     6   ar
     6     6     7   ar
     7     7     8   ar
     8     8     9   ar
     9     4     9   ar
    10     2    10   am
    11    10    11    1
    12    11    12   am
    13    12    13    2
    14    12    14    1
    15    14    15   ar
    16    15    16   ar
    17    16    17   ar
    18    17    18   ar
    19    18    19   ar
    20    14    19   ar
    21    19    20    1
    22     3    21    1
    23     3    22    1
    24     5    23    1
    25     6    24    1
    26     7    25    1
    27     8    26    1
    28     9    27    1
    29    10    28    1
    30    11    29    1
    31    15    30    1
    32    16    31    1
    33    17    32    1
    34    18    33    1
    35    20    34    1
