@<TRIPOS>MOLECULE
*****
 64 65 0 0 0
SMALL
GASTEIGER

@<TRIPOS>ATOM
      1 C           8.2642   11.1343    1.3465 C.3     1  UNL1       -0.0652
      2 C           7.3772    9.9284    1.5607 C.3     1  UNL1       -0.0545
      3 C           7.6906    8.8460    0.5472 C.3     1  UNL1       -0.0376
      4 C           6.7823    7.6634    0.7948 C.3     1  UNL1        0.0116
      5 N           7.1215    6.6082   -0.0977 N.am    1  UNL1       -0.3135
      6 C           6.4166    5.4375   -0.0870 C.2     1  UNL1        0.2383
      7 O           5.3725    5.3526    0.5623 O.2     1  UNL1       -0.2734
      8 C           6.9208    4.3510   -1.0967 C.3     1  UNL1        0.1342
      9 C           6.0911    3.0832   -0.8089 C.ar    1  UNL1        0.0648
     10 C           5.3668    2.4043   -1.8032 C.ar    1  UNL1        0.1292
     11 O           5.2900    2.7891   -3.1136 O.3     1  UNL1       -0.5062
     12 C           4.6937    1.2080   -1.5172 C.ar    1  UNL1        0.0219
     13 C           4.7873    0.6347   -0.2532 C.ar    1  UNL1        0.1238
     14 O           4.2057   -0.5627    0.0402 O.3     1  UNL1       -0.5065
     15 C           5.4907    1.2625    0.7567 C.ar    1  UNL1        0.0219
     16 C           6.0584    2.5123    0.5025 C.ar    1  UNL1        0.1292
     17 O           6.8092    3.0894    1.5085 O.3     1  UNL1       -0.5062
     18 N           8.4722    4.2678   -1.2758 N.am    1  UNL1       -0.2844
     19 C           9.2945    3.0570   -1.0139 C.3     1  UNL1        0.0156
     20 C           8.5502    1.7775   -0.7712 C.3     1  UNL1       -0.0400
     21 C           9.2052    0.5040   -0.3442 C.3     1  UNL1       -0.0639
     22 C           9.1531    5.4083   -1.7654 C.2     1  UNL1        0.2336
     23 O           8.5451    6.3901   -2.2121 O.2     1  UNL1       -0.2739
     24 C          10.6992    5.4686   -1.6679 C.3     1  UNL1        0.0886
     25 N          11.2186    6.7993   -2.0005 N.am    1  UNL1       -0.3027
     26 C          12.5793    7.0274   -2.1208 C.2     1  UNL1        0.2445
     27 O          13.4145    6.1568   -1.9472 O.2     1  UNL1       -0.2702
     28 C          13.0106    8.4172   -2.4663 C.ar    1  UNL1        0.0367
     29 C          14.1066    8.6156   -3.3214 C.ar    1  UNL1       -0.0496
     30 C          14.6210    9.9033   -3.5231 C.ar    1  UNL1       -0.0610
     31 C          14.0115   11.0009   -2.9171 C.ar    1  UNL1       -0.0617
     32 C          12.9148   10.8093   -2.0764 C.ar    1  UNL1       -0.0610
     33 C          12.4192    9.5213   -1.8439 C.ar    1  UNL1       -0.0496
     34 H           8.0274   11.9054    2.0833 H       1  UNL1        0.0230
     35 H           8.1148   11.5510    0.3456 H       1  UNL1        0.0230
     36 H           9.3190   10.8623    1.4531 H       1  UNL1        0.0230
     37 H           6.3243   10.2204    1.4719 H       1  UNL1        0.0263
     38 H           7.5231    9.5351    2.5735 H       1  UNL1        0.0263
     39 H           8.7415    8.5356    0.6225 H       1  UNL1        0.0280
     40 H           7.5506    9.2186   -0.4764 H       1  UNL1        0.0280
     41 H           5.7273    7.9256    0.6592 H       1  UNL1        0.0462
     42 H           6.9134    7.2644    1.8063 H       1  UNL1        0.0462
     43 H           7.6540    6.8286   -0.9361 H       1  UNL1        0.1487
     44 H           6.5950    4.7572   -2.0624 H       1  UNL1        0.0650
     45 H           5.8559    3.5503   -3.3053 H       1  UNL1        0.2922
     46 H           4.1361    0.7191   -2.3098 H       1  UNL1        0.0691
     47 H           3.6093   -0.8003   -0.6887 H       1  UNL1        0.2921
     48 H           5.6285    0.7547    1.7068 H       1  UNL1        0.0691
     49 H           7.0047    2.4138    2.1824 H       1  UNL1        0.2922
     50 H           9.9038    3.2868   -0.1332 H       1  UNL1        0.0465
     51 H           9.9672    2.9111   -1.8643 H       1  UNL1        0.0465
     52 H           7.8600    1.5636   -1.5894 H       1  UNL1        0.0278
     53 H           8.0722    1.9944    0.1552 H       1  UNL1        0.0278
     54 H           9.8232    0.0894   -1.1321 H       1  UNL1        0.0230
     55 H           8.4004   -0.2066   -0.0975 H       1  UNL1        0.0230
     56 H           9.7702    0.6723    0.5758 H       1  UNL1        0.0230
     57 H          11.1339    4.7520   -2.3680 H       1  UNL1        0.0558
     58 H          11.0224    5.2459   -0.6455 H       1  UNL1        0.0558
     59 H          10.5466    7.5186   -2.2418 H       1  UNL1        0.1495
     60 H          14.5735    7.7717   -3.8250 H       1  UNL1        0.0625
     61 H          15.5092   10.0511   -4.1347 H       1  UNL1        0.0618
     62 H          14.3974   12.0038   -3.0902 H       1  UNL1        0.0618
     63 H          12.4644   11.6632   -1.5760 H       1  UNL1        0.0618
     64 H          11.6033    9.3872   -1.1405 H       1  UNL1        0.0625
@<TRIPOS>BOND
     1     1     2    1
     2     2     3    1
     3     3     4    1
     4     4     5    1
     5     5     6   am
     6     6     7    2
     7     9    10   ar
     8    10    11    1
     9    10    12   ar
    10    12    13   ar
    11    13    14    1
    12    13    15   ar
    13    15    16   ar
    14     9    16   ar
    15    16    17    1
    16     8    18    1
    17    18    19    1
    18    19    20    1
    19    20    21    1
    20    18    22   am
    21    22    23    2
    22    22    24    1
    23    24    25    1
    24    25    26   am
    25    26    27    2
    26    26    28    1
    27    28    29   ar
    28    29    30   ar
    29    30    31   ar
    30    31    32   ar
    31    32    33   ar
    32    28    33   ar
    33     8     9    1
    34     8     6    1
    35     1    34    1
    36     1    35    1
    37     1    36    1
    38     2    37    1
    39     2    38    1
    40     3    39    1
    41     3    40    1
    42     4    41    1
    43     4    42    1
    44     5    43    1
    45     8    44    1
    46    11    45    1
    47    12    46    1
    48    14    47    1
    49    15    48    1
    50    17    49    1
    51    19    50    1
    52    19    51    1
    53    20    52    1
    54    20    53    1
    55    21    54    1
    56    21    55    1
    57    21    56    1
    58    24    57    1
    59    24    58    1
    60    25    59    1
    61    29    60    1
    62    30    61    1
    63    31    62    1
    64    32    63    1
    65    33    64    1
