@<TRIPOS>MOLECULE
*****
 54 57 0 0 0
SMALL
GASTEIGER

@<TRIPOS>ATOM
      1 C           0.9062    0.1040    0.0260 C.3     1  UNL1       -0.0202
      2 C           2.4211    0.1617   -0.0411 C.2     1  UNL1        0.0668
      3 N           3.1105    1.0416   -0.7226 N.2     1  UNL1       -0.1841
      4 N           2.4807    2.0019   -1.4798 N.am    1  UNL1       -0.2015
      5 C           3.1928    2.8834   -2.2882 C.2     1  UNL1        0.2810
      6 O           4.4174    2.8586   -2.4444 O.2     1  UNL1       -0.2668
      7 C           2.3698    3.8624   -2.9679 C.ar    1  UNL1        0.1224
      8 C           1.2452    4.5481   -2.5476 C.ar    1  UNL1       -0.0041
      9 C           0.9177    5.4626   -3.5830 C.ar    1  UNL1        0.0932
     10 C          -0.1201    6.4909   -3.5396 C.ar    1  UNL1        0.0023
     11 C          -1.1272    6.5677   -4.5064 C.ar    1  UNL1       -0.0491
     12 C          -2.0755    7.6020   -4.4568 C.ar    1  UNL1       -0.0193
     13 C          -2.0662    8.5326   -3.4130 C.ar    1  UNL1        0.1210
     14 O          -3.0573    9.4781   -3.4506 O.3     1  UNL1       -0.4873
     15 C          -3.1775   10.3116   -2.2975 C.3     1  UNL1        0.1160
     16 C          -4.4362   11.1421   -2.3704 C.ar    1  UNL1        0.0079
     17 C          -4.3387   12.5457   -2.3911 C.ar    1  UNL1       -0.0540
     18 C          -5.4836   13.3412   -2.3151 C.ar    1  UNL1       -0.0613
     19 C          -6.7430   12.7487   -2.2912 C.ar    1  UNL1       -0.0604
     20 C          -6.8573   11.3594   -2.3035 C.ar    1  UNL1       -0.0430
     21 C          -5.7125   10.5588   -2.3333 C.ar    1  UNL1        0.0474
     22 CL         -5.9373    8.8452   -2.2965 Cl      1  UNL1       -0.0831
     23 C          -1.0746    8.4427   -2.4370 C.ar    1  UNL1       -0.0193
     24 C          -0.1083    7.4328   -2.5025 C.ar    1  UNL1       -0.0491
     25 N           1.7543    5.3154   -4.6203 N.ar    1  UNL1       -0.1732
     26 N           2.6425    4.3851   -4.2065 N.ar    1  UNL1       -0.2719
     27 C           3.1864   -0.8808    0.7485 C.ar    1  UNL1        0.0389
     28 C           4.3871   -0.4993    1.3693 C.ar    1  UNL1       -0.0493
     29 C           5.2411   -1.4599    1.9274 C.ar    1  UNL1       -0.0609
     30 C           4.8755   -2.8040    1.9353 C.ar    1  UNL1       -0.0583
     31 C           3.6557   -3.1912    1.3842 C.ar    1  UNL1       -0.0195
     32 C           2.8150   -2.2353    0.7977 C.ar    1  UNL1        0.1257
     33 O           1.6419   -2.6647    0.2439 O.3     1  UNL1       -0.5061
     34 H           0.4152    0.8944   -0.5368 H       1  UNL1        0.0293
     35 H           0.5869    0.1937    1.0681 H       1  UNL1        0.0293
     36 H           0.5278   -0.8270   -0.3951 H       1  UNL1        0.0293
     37 H           1.4734    2.0150   -1.5423 H       1  UNL1        0.1776
     38 H           0.7597    4.4644   -1.5879 H       1  UNL1        0.0662
     39 H          -1.1857    5.8250   -5.2986 H       1  UNL1        0.0625
     40 H          -2.8249    7.6830   -5.2415 H       1  UNL1        0.0654
     41 H          -2.3023   10.9711   -2.2419 H       1  UNL1        0.0748
     42 H          -3.2250    9.7230   -1.3705 H       1  UNL1        0.0748
     43 H          -3.3664   13.0317   -2.4549 H       1  UNL1        0.0622
     44 H          -5.3923   14.4239   -2.2660 H       1  UNL1        0.0618
     45 H          -7.6363   13.3669   -2.2660 H       1  UNL1        0.0618
     46 H          -7.8427   10.9018   -2.2730 H       1  UNL1        0.0632
     47 H          -1.0080    9.1513   -1.6189 H       1  UNL1        0.0654
     48 H           0.6673    7.4018   -1.7411 H       1  UNL1        0.0625
     49 H           3.4111    4.1422   -4.8268 H       1  UNL1        0.1891
     50 H           4.6777    0.5488    1.4046 H       1  UNL1        0.0625
     51 H           6.2084   -1.1617    2.3267 H       1  UNL1        0.0618
     52 H           5.5432   -3.5488    2.3637 H       1  UNL1        0.0619
     53 H           3.3946   -4.2464    1.3853 H       1  UNL1        0.0654
     54 H           1.5296   -3.6162    0.4044 H       1  UNL1        0.2922
@<TRIPOS>BOND
     1     1     2    1
     2     2     3    2
     3     3     4    1
     4     4     5   am
     5     5     6    2
     6     5     7    1
     7     7     8   ar
     8     8     9   ar
     9     9    10    1
    10    10    11   ar
    11    11    12   ar
    12    12    13   ar
    13    13    14    1
    14    14    15    1
    15    15    16    1
    16    16    17   ar
    17    17    18   ar
    18    18    19   ar
    19    19    20   ar
    20    20    21   ar
    21    16    21   ar
    22    21    22    1
    23    13    23   ar
    24    23    24   ar
    25    10    24   ar
    26     9    25   ar
    27    25    26   ar
    28     7    26   ar
    29     2    27    1
    30    27    28   ar
    31    28    29   ar
    32    29    30   ar
    33    30    31   ar
    34    31    32   ar
    35    27    32   ar
    36    32    33    1
    37     1    34    1
    38     1    35    1
    39     1    36    1
    40     4    37    1
    41     8    38    1
    42    11    39    1
    43    12    40    1
    44    15    41    1
    45    15    42    1
    46    17    43    1
    47    18    44    1
    48    19    45    1
    49    20    46    1
    50    23    47    1
    51    24    48    1
    52    26    49    1
    53    28    50    1
    54    29    51    1
    55    30    52    1
    56    31    53    1
    57    33    54    1
