@<TRIPOS>MOLECULE
*****
 45 48 0 0 0
SMALL
GASTEIGER

@<TRIPOS>ATOM
      1 N           2.5607   -0.7579   -0.2437 N.pl3   1  UNL1       -0.3415
      2 C           1.3029   -0.2860   -0.0397 C.ar    1  UNL1        0.1458
      3 N           1.2998    1.0827   -0.0099 N.ar    1  UNL1       -0.2069
      4 C           0.1870    1.7062   -0.0028 C.ar    1  UNL1        0.1713
      5 S           0.1423    3.4409   -0.0288 S.3     1  UNL1       -0.0784
      6 C           1.9479    3.9697   -0.0665 C.3     1  UNL1        0.0779
      7 C           2.0173    5.5245   -0.0896 C.2     1  UNL1        0.2275
      8 O           0.9892    6.2055   -0.1054 O.2     1  UNL1       -0.2746
      9 N           3.2896    6.1194   -0.1372 N.am    1  UNL1       -0.2847
     10 C           3.4472    7.5449   -0.1597 C.ar    1  UNL1        0.0371
     11 C           2.6494    8.3559    0.6780 C.ar    1  UNL1       -0.0368
     12 C           2.7606    9.7521    0.6837 C.ar    1  UNL1       -0.0144
     13 C           3.6627   10.3254   -0.1789 C.ar    1  UNL1        0.1663
     14 C           4.4497    9.5574   -1.0053 C.ar    1  UNL1        0.1680
     15 C           4.3906    8.1648   -0.9990 C.ar    1  UNL1        0.0051
     16 O           5.2441   10.3328   -1.8012 O.3     1  UNL1       -0.4525
     17 C           4.8158   11.6622   -1.4182 C.3     1  UNL1        0.2332
     18 O           3.8804   11.6599   -0.3231 O.3     1  UNL1       -0.4526
     19 N          -1.0179    1.0747    0.0207 N.ar    1  UNL1       -0.3003
     20 C          -1.1148   -0.2979    0.0341 C.ar    1  UNL1        0.2753
     21 O          -2.2031   -0.8739    0.0116 O.2     1  UNL1       -0.2657
     22 C           0.1922   -1.0750    0.0490 C.ar    1  UNL1        0.1389
     23 N           0.1314   -2.4989    0.0898 N.am    1  UNL1       -0.2741
     24 C           1.1962   -3.3966    0.2220 C.2     1  UNL1        0.2551
     25 O           2.3817   -3.0429    0.3215 O.2     1  UNL1       -0.2693
     26 C           0.9661   -4.8221    0.2388 C.ar    1  UNL1        0.0742
     27 C           0.1949   -5.6222   -0.5747 C.ar    1  UNL1       -0.0425
     28 C           0.4471   -7.0124   -0.3464 C.ar    1  UNL1       -0.0540
     29 C           1.4047   -7.2294    0.6192 C.ar    1  UNL1       -0.0236
     30 S           2.0050   -5.7691    1.2491 S.2     1  UNL1       -0.0921
     31 H           3.3156   -0.1424    0.0114 H       1  UNL1        0.1438
     32 H           2.7258   -1.7488   -0.0891 H       1  UNL1        0.1438
     33 H           2.4382    3.5735   -0.9628 H       1  UNL1        0.0475
     34 H           2.4619    3.6020    0.8283 H       1  UNL1        0.0475
     35 H           4.0999    5.5615   -0.3793 H       1  UNL1        0.1548
     36 H           1.9356    7.8978    1.3585 H       1  UNL1        0.0637
     37 H           2.1449   10.3581    1.3381 H       1  UNL1        0.0656
     38 H           5.0130    7.6038   -1.6862 H       1  UNL1        0.0674
     39 H           4.3386   12.1492   -2.2787 H       1  UNL1        0.1166
     40 H           5.6940   12.2552   -1.1346 H       1  UNL1        0.1166
     41 H          -1.8659    1.6242    0.0082 H       1  UNL1        0.1709
     42 H          -0.8121   -2.8875    0.1117 H       1  UNL1        0.1554
     43 H          -0.4492   -5.2340   -1.3514 H       1  UNL1        0.0630
     44 H          -0.0286   -7.8189   -0.8875 H       1  UNL1        0.0623
     45 H           1.7995   -8.1711    0.9774 H       1  UNL1        0.0693
@<TRIPOS>BOND
     1     1     2    1
     2     2     3   ar
     3     3     4   ar
     4     4     5    1
     5     5     6    1
     6     6     7    1
     7     7     8    2
     8     7     9   am
     9     9    10    1
    10    10    11   ar
    11    11    12   ar
    12    12    13   ar
    13    13    14   ar
    14    14    15   ar
    15    10    15   ar
    16    14    16    1
    17    16    17    1
    18    17    18    1
    19    13    18    1
    20     4    19   ar
    21    19    20   ar
    22    20    21    2
    23    20    22   ar
    24     2    22   ar
    25    22    23    1
    26    23    24   am
    27    24    25    2
    28    24    26    1
    29    26    27   ar
    30    27    28   ar
    31    28    29   ar
    32    29    30   ar
    33    26    30   ar
    34     1    31    1
    35     1    32    1
    36     6    33    1
    37     6    34    1
    38     9    35    1
    39    11    36    1
    40    12    37    1
    41    15    38    1
    42    17    39    1
    43    17    40    1
    44    19    41    1
    45    23    42    1
    46    27    43    1
    47    28    44    1
    48    29    45    1
