@<TRIPOS>MOLECULE
*****
 66 68 0 0 0
SMALL
GASTEIGER

@<TRIPOS>ATOM
      1 C           0.9127    0.2100    0.1129 C.2     1  UNL1       -0.1010
      2 C           2.2447    0.2284    0.1937 C.2     1  UNL1       -0.0715
      3 C           3.2538    1.2712    0.5581 C.3     1  UNL1        0.0450
      4 N           4.6845    0.9590    0.3796 N.ar    1  UNL1       -0.2983
      5 C           5.7242    1.8862    0.3344 C.ar    1  UNL1        0.1926
      6 S           5.7904    3.6285    0.3380 S.3     1  UNL1       -0.0766
      7 C           4.1881    4.4509    0.4516 C.3     1  UNL1        0.0779
      8 C           4.3149    6.0037    0.4336 C.2     1  UNL1        0.2275
      9 O           5.3970    6.5811    0.3391 O.2     1  UNL1       -0.2746
     10 N           3.1012    6.7052    0.5650 N.am    1  UNL1       -0.2848
     11 C           3.0332    8.1335    0.5607 C.ar    1  UNL1        0.0335
     12 C           2.1999    8.8217    1.4543 C.ar    1  UNL1       -0.0386
     13 C           2.1586   10.2333    1.4517 C.ar    1  UNL1       -0.0336
     14 C           2.9671   10.9665    0.5690 C.ar    1  UNL1        0.1054
     15 S           3.0221   12.7392    0.7472 S.O2    1  UNL1        0.0584
     16 O           1.7181   13.2454    0.3571 O.2     1  UNL1       -0.1531
     17 O           3.5919   13.0252    2.0396 O.2     1  UNL1       -0.1531
     18 N           4.1145   13.3253   -0.4361 N.3     1  UNL1       -0.1900
     19 C           4.2860   14.8052   -0.3380 C.3     1  UNL1        0.0174
     20 C           5.2695   15.3119   -1.3892 C.3     1  UNL1       -0.0388
     21 C           5.3883   16.8359   -1.3011 C.3     1  UNL1       -0.0519
     22 C           6.3630   17.3787   -2.3396 C.3     1  UNL1       -0.0533
     23 C           6.4748   18.8979   -2.2420 C.3     1  UNL1       -0.0559
     24 C           7.4482   19.4303   -3.2779 C.3     1  UNL1       -0.0653
     25 C           3.7518   10.2908   -0.3599 C.ar    1  UNL1       -0.0336
     26 C           3.7789    8.8853   -0.3569 C.ar    1  UNL1       -0.0386
     27 N           6.8675    1.2342    0.2830 N.ar    1  UNL1       -0.1221
     28 N           6.6241   -0.1029    0.3152 N.ar    1  UNL1       -0.1283
     29 C           5.3216   -0.2984    0.3527 C.ar    1  UNL1        0.1652
     30 C           4.7485   -1.6580    0.3443 C.ar    1  UNL1        0.0193
     31 C           4.9494   -2.5383    1.4148 C.ar    1  UNL1       -0.0510
     32 C           4.3635   -3.8125    1.4026 C.ar    1  UNL1       -0.0611
     33 C           3.4516   -4.1588    0.4065 C.ar    1  UNL1       -0.0617
     34 C           3.2485   -3.2973   -0.6626 C.ar    1  UNL1       -0.0611
     35 C           3.9989   -2.1208   -0.7531 C.ar    1  UNL1       -0.0510
     36 H           0.4478   -0.7334   -0.1926 H       1  UNL1        0.0532
     37 H           0.2700    1.0390    0.3525 H       1  UNL1        0.0532
     38 H           2.6111   -0.7394   -0.0147 H       1  UNL1        0.0584
     39 H           3.1399    1.5258    1.6157 H       1  UNL1        0.0536
     40 H           3.0578    2.1385   -0.0720 H       1  UNL1        0.0536
     41 H           3.7100    4.1481    1.3850 H       1  UNL1        0.0475
     42 H           3.5905    4.1655   -0.4147 H       1  UNL1        0.0475
     43 H           2.2747    6.2100    0.8752 H       1  UNL1        0.1548
     44 H           1.6428    8.2939    2.2255 H       1  UNL1        0.0637
     45 H           1.5195   10.7604    2.1611 H       1  UNL1        0.0638
     46 H           3.7804   13.0685   -1.3650 H       1  UNL1        0.1480
     47 H           4.6516   15.0759    0.6581 H       1  UNL1        0.0441
     48 H           3.3157   15.2863   -0.5061 H       1  UNL1        0.0441
     49 H           4.9320   15.0268   -2.3933 H       1  UNL1        0.0278
     50 H           6.2542   14.8522   -1.2410 H       1  UNL1        0.0278
     51 H           5.7247   17.1238   -0.2972 H       1  UNL1        0.0266
     52 H           4.4023   17.2935   -1.4522 H       1  UNL1        0.0266
     53 H           6.0255   17.0980   -3.3447 H       1  UNL1        0.0265
     54 H           7.3506   16.9260   -2.1901 H       1  UNL1        0.0265
     55 H           6.8148   19.1854   -1.2400 H       1  UNL1        0.0263
     56 H           5.4911   19.3574   -2.3954 H       1  UNL1        0.0263
     57 H           8.4450   19.0033   -3.1281 H       1  UNL1        0.0230
     58 H           7.5259   20.5186   -3.2045 H       1  UNL1        0.0230
     59 H           7.1147   19.1766   -4.2892 H       1  UNL1        0.0230
     60 H           4.3696   10.8212   -1.0766 H       1  UNL1        0.0638
     61 H           4.3970    8.3789   -1.0941 H       1  UNL1        0.0637
     62 H           5.5667   -2.2477    2.2627 H       1  UNL1        0.0625
     63 H           4.6085   -4.5341    2.1780 H       1  UNL1        0.0618
     64 H           2.9127   -5.1020    0.4551 H       1  UNL1        0.0618
     65 H           2.4953   -3.5217   -1.4146 H       1  UNL1        0.0618
     66 H           3.8462   -1.4724   -1.6153 H       1  UNL1        0.0625
@<TRIPOS>BOND
     1     1     2    2
     2     2     3    1
     3     3     4    1
     4     4     5   ar
     5     5     6    1
     6     6     7    1
     7     7     8    1
     8     8     9    2
     9     8    10   am
    10    10    11    1
    11    11    12   ar
    12    12    13   ar
    13    13    14   ar
    14    14    15    1
    15    15    16    2
    16    15    17    2
    17    15    18    1
    18    18    19    1
    19    19    20    1
    20    20    21    1
    21    21    22    1
    22    22    23    1
    23    23    24    1
    24    14    25   ar
    25    25    26   ar
    26    11    26   ar
    27     5    27   ar
    28    27    28   ar
    29    28    29   ar
    30     4    29   ar
    31    29    30    1
    32    30    31   ar
    33    31    32   ar
    34    32    33   ar
    35    33    34   ar
    36    34    35   ar
    37    30    35   ar
    38     1    36    1
    39     1    37    1
    40     2    38    1
    41     3    39    1
    42     3    40    1
    43     7    41    1
    44     7    42    1
    45    10    43    1
    46    12    44    1
    47    13    45    1
    48    18    46    1
    49    19    47    1
    50    19    48    1
    51    20    49    1
    52    20    50    1
    53    21    51    1
    54    21    52    1
    55    22    53    1
    56    22    54    1
    57    23    55    1
    58    23    56    1
    59    24    57    1
    60    24    58    1
    61    24    59    1
    62    25    60    1
    63    26    61    1
    64    31    62    1
    65    32    63    1
    66    33    64    1
    67    34    65    1
    68    35    66    1
