@<TRIPOS>MOLECULE
*****
 67 69 0 0 0
SMALL
GASTEIGER

@<TRIPOS>ATOM
      1 C           1.0340    0.0475   -0.0727 C.3     1  UNL1       -0.0517
      2 C           2.5790    0.0738   -0.0874 C.3     1  UNL1        0.0389
      3 C           3.0807   -0.3751    1.2886 C.3     1  UNL1       -0.0517
      4 C           3.0706   -0.8901   -1.1702 C.3     1  UNL1       -0.0517
      5 C           3.0396    1.5027   -0.4187 C.2     1  UNL1        0.2226
      6 O           2.1961    2.3845   -0.6311 O.2     1  UNL1       -0.2749
      7 N           4.4119    1.7195   -0.5330 N.am    1  UNL1       -0.2850
      8 C           4.9527    3.0138   -0.7214 C.ar    1  UNL1        0.0352
      9 C           6.0712    3.2676   -1.4992 C.ar    1  UNL1       -0.0404
     10 C           6.5603    4.5835   -1.5864 C.ar    1  UNL1       -0.0583
     11 C           5.9318    5.6438   -0.8984 C.ar    1  UNL1       -0.0404
     12 C           4.8281    5.3834   -0.0854 C.ar    1  UNL1        0.0352
     13 N           4.2065    6.3981    0.6968 N.am    1  UNL1       -0.2842
     14 C           3.1595    6.1608    1.5881 C.2     1  UNL1        0.2343
     15 O           2.6168    5.0699    1.8115 O.2     1  UNL1       -0.2738
     16 C           2.6329    7.3579    2.3734 C.3     1  UNL1        0.0861
     17 N           1.6643    6.8478    3.3503 N.pl3   1  UNL1       -0.3353
     18 C           0.7571    7.6074    4.0491 C.ar    1  UNL1        0.0310
     19 C           0.2547    7.1090    5.2544 C.ar    1  UNL1       -0.0406
     20 C          -0.6899    7.8233    5.9910 C.ar    1  UNL1       -0.0566
     21 C          -1.1124    9.0746    5.5458 C.ar    1  UNL1       -0.0198
     22 C          -0.6138    9.5942    4.3521 C.ar    1  UNL1        0.1222
     23 O          -1.1177   10.8099    3.9654 O.3     1  UNL1       -0.4919
     24 C          -0.6634   11.2745    2.6923 C.3     1  UNL1        0.0899
     25 C          -1.3474   12.5867    2.3649 C.3     1  UNL1       -0.0146
     26 C          -0.8557   13.1271    1.0195 C.3     1  UNL1       -0.0246
     27 C          -1.5234   14.4400    0.7133 C.ar    1  UNL1       -0.0472
     28 C          -0.8072   15.6390    0.7991 C.ar    1  UNL1       -0.0586
     29 C          -1.4722   16.8591    0.6885 C.ar    1  UNL1       -0.0615
     30 C          -2.8388   16.8883    0.4139 C.ar    1  UNL1       -0.0617
     31 C          -3.5503   15.6980    0.2821 C.ar    1  UNL1       -0.0615
     32 C          -2.8964   14.4781    0.4352 C.ar    1  UNL1       -0.0586
     33 C           0.3265    8.8598    3.6239 C.ar    1  UNL1        0.0009
     34 C           4.3686    4.0714   -0.0365 C.ar    1  UNL1       -0.0192
     35 H           0.6489   -0.9564    0.1328 H       1  UNL1        0.0239
     36 H           0.6242    0.3702   -1.0380 H       1  UNL1        0.0239
     37 H           0.6311    0.7241    0.6915 H       1  UNL1        0.0239
     38 H           2.7165   -1.3833    1.5233 H       1  UNL1        0.0239
     39 H           2.7260    0.2961    2.0792 H       1  UNL1        0.0239
     40 H           4.1735   -0.3975    1.3379 H       1  UNL1        0.0239
     41 H           2.7022   -1.9052   -0.9875 H       1  UNL1        0.0239
     42 H           4.1634   -0.9363   -1.2066 H       1  UNL1        0.0239
     43 H           2.7204   -0.5751   -2.1596 H       1  UNL1        0.0239
     44 H           5.0527    0.9386   -0.5411 H       1  UNL1        0.1548
     45 H           6.5261    2.4813   -2.0940 H       1  UNL1        0.0636
     46 H           7.4401    4.7835   -2.1964 H       1  UNL1        0.0619
     47 H           6.3305    6.6485   -1.0145 H       1  UNL1        0.0636
     48 H           4.5904    7.3328    0.6283 H       1  UNL1        0.1549
     49 H           2.2015    8.0666    1.6619 H       1  UNL1        0.0557
     50 H           3.4578    7.8103    2.9277 H       1  UNL1        0.0557
     51 H           1.3608    5.8865    3.1458 H       1  UNL1        0.1466
     52 H           0.6285    6.1622    5.6388 H       1  UNL1        0.0636
     53 H          -1.0962    7.3978    6.9040 H       1  UNL1        0.0619
     54 H          -1.8346    9.6389    6.1287 H       1  UNL1        0.0654
     55 H          -0.9141   10.5458    1.9102 H       1  UNL1        0.0696
     56 H           0.4205   11.4390    2.7250 H       1  UNL1        0.0696
     57 H          -1.1575   13.3105    3.1676 H       1  UNL1        0.0301
     58 H          -2.4338   12.4317    2.3563 H       1  UNL1        0.0301
     59 H          -1.0641   12.4144    0.2119 H       1  UNL1        0.0314
     60 H           0.2343   13.2544    1.0465 H       1  UNL1        0.0314
     61 H           0.2654   15.6311    0.9785 H       1  UNL1        0.0620
     62 H          -0.9277   17.7875    0.8368 H       1  UNL1        0.0618
     63 H          -3.3502   17.8403    0.3056 H       1  UNL1        0.0618
     64 H          -4.6188   15.7175    0.0869 H       1  UNL1        0.0618
     65 H          -3.4670   13.5543    0.3659 H       1  UNL1        0.0620
     66 H           0.7101    9.2385    2.6878 H       1  UNL1        0.0673
     67 H           3.5352    3.8023    0.5883 H       1  UNL1        0.0655
@<TRIPOS>BOND
     1     1     2    1
     2     2     3    1
     3     2     4    1
     4     2     5    1
     5     5     6    2
     6     5     7   am
     7     7     8    1
     8     8     9   ar
     9     9    10   ar
    10    10    11   ar
    11    11    12   ar
    12    12    13    1
    13    13    14   am
    14    14    15    2
    15    14    16    1
    16    16    17    1
    17    17    18    1
    18    18    19   ar
    19    19    20   ar
    20    20    21   ar
    21    21    22   ar
    22    22    23    1
    23    23    24    1
    24    24    25    1
    25    25    26    1
    26    26    27    1
    27    27    28   ar
    28    28    29   ar
    29    29    30   ar
    30    30    31   ar
    31    31    32   ar
    32    27    32   ar
    33    22    33   ar
    34    18    33   ar
    35    12    34   ar
    36     8    34   ar
    37     1    35    1
    38     1    36    1
    39     1    37    1
    40     3    38    1
    41     3    39    1
    42     3    40    1
    43     4    41    1
    44     4    42    1
    45     4    43    1
    46     7    44    1
    47     9    45    1
    48    10    46    1
    49    11    47    1
    50    13    48    1
    51    16    49    1
    52    16    50    1
    53    17    51    1
    54    19    52    1
    55    20    53    1
    56    21    54    1
    57    24    55    1
    58    24    56    1
    59    25    57    1
    60    25    58    1
    61    26    59    1
    62    26    60    1
    63    28    61    1
    64    29    62    1
    65    30    63    1
    66    31    64    1
    67    32    65    1
    68    33    66    1
    69    34    67    1
