REMARK  6 active torsions:
REMARK  status: ('A' for Active; 'I' for Inactive)
REMARK    1  A    between atoms: C_2  and  N_3 
REMARK    2  A    between atoms: C_2  and  C_14 
REMARK    3  A    between atoms: N_3  and  C_4 
REMARK    4  A    between atoms: C_7  and  C_8 
REMARK       I    between atoms: C_8  and  N_9 
REMARK    5  A    between atoms: C_14  and  O_15 
REMARK    6  A    between atoms: C_14  and  C_16 
ROOT
ATOM      1  N   UNL d   1       2.632   1.600   0.381  0.00  0.00    -0.269 NA
ATOM      2  H   UNL d   1       3.581   1.748   0.727  0.00  0.00     0.129 HD
ENDROOT
BRANCH   1   3
ATOM      3  C   UNL d   1       2.413   0.151   0.026  0.00  0.00     0.091 C 
ATOM      4  C   UNL d   1       0.929  -0.151  -0.047  0.00  0.00     0.029 C 
BRANCH   3   5
ATOM      5  C   UNL d   1       3.050  -0.808   1.088  0.00  0.00     0.168 C 
BRANCH   5   6
ATOM      6  O   UNL d   1       2.597  -2.159   0.906  0.00  0.00    -0.389 OA
ATOM      7  H   UNL d   1       2.909  -2.461   0.037  0.00  0.00     0.210 HD
ENDBRANCH   5   6
BRANCH   5   8
ATOM      8  C   UNL d   1       4.565  -0.829   1.068  0.00  0.00    -0.028 A 
ATOM      9  C   UNL d   1       5.310   0.022   0.236  0.00  0.00     0.011 A 
ATOM     10  C   UNL d   1       6.694   0.064   0.290  0.00  0.00     0.019 A 
ATOM     11  C   UNL d   1       7.362  -0.795   1.147  0.00  0.00     0.011 A 
ATOM     12 BR   UNL d   1       9.247  -0.744   1.198  0.00  0.00    -0.051 Br
ATOM     13  C   UNL d   1       6.655  -1.689   1.951  0.00  0.00     0.019 A 
ATOM     14  C   UNL d   1       5.259  -1.702   1.919  0.00  0.00     0.011 A 
ENDBRANCH   5   8
ENDBRANCH   3   5
ENDBRANCH   1   3
BRANCH   1  15
ATOM     15  C   UNL d   1       2.445   2.527  -0.665  0.00  0.00     0.125 C 
ATOM     16  N   UNL d   1       3.551   3.144  -1.162  0.00  0.00    -0.246 NA
ATOM     17  C   UNL d   1       3.375   4.049  -2.182  0.00  0.00     0.135 C 
ATOM     18  C   UNL d   1       2.160   4.304  -2.803  0.00  0.00     0.051 C 
ATOM     19  C   UNL d   1       1.048   3.656  -2.289  0.00  0.00     0.045 C 
ATOM     20  C   UNL d   1       1.174   2.857  -1.161  0.00  0.00     0.075 C 
ATOM     21 CL   UNL d   1      -0.307   2.595  -0.304  0.00  0.00    -0.081 Cl
BRANCH  18  22
ATOM     22  C   UNL d   1       1.923   5.264  -3.910  0.00  0.00     0.250 C 
ATOM     23  N   UNL d   1       2.975   5.985  -4.397  0.00  0.00    -0.366 N 
ATOM     24  H   UNL d   1       3.926   5.944  -4.071  0.00  0.00     0.159 HD
ATOM     25  H   UNL d   1       2.762   6.630  -5.150  0.00  0.00     0.159 HD
ATOM     26  O   UNL d   1       0.809   5.418  -4.381  0.00  0.00    -0.268 OA
ENDBRANCH  18  22
ENDBRANCH   1  15
TORSDOF 6
