@<TRIPOS>MOLECULE
*****
 33 34 0 0 0
SMALL
GASTEIGER

@<TRIPOS>ATOM
      1 C           2.4444   -0.3582    0.4683 C.3     1  UNL1       -0.0380
      2 C           0.9895   -0.1130    0.1886 C.ar    1  UNL1       -0.0292
      3 C           0.2246   -1.2774    0.0812 C.ar    1  UNL1       -0.0564
      4 C          -1.1561   -1.2322   -0.0051 C.ar    1  UNL1       -0.0493
      5 C          -1.8212   -0.0090   -0.0078 C.ar    1  UNL1        0.0383
      6 C          -3.3206    0.0404   -0.0462 C.2     1  UNL1        0.2416
      7 N          -4.0060   -1.1561   -0.0631 N.am    1  UNL1       -0.3253
      8 O          -3.9264    1.0929   -0.0602 O.2     1  UNL1       -0.2704
      9 C          -1.0597    1.1834    0.0057 C.ar    1  UNL1       -0.0281
     10 C           0.3584    1.1432    0.0444 C.ar    1  UNL1        0.0373
     11 N           1.0628    2.3798   -0.0743 N.am    1  UNL1       -0.2813
     12 C           2.4332    2.5845   -0.1957 C.2     1  UNL1        0.2483
     13 O           3.0075    3.3733    0.5524 O.2     1  UNL1       -0.2699
     14 C           3.2171    1.8604   -1.2688 C.ar    1  UNL1        0.0371
     15 C           4.6134    1.7220   -1.1138 C.ar    1  UNL1       -0.0486
     16 C           5.3263    0.7923   -1.8916 C.ar    1  UNL1       -0.0470
     17 C           4.6472   -0.0281   -2.7940 C.ar    1  UNL1        0.0179
     18 BR          5.5846   -1.3227   -3.8031 Br      1  UNL1       -0.0503
     19 C           3.2671    0.0807   -2.9404 C.ar    1  UNL1       -0.0470
     20 C           2.5664    1.0759   -2.2443 C.ar    1  UNL1       -0.0486
     21 H           2.6779   -1.4084    0.6511 H       1  UNL1        0.0278
     22 H           2.8253    0.2650    1.2787 H       1  UNL1        0.0278
     23 H           3.0360   -0.2113   -0.4090 H       1  UNL1        0.0278
     24 H           0.7183   -2.2463    0.0828 H       1  UNL1        0.0621
     25 H          -1.6690   -2.1836   -0.0416 H       1  UNL1        0.0625
     26 H          -3.5959   -2.0745   -0.0463 H       1  UNL1        0.1453
     27 H          -5.0168   -1.1141   -0.0805 H       1  UNL1        0.1453
     28 H          -1.5904    2.1362   -0.0346 H       1  UNL1        0.0644
     29 H           0.5538    3.2168    0.1953 H       1  UNL1        0.1551
     30 H           5.1367    2.2481   -0.3152 H       1  UNL1        0.0625
     31 H           6.3961    0.6661   -1.7380 H       1  UNL1        0.0629
     32 H           2.7089   -0.6659   -3.5026 H       1  UNL1        0.0629
     33 H           1.4820    1.0581   -2.3079 H       1  UNL1        0.0625
@<TRIPOS>BOND
     1     1     2    1
     2     2     3   ar
     3     3     4   ar
     4     4     5   ar
     5     5     6    1
     6     6     7   am
     7     6     8    2
     8     5     9   ar
     9     9    10   ar
    10     2    10   ar
    11    10    11    1
    12    11    12   am
    13    12    13    2
    14    12    14    1
    15    14    15   ar
    16    15    16   ar
    17    16    17   ar
    18    17    18    1
    19    17    19   ar
    20    19    20   ar
    21    14    20   ar
    22     1    21    1
    23     1    22    1
    24     1    23    1
    25     3    24    1
    26     4    25    1
    27     7    26    1
    28     7    27    1
    29     9    28    1
    30    11    29    1
    31    15    30    1
    32    16    31    1
    33    19    32    1
    34    20    33    1
