@<TRIPOS>MOLECULE
*****
 40 40 0 0 0
SMALL
GASTEIGER

@<TRIPOS>ATOM
      1 C           1.1546   -0.0705   -0.0879 C.3     1  UNL1        0.0121
      2 C           2.6589   -0.0251   -0.0387 C.2     1  UNL1        0.2099
      3 O           3.2597    0.7051    0.7519 O.2     1  UNL1       -0.2761
      4 N           3.3021   -0.8512   -0.9338 N.am    1  UNL1       -0.3155
      5 C           4.7537   -0.8929   -0.9785 C.3     1  UNL1        0.0116
      6 C           5.2946   -1.8616   -2.0277 C.3     1  UNL1       -0.0374
      7 C           6.8315   -1.8752   -2.0420 C.3     1  UNL1       -0.0512
      8 C           7.3687   -2.8485   -3.0957 C.3     1  UNL1       -0.0447
      9 C           8.9040   -2.8990   -3.1516 C.3     1  UNL1        0.0254
     10 C           9.3867   -3.8763   -4.2233 C.2     1  UNL1        0.2290
     11 O           8.6151   -4.5334   -4.9248 O.2     1  UNL1       -0.2743
     12 N          10.7659   -3.9536   -4.3662 N.am    1  UNL1       -0.2364
     13 N          11.2639   -4.9008   -5.2727 N.pl3   1  UNL1       -0.2617
     14 C          12.6514   -5.0709   -5.4569 C.ar    1  UNL1        0.0811
     15 C          13.5594   -5.1829   -4.3827 C.ar    1  UNL1        0.0660
     16 CL         13.0380   -5.1554   -2.7292 Cl      1  UNL1       -0.0815
     17 C          14.9283   -5.4025   -4.5939 C.ar    1  UNL1       -0.0231
     18 C          15.4325   -5.4758   -5.8859 C.ar    1  UNL1        0.0439
     19 CL         17.1138   -5.7478   -6.1311 Cl      1  UNL1       -0.0834
     20 C          14.5830   -5.3332   -6.9742 C.ar    1  UNL1       -0.0231
     21 C          13.2085   -5.1405   -6.7590 C.ar    1  UNL1        0.0660
     22 CL         12.2127   -4.9810   -8.1683 Cl      1  UNL1       -0.0815
     23 H           0.7516    0.6206    0.6607 H       1  UNL1        0.0322
     24 H           0.7924   -1.0754    0.1447 H       1  UNL1        0.0322
     25 H           0.7924    0.2414   -1.0711 H       1  UNL1        0.0322
     26 H           2.7615   -1.4325   -1.5627 H       1  UNL1        0.1487
     27 H           5.1101   -1.1750    0.0191 H       1  UNL1        0.0462
     28 H           5.1102    0.1240   -1.1803 H       1  UNL1        0.0462
     29 H           4.9179   -1.5783   -3.0185 H       1  UNL1        0.0280
     30 H           4.9177   -2.8717   -1.8243 H       1  UNL1        0.0280
     31 H           7.2045   -2.1621   -1.0515 H       1  UNL1        0.0266
     32 H           7.2045   -0.8650   -2.2496 H       1  UNL1        0.0266
     33 H           6.9800   -2.5601   -4.0806 H       1  UNL1        0.0270
     34 H           6.9801   -3.8533   -2.8870 H       1  UNL1        0.0270
     35 H           9.2998   -3.2106   -2.1779 H       1  UNL1        0.0359
     36 H           9.2978   -1.9015   -3.3786 H       1  UNL1        0.0359
     37 H          11.4183   -3.4936   -3.7385 H       1  UNL1        0.1727
     38 H          10.6045   -5.2498   -5.9731 H       1  UNL1        0.1701
     39 H          15.5963   -5.5303   -3.7454 H       1  UNL1        0.0647
     40 H          14.9871   -5.3760   -7.9842 H       1  UNL1        0.0647
@<TRIPOS>BOND
     1     1     2    1
     2     2     3    2
     3     2     4   am
     4     4     5    1
     5     5     6    1
     6     6     7    1
     7     7     8    1
     8     8     9    1
     9     9    10    1
    10    10    11    2
    11    10    12   am
    12    12    13    1
    13    13    14    1
    14    14    15   ar
    15    15    16    1
    16    15    17   ar
    17    17    18   ar
    18    18    19    1
    19    18    20   ar
    20    20    21   ar
    21    14    21   ar
    22    21    22    1
    23     1    23    1
    24     1    24    1
    25     1    25    1
    26     4    26    1
    27     5    27    1
    28     5    28    1
    29     6    29    1
    30     6    30    1
    31     7    31    1
    32     7    32    1
    33     8    33    1
    34     8    34    1
    35     9    35    1
    36     9    36    1
    37    12    37    1
    38    13    38    1
    39    17    39    1
    40    20    40    1
