REMARK  9 active torsions:
REMARK  status: ('A' for Active; 'I' for Inactive)
REMARK    1  A    between atoms: O_2  and  C_3 
REMARK    2  A    between atoms: C_7  and  C_6 
REMARK    3  A    between atoms: C_7  and  N_17 
REMARK    4  A    between atoms: C_7  and  C_8 
REMARK       I    between atoms: C_8  and  N_10 
REMARK    5  A    between atoms: N_10  and  C_11 
REMARK    6  A    between atoms: N_17  and  C_18 
REMARK       I    between atoms: N_17  and  C_25 
REMARK    7  A    between atoms: C_18  and  C_19 
REMARK    8  A    between atoms: C_25  and  C_27 
REMARK    9  A    between atoms: C_30  and  C_31 
REMARK       I    between atoms: C_31  and  N_32 
ROOT
ATOM      1  N   UNL d   1       4.612   3.077   5.082  0.00  0.00    -0.326 N 
ATOM      2  C   UNL d   1       5.223   3.540   6.303  0.00  0.00     0.265 C 
ATOM      3  O   UNL d   1       6.390   3.849   6.362  0.00  0.00    -0.267 OA
ENDROOT
BRANCH   1   4
ATOM      4  C   UNL d   1       5.329   3.185   3.732  0.00  0.00     0.213 C 
BRANCH   4   5
ATOM      5  C   UNL d   1       5.091   2.092   2.535  0.00  0.00     0.245 C 
ATOM      6  O   UNL d   1       5.332   0.920   2.765  0.00  0.00    -0.271 OA
ATOM      7  N   UNL d   1       4.704   2.527   1.257  0.00  0.00    -0.354 N 
ATOM      8  H   UNL d   1       5.378   3.176   0.882  0.00  0.00     0.162 HD
BRANCH   7   9
ATOM      9  C   UNL d   1       4.033   1.818   0.129  0.00  0.00     0.084 C 
ATOM     10  C   UNL d   1       4.202   0.318   0.213  0.00  0.00     0.025 C 
ATOM     11  C   UNL d   1       3.292  -0.523  -0.673  0.00  0.00     0.002 C 
ATOM     12  C   UNL d   1       1.827  -0.085  -0.823  0.00  0.00     0.000 C 
ATOM     13  C   UNL d   1       1.683   1.424  -0.970  0.00  0.00     0.002 C 
ATOM     14  C   UNL d   1       2.610   2.349  -0.150  0.00  0.00     0.025 C 
ENDBRANCH   7   9
ENDBRANCH   4   5
BRANCH   4  15
ATOM     15  C   UNL d   1       5.506   4.639   3.262  0.00  0.00    -0.026 C 
ATOM     16  C   UNL d   1       5.187   5.102   1.985  0.00  0.00     0.012 C 
ATOM     17  C   UNL d   1       5.773   6.225   1.428  0.00  0.00     0.037 C 
ATOM     18  C   UNL d   1       6.373   7.131   2.271  0.00  0.00     0.068 C 
ATOM     19  C   UNL d   1       6.513   6.820   3.611  0.00  0.00     0.037 C 
ATOM     20  C   UNL d   1       6.120   5.580   4.079  0.00  0.00     0.012 C 
BRANCH  18  21
ATOM     21  O   UNL d   1       6.621   8.354   1.734  0.00  0.00    -0.356 OA
ATOM     22  C   UNL d   1       7.642   9.076   2.400  0.00  0.00     0.210 C 
ENDBRANCH  18  21
ENDBRANCH   4  15
ENDBRANCH   1   4
BRANCH   1  23
ATOM     23  C   UNL d   1       3.295   2.503   5.195  0.00  0.00     0.166 C 
BRANCH  23  24
ATOM     24  C   UNL d   1       2.774   1.598   4.170  0.00  0.00    -0.040 C 
ATOM     25  C   UNL d   1       1.935   2.144   3.216  0.00  0.00     0.009 C 
ATOM     26  C   UNL d   1       1.323   1.278   2.356  0.00  0.00     0.001 C 
ATOM     27  C   UNL d   1       1.827  -0.018   2.306  0.00  0.00     0.000 C 
ATOM     28  C   UNL d   1       2.709  -0.577   3.196  0.00  0.00     0.001 C 
ATOM     29  C   UNL d   1       3.125   0.227   4.205  0.00  0.00     0.009 C 
ENDBRANCH  23  24
ENDBRANCH   1  23
BRANCH   2  30
ATOM     30  C   UNL d   1       4.418   3.549   7.530  0.00  0.00     0.120 C 
ATOM     31  S   UNL d   1       4.143   4.946   8.478  0.00  0.00     0.020 SA
ATOM     32  N   UNL d   1       3.252   4.183   9.690  0.00  0.00    -0.203 NA
ATOM     33  C   UNL d   1       3.212   2.870   9.415  0.00  0.00     0.160 C 
ATOM     34  C   UNL d   1       3.929   2.481   8.236  0.00  0.00     0.085 C 
ATOM     35  N   UNL d   1       4.110   1.192   7.872  0.00  0.00    -0.396 N 
ATOM     36  H   UNL d   1       3.477   0.475   8.241  0.00  0.00     0.156 HD
ATOM     37  H   UNL d   1       4.616   0.908   7.038  0.00  0.00     0.156 HD
BRANCH  33  38
ATOM     38  C   UNL d   1       2.529   1.856  10.244  0.00  0.00     0.271 C 
ATOM     39  N   UNL d   1       1.964   2.252  11.422  0.00  0.00    -0.365 N 
ATOM     40  H   UNL d   1       2.000   3.205  11.745  0.00  0.00     0.159 HD
ATOM     41  H   UNL d   1       1.523   1.524  11.966  0.00  0.00     0.159 HD
ATOM     42  O   UNL d   1       2.442   0.679   9.921  0.00  0.00    -0.266 OA
ENDBRANCH  33  38
ENDBRANCH   2  30
TORSDOF 9
