@<TRIPOS>MOLECULE
*****
 34 35 0 0 0
SMALL
GASTEIGER

@<TRIPOS>ATOM
      1 C           2.4409   -0.3345    0.4425 C.3     1  UNL1       -0.0380
      2 C           0.9836   -0.0960    0.1806 C.ar    1  UNL1       -0.0292
      3 C           0.2263   -1.2634    0.0712 C.ar    1  UNL1       -0.0564
      4 C          -1.1545   -1.2248   -0.0064 C.ar    1  UNL1       -0.0493
      5 C          -1.8259   -0.0037   -0.0080 C.ar    1  UNL1        0.0383
      6 C          -3.3236    0.0290   -0.0449 C.2     1  UNL1        0.2416
      7 N          -4.0036   -1.1662   -0.0619 N.am    1  UNL1       -0.3253
      8 O          -3.9397    1.0872   -0.0592 O.2     1  UNL1       -0.2704
      9 C          -1.0694    1.1940    0.0062 C.ar    1  UNL1       -0.0281
     10 C           0.3491    1.1599    0.0430 C.ar    1  UNL1        0.0373
     11 N           1.0619    2.3942   -0.0811 N.am    1  UNL1       -0.2813
     12 C           2.4395    2.5812   -0.1820 C.2     1  UNL1        0.2483
     13 O           3.0208    3.3367    0.5953 O.2     1  UNL1       -0.2699
     14 C           3.2264    1.8615   -1.2668 C.ar    1  UNL1        0.0371
     15 C           4.6216    1.7053   -1.1081 C.ar    1  UNL1       -0.0484
     16 C           5.3298    0.7669   -1.8876 C.ar    1  UNL1       -0.0436
     17 C           4.6541   -0.0622   -2.7928 C.ar    1  UNL1        0.0518
     18 C           5.3669   -1.0122   -3.6086 C.1     1  UNL1        0.0992
     19 N           5.9218   -1.7386   -4.3105 N.1     1  UNL1       -0.1909
     20 C           3.2689    0.0493   -2.9192 C.ar    1  UNL1       -0.0436
     21 C           2.5736    1.0594   -2.2315 C.ar    1  UNL1       -0.0484
     22 H           2.7118   -1.3846    0.5520 H       1  UNL1        0.0278
     23 H           2.8363    0.2880    1.2456 H       1  UNL1        0.0278
     24 H           3.0123   -0.1554   -0.4345 H       1  UNL1        0.0278
     25 H           0.7282   -2.2278    0.0645 H       1  UNL1        0.0621
     26 H          -1.6623   -2.1789   -0.0336 H       1  UNL1        0.0625
     27 H          -3.5876   -2.0837   -0.0478 H       1  UNL1        0.1453
     28 H          -5.0152   -1.1355   -0.0804 H       1  UNL1        0.1453
     29 H          -1.6069    2.1437   -0.0271 H       1  UNL1        0.0644
     30 H           0.5521    3.2391    0.1634 H       1  UNL1        0.1551
     31 H           5.1498    2.2209   -0.3044 H       1  UNL1        0.0625
     32 H           6.4039    0.6508   -1.7437 H       1  UNL1        0.0631
     33 H           2.7009   -0.7085   -3.4615 H       1  UNL1        0.0631
     34 H           1.4882    1.0105   -2.2630 H       1  UNL1        0.0625
@<TRIPOS>BOND
     1     1     2    1
     2     2     3   ar
     3     3     4   ar
     4     4     5   ar
     5     5     6    1
     6     6     7   am
     7     6     8    2
     8     5     9   ar
     9     9    10   ar
    10     2    10   ar
    11    10    11    1
    12    11    12   am
    13    12    13    2
    14    12    14    1
    15    14    15   ar
    16    15    16   ar
    17    16    17   ar
    18    17    18    1
    19    18    19    3
    20    17    20   ar
    21    20    21   ar
    22    14    21   ar
    23     1    22    1
    24     1    23    1
    25     1    24    1
    26     3    25    1
    27     4    26    1
    28     7    27    1
    29     7    28    1
    30     9    29    1
    31    11    30    1
    32    15    31    1
    33    16    32    1
    34    20    33    1
    35    21    34    1
