REMARK  7 active torsions:
REMARK  status: ('A' for Active; 'I' for Inactive)
REMARK    1  A    between atoms: O_2  and  C_3 
REMARK    2  A    between atoms: C_6  and  C_7 
REMARK    3  A    between atoms: C_7  and  C_8 
REMARK       I    between atoms: C_8  and  N_10 
REMARK    4  A    between atoms: N_10  and  C_11 
REMARK    5  A    between atoms: C_13  and  S_14 
REMARK    6  A    between atoms: S_14  and  N_15 
REMARK    7  A    between atoms: C_24  and  N_25 
ROOT
ATOM      1  C   UNL d   1       4.189   5.717  -2.149  0.00  0.00     0.226 C 
ATOM      2  O   UNL d   1       2.987   5.688  -1.881  0.00  0.00    -0.273 OA
ATOM      3  N   UNL d   1       4.793   6.935  -2.417  0.00  0.00    -0.326 N 
ATOM      4  H   UNL d   1       5.418   6.961  -3.213  0.00  0.00     0.169 HD
ENDROOT
BRANCH   3   5
ATOM      5  C   UNL d   1       4.098   8.138  -2.063  0.00  0.00     0.042 A 
ATOM      6  C   UNL d   1       3.880   9.131  -3.032  0.00  0.00     0.055 A 
ATOM      7  C   UNL d   1       3.354  10.374  -2.639  0.00  0.00     0.082 A 
ATOM      8  C   UNL d   1       2.963  10.607  -1.322  0.00  0.00     0.032 A 
ATOM      9  C   UNL d   1       3.154   9.621  -0.353  0.00  0.00    -0.052 A 
ATOM     10  C   UNL d   1       2.845   9.942   1.083  0.00  0.00     0.049 C 
ATOM     11  C   UNL d   1       3.713   8.374  -0.713  0.00  0.00    -0.029 A 
ATOM     12  C   UNL d   1       3.909   7.332   0.366  0.00  0.00     0.051 C 
BRANCH   7  13
ATOM     13  S   UNL d   1       3.344  11.745  -3.770  0.00  0.00     0.256 S 
ATOM     14  O   UNL d   1       2.616  11.368  -4.945  0.00  0.00    -0.201 OA
ATOM     15  O   UNL d   1       3.067  12.957  -3.015  0.00  0.00    -0.201 OA
BRANCH  13  16
ATOM     16  N   UNL d   1       4.965  11.837  -4.172  0.00  0.00    -0.324 N 
ATOM     17  H   UNL d   1       5.301  11.127  -4.813  0.00  0.00     0.169 HD
ATOM     18  H   UNL d   1       5.576  12.202  -3.446  0.00  0.00     0.169 HD
ENDBRANCH  13  16
ENDBRANCH   7  13
ENDBRANCH   3   5
BRANCH   1  19
ATOM     19  C   UNL d   1       5.025   4.423  -2.281  0.00  0.00     0.141 C 
BRANCH  19  20
ATOM     20  C   UNL d   1       4.414   3.196  -1.582  0.00  0.00    -0.047 C 
ATOM     21  C   UNL d   1       4.853   1.895  -1.844  0.00  0.00     0.010 C 
ATOM     22  C   UNL d   1       4.131   0.784  -1.345  0.00  0.00     0.040 C 
ATOM     23  C   UNL d   1       2.989   0.936  -0.521  0.00  0.00     0.101 C 
ATOM     24  C   UNL d   1       2.631   2.228  -0.158  0.00  0.00     0.136 C 
ATOM     25  C   UNL d   1       3.353   3.315  -0.671  0.00  0.00     0.046 C 
BRANCH  23  26
ATOM     26  O   UNL d   1       2.427  -0.220  -0.059  0.00  0.00    -0.353 OA
ATOM     27  C   UNL d   1       1.008  -0.335  -0.180  0.00  0.00     0.210 C 
ENDBRANCH  23  26
BRANCH  24  28
ATOM     28  N   UNL d   1       1.568   2.576   0.791  0.00  0.00    -0.113 N 
ATOM     29  O   UNL d   1       0.974   3.651   0.612  0.00  0.00    -0.532 OA
ATOM     30  O   UNL d   1       1.339   1.813   1.738  0.00  0.00    -0.532 OA
ENDBRANCH  24  28
ENDBRANCH  19  20
ENDBRANCH   1  19
TORSDOF 7
