REMARK  3 active torsions:
REMARK  status: ('A' for Active; 'I' for Inactive)
REMARK       I    between atoms: C_2  and  N_4 
REMARK    1  A    between atoms: N_4  and  C_5 
REMARK    2  A    between atoms: C_7  and  C_8 
REMARK       I    between atoms: C_8  and  N_10 
REMARK    3  A    between atoms: N_10  and  C_11 
ROOT
ATOM      1  C   UNL d   1       7.597  -3.264  -1.052  0.00  0.00     0.256 C 
ATOM      2  O   UNL d   1       6.914  -4.140  -1.593  0.00  0.00    -0.267 OA
ATOM      3  N   UNL d   1       8.994  -3.254  -1.066  0.00  0.00    -0.321 N 
ATOM      4  H   UNL d   1       9.495  -2.753  -0.341  0.00  0.00     0.169 HD
ENDROOT
BRANCH   1   5
ATOM      5  C   UNL d   1       6.864  -2.179  -0.296  0.00  0.00     0.034 A 
ATOM      6  C   UNL d   1       5.438  -2.189  -0.256  0.00  0.00     0.050 A 
ATOM      7  C   UNL d   1       4.718  -1.136   0.345  0.00  0.00     0.074 A 
ATOM      8  C   UNL d   1       5.442  -0.121   0.980  0.00  0.00     0.143 A 
ATOM      9  C   UNL d   1       6.832  -0.118   0.984  0.00  0.00     0.046 A 
ATOM     10  F   UNL d   1       4.815   0.831   1.687  0.00  0.00    -0.204 F 
ATOM     11  C   UNL d   1       7.545  -1.131   0.337  0.00  0.00     0.020 A 
BRANCH   7  12
ATOM     12  N   UNL d   1       3.293  -1.095   0.320  0.00  0.00    -0.325 N 
ATOM     13  C   UNL d   1       2.611   0.091   0.051  0.00  0.00     0.218 C 
ATOM     14  C   UNL d   1       1.105  -0.001   0.083  0.00  0.00     0.117 C 
ATOM     15  O   UNL d   1       3.146   1.153  -0.265  0.00  0.00    -0.274 OA
ATOM     16  H   UNL d   1       2.784  -1.968   0.270  0.00  0.00     0.169 HD
ENDBRANCH   7  12
ENDBRANCH   1   5
BRANCH   3  17
ATOM     17  C   UNL d   1       9.765  -4.315  -1.640  0.00  0.00     0.064 A 
ATOM     18  C   UNL d   1       9.450  -4.806  -2.913  0.00  0.00     0.032 A 
ATOM     19  C   UNL d   1      10.170  -5.864  -3.462  0.00  0.00     0.003 A 
ATOM     20  C   UNL d   1      11.194  -6.457  -2.731  0.00  0.00     0.014 A 
ATOM     21  C   UNL d   1      11.532  -5.963  -1.461  0.00  0.00    -0.005 A 
ATOM     22  C   UNL d   1      12.547  -6.572  -0.710  0.00  0.00     0.015 A 
ATOM     23  C   UNL d   1      10.841  -4.853  -0.908  0.00  0.00     0.093 A 
ATOM     24  C   UNL d   1      12.864  -6.077   0.546  0.00  0.00     0.020 A 
ATOM     25  C   UNL d   1      12.157  -4.982   1.005  0.00  0.00     0.117 A 
ATOM     26  N   UNL d   1      11.169  -4.363   0.313  0.00  0.00    -0.258 NA
ENDBRANCH   3  17
TORSDOF 3
