@<TRIPOS>MOLECULE
*****
 55 59 0 0 0
SMALL
GASTEIGER

@<TRIPOS>ATOM
      1 O           2.2994    0.4421   -4.4768 O.2     1  UNL1       -0.2755
      2 C           3.3193    1.1144   -4.3474 C.2     1  UNL1        0.2174
      3 N           4.5681    0.5427   -4.3930 N.am    1  UNL1       -0.3147
      4 C           4.7746   -0.8643   -4.6235 C.3     1  UNL1        0.0155
      5 C           6.2675   -1.1917   -4.7057 C.3     1  UNL1       -0.0092
      6 C           6.4715   -2.6437   -4.9593 C.2     1  UNL1        0.0091
      7 C           6.4356   -3.2473   -6.1503 C.ar    1  UNL1        0.0509
      8 C           6.2213   -2.7800   -7.4749 C.ar    1  UNL1       -0.0482
      9 C           6.2205   -3.6770   -8.4727 C.ar    1  UNL1       -0.0608
     10 C           6.4263   -5.0964   -8.2189 C.ar    1  UNL1       -0.0555
     11 C           6.6228   -5.6163   -6.9923 C.ar    1  UNL1        0.0098
     12 C           6.6335   -4.6780   -5.8482 C.ar    1  UNL1        0.2086
     13 N           6.7816   -4.8913   -4.6077 N.2     1  UNL1       -0.2369
     14 C           6.7037   -3.6229   -3.8493 C.3     1  UNL1        0.1661
     15 C           3.2724    2.6391   -4.1408 C.3     1  UNL1        0.0484
     16 C           4.1636    3.4093   -5.1171 C.3     1  UNL1       -0.0396
     17 C           5.6272    3.3526   -4.7058 C.3     1  UNL1       -0.0394
     18 C           5.8313    3.7112   -3.2158 C.3     1  UNL1        0.0014
     19 N           4.9030    3.1285   -2.2248 N.3     1  UNL1       -0.2750
     20 C           4.9938    3.7974   -0.8580 C.3     1  UNL1        0.1289
     21 N           4.7610    5.2797   -0.6120 N.pl3   1  UNL1       -0.3178
     22 C           6.0489    5.8997   -0.4900 C.ar    1  UNL1        0.0612
     23 C           6.3473    7.2645   -0.4828 C.ar    1  UNL1       -0.0368
     24 C           7.6998    7.6466   -0.5578 C.ar    1  UNL1       -0.0418
     25 C           8.6642    6.6572   -0.7171 C.ar    1  UNL1        0.0290
     26 N           8.4166    5.3428   -0.5758 N.ar    1  UNL1       -0.2468
     27 C           7.1290    5.0282   -0.3884 C.ar    1  UNL1        0.1206
     28 S           6.6038    3.3744   -0.1010 S.3     1  UNL1       -0.0657
     29 C           3.5092    3.1166   -2.6936 C.3     1  UNL1        0.0124
     30 H           5.3108    1.0502   -3.9356 H       1  UNL1        0.1487
     31 H           4.2618   -1.1441   -5.5534 H       1  UNL1        0.0465
     32 H           4.3004   -1.4147   -3.8045 H       1  UNL1        0.0465
     33 H           6.7814   -0.8995   -3.7820 H       1  UNL1        0.0327
     34 H           6.7434   -0.6044   -5.5030 H       1  UNL1        0.0327
     35 H           6.0580   -1.7236   -7.6622 H       1  UNL1        0.0626
     36 H           6.0597   -3.3513   -9.4981 H       1  UNL1        0.0618
     37 H           6.4091   -5.7385   -9.0991 H       1  UNL1        0.0620
     38 H           6.7667   -6.6804   -6.8481 H       1  UNL1        0.0683
     39 H           6.9308   -5.8196   -4.2016 H       1  UNL1        0.4459
     40 H           7.6537   -3.4544   -3.3360 H       1  UNL1        0.1077
     41 H           5.8650   -3.6737   -3.1506 H       1  UNL1        0.1077
     42 H           2.2365    2.9088   -4.3966 H       1  UNL1        0.0407
     43 H           3.8560    4.4632   -5.1247 H       1  UNL1        0.0273
     44 H           4.0324    3.0403   -6.1422 H       1  UNL1        0.0273
     45 H           6.2053    4.0463   -5.3270 H       1  UNL1        0.0278
     46 H           6.0619    2.3820   -4.9648 H       1  UNL1        0.0278
     47 H           5.7916    4.7998   -3.1553 H       1  UNL1        0.0427
     48 H           6.8508    3.3873   -2.9708 H       1  UNL1        0.0427
     49 H           4.2826    3.2506   -0.2217 H       1  UNL1        0.0794
     50 H           4.2561    5.4394    0.2653 H       1  UNL1        0.1484
     51 H           5.5955    8.0510   -0.4946 H       1  UNL1        0.0637
     52 H           8.0148    8.6881   -0.5440 H       1  UNL1        0.0633
     53 H           9.6892    6.8988   -0.9837 H       1  UNL1        0.0830
     54 H           3.1176    4.1389   -2.6242 H       1  UNL1        0.0435
     55 H           2.9074    2.4904   -2.0233 H       1  UNL1        0.0435
@<TRIPOS>UNITY_ATOM_ATTR
13 1
charge 1
@<TRIPOS>BOND
     1     1     2    2
     2     2     3   am
     3     3     4    1
     4     4     5    1
     5     5     6    1
     6     6     7    2
     7     7     8   ar
     8     8     9   ar
     9     9    10   ar
    10    10    11   ar
    11    11    12   ar
    12     7    12   ar
    13    12    13    2
    14    13    14    1
    15     6    14    1
    16     2    15    1
    17    15    16    1
    18    16    17    1
    19    17    18    1
    20    18    19    1
    21    20    21    1
    22    21    22    1
    23    22    23   ar
    24    23    24   ar
    25    24    25   ar
    26    25    26   ar
    27    26    27   ar
    28    22    27   ar
    29    27    28    1
    30    20    28    1
    31    19    29    1
    32    15    29    1
    33    20    19    1
    34     3    30    1
    35     4    31    1
    36     4    32    1
    37     5    33    1
    38     5    34    1
    39     8    35    1
    40     9    36    1
    41    10    37    1
    42    11    38    1
    43    13    39    1
    44    14    40    1
    45    14    41    1
    46    15    42    1
    47    16    43    1
    48    16    44    1
    49    17    45    1
    50    17    46    1
    51    18    47    1
    52    18    48    1
    53    20    49    1
    54    21    50    1
    55    23    51    1
    56    24    52    1
    57    25    53    1
    58    29    54    1
    59    29    55    1
