REMARK  4 active torsions:
REMARK  status: ('A' for Active; 'I' for Inactive)
REMARK    1  A    between atoms: C_5  and  N_6 
REMARK       I    between atoms: N_6  and  C_7 
REMARK    2  A    between atoms: C_9  and  C_7 
REMARK    3  A    between atoms: C_9  and  N_11 
REMARK       I    between atoms: N_11  and  C_12 
REMARK    4  A    between atoms: C_12  and  C_14 
ROOT
ATOM      1  C   UNL d   1      -3.778  -4.117  -0.073  0.00  0.00     0.173 C 
ATOM      2  C   UNL d   1      -2.458  -3.332   0.005  0.00  0.00     0.042 C 
ENDROOT
BRANCH   1   3
ATOM      3  N   UNL d   1      -3.542  -5.568  -0.061  0.00  0.00    -0.344 N 
ATOM      4  C   UNL d   1      -4.584  -6.466   0.040  0.00  0.00     0.252 C 
ATOM      5  O   UNL d   1      -5.764  -6.119   0.018  0.00  0.00    -0.268 OA
ATOM      6  H   UNL d   1      -2.584  -5.895  -0.087  0.00  0.00     0.163 HD
BRANCH   4   7
ATOM      7  C   UNL d   1      -4.261  -7.903  -0.023  0.00  0.00     0.032 A 
ATOM      8  C   UNL d   1      -3.275  -8.439   0.799  0.00  0.00     0.018 A 
ATOM      9  C   UNL d   1      -3.019  -9.812   0.753  0.00  0.00     0.025 A 
ATOM     10  C   UNL d   1      -3.729 -10.635  -0.126  0.00  0.00     0.034 A 
ATOM     11 CL   UNL d   1      -3.392 -12.320  -0.180  0.00  0.00    -0.084 Cl
ATOM     12  C   UNL d   1      -4.718 -10.106  -0.946  0.00  0.00     0.025 A 
ATOM     13  C   UNL d   1      -4.997  -8.742  -0.876  0.00  0.00     0.018 A 
ENDBRANCH   4   7
ENDBRANCH   1   3
BRANCH   1  14
ATOM     14  C   UNL d   1      -4.523  -3.553  -1.308  0.00  0.00     0.244 C 
ATOM     15  N   UNL d   1      -5.143  -4.477  -2.132  0.00  0.00    -0.325 N 
ATOM     16  H   UNL d   1      -5.181  -5.417  -1.774  0.00  0.00     0.169 HD
ATOM     17  O   UNL d   1      -4.552  -2.330  -1.455  0.00  0.00    -0.271 OA
BRANCH  15  18
ATOM     18  C   UNL d   1      -5.872  -4.216  -3.313  0.00  0.00     0.040 A 
ATOM     19  C   UNL d   1      -5.987  -2.905  -3.769  0.00  0.00     0.030 A 
ATOM     20  C   UNL d   1      -6.672  -2.587  -4.926  0.00  0.00     0.009 A 
ATOM     21  C   UNL d   1      -7.266  -3.586  -5.681  0.00  0.00    -0.061 A 
ATOM     22  C   UNL d   1      -7.989  -3.203  -6.932  0.00  0.00     0.048 C 
ATOM     23  C   UNL d   1      -7.173  -4.914  -5.248  0.00  0.00     0.015 A 
ATOM     24  C   UNL d   1      -6.485  -5.248  -4.059  0.00  0.00    -0.035 A 
ATOM     25  C   UNL d   1      -6.447  -6.702  -3.680  0.00  0.00     0.050 C 
ENDBRANCH  15  18
ENDBRANCH   1  14
TORSDOF 4
