@<TRIPOS>MOLECULE
*****
 70 74 0 0 0
SMALL
GASTEIGER

@<TRIPOS>ATOM
      1 CD1        10.5376    6.8044   -3.3361 C.3     1  LEU1       -0.0626
      2 CG         11.4304    7.5077   -2.3264 C.3     1  LEU1       -0.0446
      3 CD2        12.8430    6.9542   -2.5198 C.3     1  LEU1       -0.0626
      4 CB         11.3831    9.0570   -2.4484 C.3     1  LEU1       -0.0236
      5 CA          9.9616    9.6854   -2.2296 C.3     1  LEU1        0.0996
      6 N           9.1108    9.5557   -3.4760 N.am    1  LEU1       -0.3025
      7 C           7.7976   10.1224   -3.6771 C.2     0  UNK0        0.2345
      8 O           7.2036   10.9899   -3.0524 O.2     0  UNK0       -0.2737
      9 C           7.0772    9.4037   -4.8119 C.3     0  UNK0        0.1075
     10 C           5.6028    9.7542   -5.1741 C.3     0  UNK0        0.0019
     11 C           5.0146    8.6035   -5.9761 C.ar    0  UNK0       -0.0147
     12 C           5.5948    7.3460   -5.9789 C.ar    0  UNK0        0.0456
     13 N           4.8491    6.5231   -6.7716 N.ar    0  UNK0       -0.3560
     14 C           3.7879    7.2123   -7.2998 C.ar    0  UNK0        0.0470
     15 C           2.7710    6.7637   -8.1500 C.ar    0  UNK0       -0.0378
     16 C           1.8154    7.6982   -8.5497 C.ar    0  UNK0       -0.0598
     17 C           1.8807    9.0207   -8.1140 C.ar    0  UNK0       -0.0611
     18 C           2.9028    9.4484   -7.2568 C.ar    0  UNK0       -0.0523
     19 C           3.8758    8.5280   -6.8312 C.ar    0  UNK0        0.0032
     20 C           6.8320    6.9255   -5.2813 C.3     0  UNK0        0.0934
     21 C           6.6580    5.7740   -4.3449 C.ar    0  UNK0       -0.0091
     22 C           6.3126    4.4647   -4.5712 C.ar    0  UNK0       -0.0557
     23 C           6.2600    3.5992   -3.4715 C.ar    0  UNK0       -0.0614
     24 C           6.5894    4.0281   -2.1710 C.ar    0  UNK0       -0.0610
     25 C           6.9285    5.3476   -1.9407 C.ar    0  UNK0       -0.0493
     26 C           6.9035    6.1741   -3.0409 C.ar    0  UNK0        0.0423
     27 C           7.1185    7.5964   -3.0389 C.2     0  UNK0        0.2484
     28 O           7.2578    8.1850   -1.9998 O.2     0  UNK0       -0.2699
     29 N           7.2142    7.9924   -4.3838 N.am    0  UNK0       -0.2731
     30 C           9.9942   11.1815   -2.0388 C.2     1  LEU1        0.2339
     31 O           9.3887   11.8746   -2.8626 O.2     1  LEU1       -0.2738
     32 N          10.8064   11.8362   -1.1528 N.am    2  THR2       -0.3033
     33 CA         11.0201   13.2322   -1.6557 C.3     2  THR2        0.0882
     34 C           9.6984   14.1581   -1.4258 C.2     2  THR2        0.0644
     35 O           9.7322   14.7998   -0.3241 O.co2   2  THR2       -0.5478
     36 OXT         8.8059   14.2155   -2.3124 O.co2   2  THR2       -0.5478
     37 CB         11.8543   13.0448   -2.9935 C.3     2  THR2        0.0759
     38 CG2        12.0132   14.2461   -3.8692 C.3     2  THR2       -0.0368
     39 OG1        11.4049   12.0562   -3.9498 O.3     2  THR2       -0.3899
     40 HD11       10.6457    5.7169   -3.3137 H       1  LEU1        0.0232
     41 HD12       10.7365    7.1531   -4.3556 H       1  LEU1        0.0232
     42 HD13        9.5060    6.9927   -3.0776 H       1  LEU1        0.0232
     43 HG         11.0935    7.2358   -1.3181 H       1  LEU1        0.0296
     44 HD21       13.2273    7.1980   -3.5161 H       1  LEU1        0.0232
     45 HD22       12.8347    5.8601   -2.4290 H       1  LEU1        0.0232
     46 HD23       13.5346    7.3454   -1.7702 H       1  LEU1        0.0232
     47 HB1        11.7865    9.3508   -3.4283 H       1  LEU1        0.0290
     48 HB2        12.0960    9.4584   -1.7126 H       1  LEU1        0.0290
     49 HA          9.4761    9.2351   -1.3610 H       1  LEU1        0.0594
     50 H           9.2035    8.6844   -3.9629 H       1  LEU1        0.1495
     51 H           7.6731    9.5860   -5.7182 H       0  UNK0        0.0600
     52 H           5.5656   10.6637   -5.7897 H       0  UNK0        0.0337
     53 H           4.9774    9.9386   -4.2923 H       0  UNK0        0.0337
     54 H           5.0315    5.5454   -6.9420 H       0  UNK0        0.1657
     55 H           2.7209    5.7328   -8.4866 H       0  UNK0        0.0638
     56 H           1.0094    7.3887   -9.2102 H       0  UNK0        0.0618
     57 H           1.1271    9.7334   -8.4369 H       0  UNK0        0.0618
     58 H           2.9465   10.4794   -6.9207 H       0  UNK0        0.0624
     59 H           7.6619    6.7769   -5.9801 H       0  UNK0        0.0616
     60 H           6.0697    4.1147   -5.5648 H       0  UNK0        0.0621
     61 H           5.9576    2.5691   -3.6259 H       0  UNK0        0.0618
     62 H           6.5608    3.3350   -1.3372 H       0  UNK0        0.0618
     63 H           7.1911    5.7341   -0.9600 H       0  UNK0        0.0625
     64 H          11.5752   11.3723   -0.6982 H       2  THR2        0.1495
     65 HA         11.7251   13.7103   -0.9625 H       2  THR2        0.0586
     66 HB         12.8298   12.6472   -2.6858 H       2  THR2        0.0613
     67 HG21       11.0285   14.6418   -4.1302 H       2  THR2        0.0255
     68 HG22       12.4724   13.9218   -4.8147 H       2  THR2        0.0255
     69 HG23       12.6390   15.0017   -3.4055 H       2  THR2        0.0255
     70 HG1        10.4222   12.2143   -3.9701 H       2  THR2        0.2099
@<TRIPOS>UNITY_ATOM_ATTR
36 1
charge -1
@<TRIPOS>BOND
     1     1     2    1
     2     2     3    1
     3     2     4    1
     4     6     7   am
     5     7     8    2
     6     9    10    1
     7    10    11    1
     8    11    12   ar
     9    12    13   ar
    10    13    14   ar
    11    14    15   ar
    12    15    16   ar
    13    16    17   ar
    14    17    18   ar
    15    18    19   ar
    16    11    19   ar
    17    14    19   ar
    18    12    20    1
    19    20    21    1
    20    21    22   ar
    21    22    23   ar
    22    23    24   ar
    23    24    25   ar
    24    25    26   ar
    25    21    26   ar
    26    26    27    1
    27    27    28    2
    28    27    29   am
    29    20    29    1
    30     9    29    1
    31     5    30    1
    32    30    31    2
    33    30    32   am
    34    32    33    1
    35    33    34    1
    36    34    35   ar
    37    34    36   ar
    38    37    39    1
    39    37    38    1
    40    37    33    1
    41     9     7    1
    42     5     6    1
    43     5     4    1
    44     1    40    1
    45     1    41    1
    46     1    42    1
    47     2    43    1
    48     3    44    1
    49     3    45    1
    50     3    46    1
    51     4    47    1
    52     4    48    1
    53     5    49    1
    54     6    50    1
    55     9    51    1
    56    10    52    1
    57    10    53    1
    58    13    54    1
    59    15    55    1
    60    16    56    1
    61    17    57    1
    62    18    58    1
    63    20    59    1
    64    22    60    1
    65    23    61    1
    66    24    62    1
    67    25    63    1
    68    32    64    1
    69    33    65    1
    70    37    66    1
    71    38    67    1
    72    38    68    1
    73    38    69    1
    74    39    70    1
