REMARK  4 active torsions:
REMARK  status: ('A' for Active; 'I' for Inactive)
REMARK       I    between atoms: C_2  and  N_4 
REMARK    1  A    between atoms: N_4  and  C_5 
REMARK    2  A    between atoms: C_9  and  C_10 
REMARK       I    between atoms: C_10  and  N_12 
REMARK    3  A    between atoms: N_12  and  C_13 
REMARK    4  A    between atoms: C_17  and  O_18 
ROOT
ATOM      1  C   UNL d   1       7.489   1.840  -0.519  0.00  0.00     0.256 C 
ATOM      2  O   UNL d   1       8.716   1.890  -0.370  0.00  0.00    -0.267 OA
ATOM      3  N   UNL d   1       6.785   2.625  -1.427  0.00  0.00    -0.323 N 
ATOM      4  H   UNL d   1       5.779   2.707  -1.386  0.00  0.00     0.169 HD
ENDROOT
BRANCH   1   5
ATOM      5  C   UNL d   1       6.733   0.945   0.395  0.00  0.00     0.034 A 
ATOM      6  C   UNL d   1       7.435   0.257   1.396  0.00  0.00     0.017 A 
ATOM      7  C   UNL d   1       6.752  -0.520   2.334  0.00  0.00     0.003 A 
ATOM      8  C   UNL d   1       5.361  -0.648   2.256  0.00  0.00     0.029 A 
ATOM      9  C   UNL d   1       4.657   0.012   1.246  0.00  0.00     0.035 A 
ATOM     10  C   UNL d   1       5.349   0.800   0.322  0.00  0.00     0.046 A 
BRANCH   9  11
ATOM     11  N   UNL d   1       3.247  -0.059   1.181  0.00  0.00    -0.327 N 
ATOM     12  C   UNL d   1       2.564  -0.100  -0.026  0.00  0.00     0.218 C 
ATOM     13  C   UNL d   1       1.064  -0.093   0.086  0.00  0.00     0.117 C 
ATOM     14  O   UNL d   1       3.096  -0.160  -1.133  0.00  0.00    -0.274 OA
ATOM     15  H   UNL d   1       2.742  -0.207   2.047  0.00  0.00     0.169 HD
ENDBRANCH   9  11
ENDBRANCH   1   5
BRANCH   3  16
ATOM     16  C   UNL d   1       7.445   3.436  -2.372  0.00  0.00     0.037 A 
ATOM     17  C   UNL d   1       6.959   4.703  -2.702  0.00  0.00     0.029 A 
ATOM     18  C   UNL d   1       7.648   5.483  -3.642  0.00  0.00     0.005 A 
ATOM     19  C   UNL d   1       8.819   5.001  -4.239  0.00  0.00     0.036 A 
ATOM     20  C   UNL d   1       9.263   3.722  -3.930  0.00  0.00     0.067 A 
ATOM     21  C   UNL d   1       8.585   2.946  -3.008  0.00  0.00     0.066 A 
BRANCH  20  22
ATOM     22  O   UNL d   1      10.359   3.164  -4.515  0.00  0.00    -0.361 OA
ATOM     23  H   UNL d   1      10.731   3.789  -5.154  0.00  0.00     0.217 HD
ENDBRANCH  20  22
ENDBRANCH   3  16
TORSDOF 4
