@<TRIPOS>MOLECULE
*****
 45 45 0 0 0
SMALL
GASTEIGER

@<TRIPOS>ATOM
      1 C          12.1001   13.9966    1.1812 C.3     1  UNL1       -0.0639
      2 C          11.1164   12.8370    1.2573 C.3     1  UNL1       -0.0402
      3 C          11.5179   11.6719    0.3724 C.3     1  UNL1        0.0128
      4 N          10.5981   10.5231    0.5046 N.am    1  UNL1       -0.2982
      5 C          10.6637    9.5457   -0.4430 C.2     1  UNL1        0.3160
      6 O          11.5014    9.6994   -1.3361 O.2     1  UNL1       -0.2513
      7 N           9.7772    8.4902   -0.3716 N.am    1  UNL1       -0.2181
      8 N           9.6671    7.4796   -1.4531 N.am    1  UNL1       -0.2301
      9 C           9.2257    6.1841   -1.1292 C.2     1  UNL1        0.2696
     10 O           8.3821    6.0369   -0.2380 O.2     1  UNL1       -0.2702
     11 C           9.7988    4.9238   -1.9877 C.3     1  UNL1        0.1741
     12 C           9.0097    3.6563   -1.5278 C.3     1  UNL1       -0.0190
     13 O          11.1818    4.4742   -2.0170 O.3     1  UNL1       -0.4798
     14 C          12.1489    5.3747   -2.3487 C.ar    1  UNL1        0.1218
     15 C          13.2184    5.0968   -3.1971 C.ar    1  UNL1       -0.0165
     16 C          14.2101    6.0909   -3.4836 C.ar    1  UNL1       -0.0165
     17 C          14.0225    7.4086   -3.1051 C.ar    1  UNL1        0.1207
     18 O          14.8600    8.4290   -3.4727 O.3     1  UNL1       -0.4922
     19 C          14.4888    9.7844   -3.0773 C.3     1  UNL1        0.0868
     20 C          15.5296   10.7565   -3.6039 C.3     1  UNL1       -0.0307
     21 C          13.0041    7.5959   -2.2255 C.ar    1  UNL1       -0.0165
     22 C          12.2375    6.5669   -1.6992 C.ar    1  UNL1       -0.0165
     23 H          11.7705   14.8062    1.8406 H       1  UNL1        0.0230
     24 H          12.1714   14.3982    0.1646 H       1  UNL1        0.0230
     25 H          13.1023   13.6898    1.4980 H       1  UNL1        0.0230
     26 H          10.1235   13.1879    0.9551 H       1  UNL1        0.0278
     27 H          11.0448   12.4890    2.2917 H       1  UNL1        0.0278
     28 H          12.5281   11.3230    0.6288 H       1  UNL1        0.0462
     29 H          11.5699   12.0076   -0.6757 H       1  UNL1        0.0462
     30 H           9.7342   10.6397    1.0125 H       1  UNL1        0.1503
     31 H           9.0702    8.4200    0.3507 H       1  UNL1        0.1744
     32 H          10.3101    7.6245   -2.2315 H       1  UNL1        0.1729
     33 H           9.4916    5.0872   -3.0305 H       1  UNL1        0.0829
     34 H           9.2427    3.4042   -0.4849 H       1  UNL1        0.0270
     35 H           9.2730    2.7685   -2.1193 H       1  UNL1        0.0270
     36 H           7.9230    3.7893   -1.5987 H       1  UNL1        0.0270
     37 H          13.3365    4.0996   -3.6074 H       1  UNL1        0.0655
     38 H          15.1394    5.8200   -3.9699 H       1  UNL1        0.0655
     39 H          14.4586    9.8985   -1.9825 H       1  UNL1        0.0694
     40 H          13.5103   10.0647   -3.4953 H       1  UNL1        0.0694
     41 H          16.5135   10.5114   -3.1941 H       1  UNL1        0.0262
     42 H          15.2895   11.7924   -3.3356 H       1  UNL1        0.0262
     43 H          15.5948   10.6836   -4.6924 H       1  UNL1        0.0262
     44 H          12.8849    8.5823   -1.8691 H       1  UNL1        0.0655
     45 H          11.6957    6.7391   -0.7813 H       1  UNL1        0.0655
@<TRIPOS>BOND
     1     1     2    1
     2     2     3    1
     3     3     4    1
     4     4     5   am
     5     5     6    2
     6     5     7   am
     7     7     8    1
     8     8     9   am
     9     9    10    2
    10    11    13    1
    11    13    14    1
    12    14    15   ar
    13    15    16   ar
    14    16    17   ar
    15    17    18    1
    16    18    19    1
    17    19    20    1
    18    17    21   ar
    19    21    22   ar
    20    14    22   ar
    21    11    12    1
    22    11     9    1
    23     1    23    1
    24     1    24    1
    25     1    25    1
    26     2    26    1
    27     2    27    1
    28     3    28    1
    29     3    29    1
    30     4    30    1
    31     7    31    1
    32     8    32    1
    33    11    33    1
    34    12    34    1
    35    12    35    1
    36    12    36    1
    37    15    37    1
    38    16    38    1
    39    19    39    1
    40    19    40    1
    41    20    41    1
    42    20    42    1
    43    20    43    1
    44    21    44    1
    45    22    45    1
