REMARK  11 active torsions:
REMARK  status: ('A' for Active; 'I' for Inactive)
REMARK    1  A    between atoms: O_2  and  C_3 
REMARK    2  A    between atoms: C_6  and  N_7 
REMARK    3  A    between atoms: N_7  and  C_8 
REMARK    4  A    between atoms: C_8  and  N_10 
REMARK    5  A    between atoms: N_10  and  C_11 
REMARK    6  A    between atoms: N_10  and  C_14 
REMARK    7  A    between atoms: C_11  and  C_12 
REMARK    8  A    between atoms: C_12  and  O_13 
REMARK    9  A    between atoms: C_14  and  C_15 
REMARK   10  A    between atoms: C_19  and  O_20 
REMARK   11  A    between atoms: C_22  and  O_23 
ROOT
ATOM      1  N   UNL d   1       6.103  -5.747   3.941  0.00  0.00    -0.352 N 
ENDROOT
BRANCH   1   2
ATOM      2  C   UNL d   1       5.122  -5.097   3.133  0.00  0.00     0.174 C 
ATOM      3  S   UNL d   1       3.732  -5.972   2.701  0.00  0.00    -0.041 SA
BRANCH   2   4
ATOM      4  N   UNL d   1       5.390  -3.763   2.769  0.00  0.00    -0.333 N 
ATOM      5  H   UNL d   1       6.205  -3.315   3.102  0.00  0.00     0.168 HD
BRANCH   4   6
ATOM      6  C   UNL d   1       4.662  -2.779   2.056  0.00  0.00     0.034 A 
ATOM      7  C   UNL d   1       5.138  -1.452   1.956  0.00  0.00     0.032 A 
ATOM      8  C   UNL d   1       4.344  -0.468   1.337  0.00  0.00     0.039 A 
ATOM      9  C   UNL d   1       3.117  -0.813   0.768  0.00  0.00     0.068 A 
ATOM     10  C   UNL d   1       2.681  -2.120   0.851  0.00  0.00     0.039 A 
ATOM     11  C   UNL d   1       3.461  -3.074   1.461  0.00  0.00     0.032 A 
BRANCH   9  12
ATOM     12  O   UNL d   1       2.456   0.145   0.058  0.00  0.00    -0.356 OA
ATOM     13  C   UNL d   1       1.042  -0.030  -0.013  0.00  0.00     0.210 C 
ENDBRANCH   9  12
ENDBRANCH   4   6
ENDBRANCH   2   4
ENDBRANCH   1   2
BRANCH   1  14
ATOM     14  C   UNL d   1       7.340  -5.175   4.444  0.00  0.00     0.151 C 
BRANCH  14  15
ATOM     15  C   UNL d   1       7.803  -3.755   4.222  0.00  0.00     0.183 C 
BRANCH  15  16
ATOM     16  O   UNL d   1       9.027  -3.446   4.859  0.00  0.00    -0.399 OA
ATOM     17  H   UNL d   1       8.894  -3.580   5.812  0.00  0.00     0.209 HD
ENDBRANCH  15  16
ENDBRANCH  14  15
ENDBRANCH   1  14
BRANCH   1  18
ATOM     18  C   UNL d   1       5.871  -7.194   4.346  0.00  0.00     0.169 C 
BRANCH  18  19
ATOM     19  C   UNL d   1       6.812  -8.001   5.233  0.00  0.00     0.023 C 
ATOM     20  C   UNL d   1       6.665  -9.346   5.347  0.00  0.00     0.027 C 
ATOM     21  C   UNL d   1       7.531 -10.113   6.259  0.00  0.00    -0.011 A 
ATOM     22  C   UNL d   1       7.873 -11.445   6.065  0.00  0.00     0.053 A 
ATOM     23  C   UNL d   1       8.009  -9.445   7.392  0.00  0.00     0.028 A 
ATOM     24  C   UNL d   1       8.649 -12.114   7.028  0.00  0.00     0.102 A 
ATOM     25  C   UNL d   1       9.192 -11.402   8.124  0.00  0.00     0.103 A 
ATOM     26  C   UNL d   1       8.840 -10.067   8.321  0.00  0.00     0.064 A 
ATOM     27  N   UNL d   1       7.753  -8.061   7.456  0.00  0.00    -0.224 NA
ATOM     28  C   UNL d   1       7.809  -7.471   6.216  0.00  0.00     0.233 C 
ATOM     29  H   UNL d   1       8.233  -7.545   8.180  0.00  0.00     0.137 HD
ATOM     30  O   UNL d   1       8.717  -6.669   5.991  0.00  0.00    -0.274 OA
BRANCH  24  31
ATOM     31  O   UNL d   1       8.776 -13.464   6.787  0.00  0.00    -0.353 OA
ATOM     32  C   UNL d   1       9.322 -14.260   7.837  0.00  0.00     0.210 C 
ENDBRANCH  24  31
BRANCH  25  33
ATOM     33  O   UNL d   1      10.082 -12.070   8.914  0.00  0.00    -0.353 OA
ATOM     34  C   UNL d   1      10.723 -11.421   9.993  0.00  0.00     0.210 C 
ENDBRANCH  25  33
ENDBRANCH  18  19
ENDBRANCH   1  18
TORSDOF 11
