REMARK  7 active torsions:
REMARK  status: ('A' for Active; 'I' for Inactive)
REMARK    1  A    between atoms: C_2  and  C_25 
REMARK    2  A    between atoms: N_3  and  N_4 
REMARK       I    between atoms: N_4  and  C_5 
REMARK    3  A    between atoms: C_5  and  C_7 
REMARK    4  A    between atoms: C_8  and  C_9 
REMARK    5  A    between atoms: C_9  and  N_10 
REMARK    6  A    between atoms: N_18  and  C_19 
REMARK    7  A    between atoms: C_23  and  N_24 
ROOT
ATOM      1  C   UNL d   1       2.171  -0.982   4.832  0.00  0.00     0.153 C 
ATOM      2  C   UNL d   1       2.431  -0.389   6.085  0.00  0.00     0.112 C 
ATOM      3  N   UNL d   1       1.473  -0.824   6.962  0.00  0.00    -0.160 NA
ATOM      4  N   UNL d   1       0.620  -1.602   6.310  0.00  0.00     0.012 NA
ATOM      5  N   UNL d   1       1.080  -1.804   5.054  0.00  0.00    -0.207 N 
ENDROOT
BRANCH   1   6
ATOM      6  C   UNL d   1       2.849  -1.024   3.547  0.00  0.00     0.292 C 
ATOM      7  N   UNL d   1       2.186  -0.495   2.426  0.00  0.00    -0.241 N 
ATOM      8  H   UNL d   1       1.197  -0.292   2.454  0.00  0.00     0.192 HD
ATOM      9  O   UNL d   1       3.924  -1.597   3.458  0.00  0.00    -0.264 OA
BRANCH   7  10
ATOM     10  N   UNL d   1       2.889  -0.332   1.234  0.00  0.00    -0.176 NA
ATOM     11  C   UNL d   1       2.319  -0.032   0.097  0.00  0.00     0.062 C 
ATOM     12  C   UNL d   1       0.821   0.039  -0.065  0.00  0.00     0.073 C 
BRANCH  11  13
ATOM     13  C   UNL d   1       3.151   0.216  -1.177  0.00  0.00     0.001 A 
ATOM     14  C   UNL d   1       2.757   1.247  -2.058  0.00  0.00     0.014 A 
ATOM     15  C   UNL d   1       3.436   1.484  -3.262  0.00  0.00     0.002 A 
ATOM     16  C   UNL d   1       4.530   0.700  -3.613  0.00  0.00     0.012 A 
ATOM     17  C   UNL d   1       4.979  -0.309  -2.752  0.00  0.00    -0.025 A 
ATOM     18  C   UNL d   1       6.109  -1.065  -3.111  0.00  0.00     0.012 A 
ATOM     19  C   UNL d   1       4.291  -0.567  -1.524  0.00  0.00    -0.014 A 
ATOM     20  C   UNL d   1       6.581  -2.077  -2.280  0.00  0.00     0.001 A 
ATOM     21  C   UNL d   1       5.920  -2.353  -1.092  0.00  0.00     0.001 A 
ATOM     22  C   UNL d   1       4.790  -1.619  -0.730  0.00  0.00     0.013 A 
ENDBRANCH  11  13
ENDBRANCH   7  10
ENDBRANCH   1   6
BRANCH   2  23
ATOM     23  C   UNL d   1       3.476   0.587   6.628  0.00  0.00     0.297 C 
BRANCH  23  24
ATOM     24  N   UNL d   1       4.494   1.104   5.617  0.00  0.00    -0.066 N 
ATOM     25  C   UNL d   1       5.390  -0.038   5.188  0.00  0.00     0.235 C 
ATOM     26  C   UNL d   1       6.111   0.239   3.878  0.00  0.00     0.028 C 
ATOM     27  C   UNL d   1       5.310   0.966   2.814  0.00  0.00     0.003 C 
ATOM     28  C   UNL d   1       4.670   2.220   3.358  0.00  0.00     0.028 C 
ATOM     29  C   UNL d   1       3.792   1.930   4.557  0.00  0.00     0.235 C 
ATOM     30  H   UNL d   1       5.124   1.756   6.105  0.00  0.00     0.280 HD
ENDBRANCH  23  24
ENDBRANCH   2  23
BRANCH   5  31
ATOM     31  C   UNL d   1       0.543  -2.713   4.117  0.00  0.00     0.225 A 
ATOM     32  N   UNL d   1      -0.761  -2.690   3.851  0.00  0.00    -0.081 NA
ATOM     33  O   UNL d   1      -0.897  -3.619   2.811  0.00  0.00    -0.103 OA
ATOM     34  N   UNL d   1       0.333  -4.167   2.456  0.00  0.00    -0.083 NA
ATOM     35  C   UNL d   1       1.224  -3.613   3.273  0.00  0.00     0.201 A 
BRANCH  35  36
ATOM     36  N   UNL d   1       2.532  -3.927   3.292  0.00  0.00    -0.379 N 
ATOM     37  H   UNL d   1       2.900  -4.576   2.601  0.00  0.00     0.158 HD
ATOM     38  H   UNL d   1       3.273  -3.394   3.746  0.00  0.00     0.158 HD
ENDBRANCH  35  36
ENDBRANCH   5  31
TORSDOF 7
