@<TRIPOS>MOLECULE
*****
 59 61 0 0 0
SMALL
GASTEIGER

@<TRIPOS>ATOM
      1 C           1.2251    0.3985    0.5136 C.3     1  UNL1        0.0790
      2 O           2.5835    0.1533    0.1469 O.3     1  UNL1       -0.4915
      3 C           3.0622   -1.1226   -0.0573 C.ar    1  UNL1        0.1615
      4 C           4.2380   -1.4040    0.6756 C.ar    1  UNL1       -0.0157
      5 C           5.0262   -2.5541    0.4268 C.ar    1  UNL1       -0.0509
      6 C           4.6223   -3.5021   -0.5197 C.ar    1  UNL1       -0.0212
      7 C           5.3300   -4.7849   -0.7363 C.2     1  UNL1       -0.0496
      8 C           4.9539   -5.7858   -1.5757 C.2     1  UNL1        0.0011
      9 C           5.7599   -7.0408   -1.5936 C.2     1  UNL1        0.2424
     10 O           6.6966   -7.0887   -0.7872 O.2     1  UNL1       -0.2704
     11 N           5.3960   -8.0779   -2.4742 N.am    1  UNL1       -0.2640
     12 C           6.1513   -9.2649   -2.6651 C.2     1  UNL1        0.1411
     13 S           7.6461   -9.5144   -1.8984 S.2     1  UNL1       -0.0182
     14 N           5.6014  -10.2061   -3.5859 N.am    1  UNL1       -0.2966
     15 C           6.1493  -11.5353   -3.7655 C.ar    1  UNL1        0.0329
     16 C           6.3618  -12.1671   -4.9934 C.ar    1  UNL1       -0.0387
     17 C           6.9595  -13.4736   -5.0469 C.ar    1  UNL1       -0.0385
     18 C           7.3849  -14.1570   -3.8810 C.ar    1  UNL1        0.0367
     19 N           8.0701  -15.4182   -3.9850 N.am    1  UNL1       -0.2813
     20 C           8.7779  -16.0700   -2.9636 C.2     1  UNL1        0.2483
     21 O           9.1644  -15.6348   -1.8923 O.2     1  UNL1       -0.2699
     22 C           9.2795  -17.4283   -3.2003 C.ar    1  UNL1        0.0370
     23 C           9.0479  -18.4291   -2.2356 C.ar    1  UNL1       -0.0496
     24 C           9.8820  -19.5468   -2.1910 C.ar    1  UNL1       -0.0610
     25 C          10.8980  -19.6827   -3.1377 C.ar    1  UNL1       -0.0617
     26 C          11.1198  -18.6828   -4.0896 C.ar    1  UNL1       -0.0610
     27 C          10.3196  -17.5463   -4.1141 C.ar    1  UNL1       -0.0496
     28 C           7.0400  -13.5604   -2.6675 C.ar    1  UNL1       -0.0275
     29 C           7.1857  -14.1835   -1.3179 C.3     1  UNL1       -0.0379
     30 C           6.4555  -12.2816   -2.6354 C.ar    1  UNL1       -0.0358
     31 C           3.4772   -3.2055   -1.2480 C.ar    1  UNL1       -0.0092
     32 C           2.7011   -2.0481   -1.0517 C.ar    1  UNL1        0.1620
     33 O           1.7079   -2.0613   -1.9984 O.3     1  UNL1       -0.4914
     34 C           0.7392   -1.0687   -1.8648 C.3     1  UNL1        0.0790
     35 H           1.1449    1.3803    0.9877 H       1  UNL1        0.0660
     36 H           0.8025   -0.3763    1.1580 H       1  UNL1        0.0660
     37 H           0.5845    0.5743   -0.3500 H       1  UNL1        0.0660
     38 H           4.5673   -0.7085    1.4488 H       1  UNL1        0.0655
     39 H           5.9593   -2.6786    0.9777 H       1  UNL1        0.0625
     40 H           6.2114   -4.9165   -0.1018 H       1  UNL1        0.0625
     41 H           4.0864   -5.7287   -2.2122 H       1  UNL1        0.0670
     42 H           4.5673   -7.9437   -3.0378 H       1  UNL1        0.1568
     43 H           4.9009   -9.9283   -4.2623 H       1  UNL1        0.1538
     44 H           6.1564  -11.6506   -5.9289 H       1  UNL1        0.0637
     45 H           7.0864  -13.9341   -6.0268 H       1  UNL1        0.0637
     46 H           8.1405  -15.8209   -4.9096 H       1  UNL1        0.1551
     47 H           8.2879  -18.2991   -1.4660 H       1  UNL1        0.0625
     48 H           9.7837  -20.2772   -1.3893 H       1  UNL1        0.0618
     49 H          11.5463  -20.5546   -3.1128 H       1  UNL1        0.0618
     50 H          11.9619  -18.7532   -4.7708 H       1  UNL1        0.0618
     51 H          10.5724  -16.7072   -4.7550 H       1  UNL1        0.0625
     52 H           7.1127  -15.2659   -1.3971 H       1  UNL1        0.0278
     53 H           6.3422  -13.9382   -0.6721 H       1  UNL1        0.0278
     54 H           8.1115  -13.8340   -0.8460 H       1  UNL1        0.0278
     55 H           6.2341  -11.8753   -1.6511 H       1  UNL1        0.0639
     56 H           3.1518   -3.8720   -2.0397 H       1  UNL1        0.0661
     57 H          -0.0394   -1.1234   -2.6243 H       1  UNL1        0.0660
     58 H           1.2361   -0.1050   -2.0055 H       1  UNL1        0.0660
     59 H           0.2265   -1.2453   -0.9147 H       1  UNL1        0.0660
@<TRIPOS>BOND
     1     1     2    1
     2     2     3    1
     3     3     4   ar
     4     4     5   ar
     5     5     6   ar
     6     6     7    1
     7     7     8    2
     8     8     9    1
     9     9    10    2
    10     9    11   am
    11    11    12    1
    12    12    13    2
    13    12    14    1
    14    14    15    1
    15    15    16   ar
    16    16    17   ar
    17    17    18   ar
    18    18    19    1
    19    19    20   am
    20    20    21    2
    21    20    22    1
    22    22    23   ar
    23    23    24   ar
    24    24    25   ar
    25    25    26   ar
    26    26    27   ar
    27    22    27   ar
    28    18    28   ar
    29    28    29    1
    30    28    30   ar
    31    15    30   ar
    32     6    31   ar
    33    31    32   ar
    34     3    32   ar
    35    32    33    1
    36    33    34    1
    37     1    35    1
    38     1    36    1
    39     1    37    1
    40     4    38    1
    41     5    39    1
    42     7    40    1
    43     8    41    1
    44    11    42    1
    45    14    43    1
    46    16    44    1
    47    17    45    1
    48    19    46    1
    49    23    47    1
    50    24    48    1
    51    25    49    1
    52    26    50    1
    53    27    51    1
    54    29    52    1
    55    29    53    1
    56    29    54    1
    57    30    55    1
    58    31    56    1
    59    34    57    1
    60    34    58    1
    61    34    59    1
