REMARK  12 active torsions:
REMARK  status: ('A' for Active; 'I' for Inactive)
REMARK    1  A    between atoms: C_3  and  C_4 
REMARK    2  A    between atoms: C_4  and  O_6 
REMARK    3  A    between atoms: O_6  and  C_7 
REMARK    4  A    between atoms: C_13  and  C_14 
REMARK    5  A    between atoms: C_14  and  N_15 
REMARK    6  A    between atoms: N_15  and  C_16 
REMARK    7  A    between atoms: N_15  and  C_28 
REMARK    8  A    between atoms: C_17  and  C_16 
REMARK    9  A    between atoms: C_17  and  C_19 
REMARK   10  A    between atoms: C_17  and  O_18 
REMARK   11  A    between atoms: C_19  and  O_20 
REMARK   12  A    between atoms: O_20  and  C_21 
ROOT
ATOM      1  C   UNL d   1       2.709  -2.306   0.063  0.00  0.00     0.313 C 
ENDROOT
BRANCH   1   2
ATOM      2  C   UNL d   1       2.060  -3.671   0.318  0.00  0.00     0.134 C 
ATOM      3  N   UNL d   1       0.812  -3.782  -0.002  0.00  0.00    -0.225 NA
ATOM      4  C   UNL d   1       0.349  -5.050   0.028  0.00  0.00     0.116 C 
ATOM      5  S   UNL d   1      -1.290  -5.392  -0.067  0.00  0.00    -0.063 SA
ATOM      6  C   UNL d   1       1.103  -6.194   0.125  0.00  0.00     0.075 C 
ATOM      7  C   UNL d   1      -1.003  -7.090  -0.012  0.00  0.00     0.089 C 
ATOM      8  C   UNL d   1       0.354  -7.401  -0.015  0.00  0.00    -0.020 C 
ATOM      9  C   UNL d   1       0.996  -8.756  -0.029  0.00  0.00     0.051 C 
ATOM     10  C   UNL d   1       2.504  -6.016   0.364  0.00  0.00     0.260 C 
ATOM     11  N   UNL d   1       2.826  -4.736   0.789  0.00  0.00    -0.309 N 
ATOM     12  O   UNL d   1       3.362  -6.850   0.094  0.00  0.00    -0.267 OA
ATOM     13  H   UNL d   1       3.836  -4.672   0.831  0.00  0.00     0.170 HD
BRANCH   7  14
ATOM     14  C   UNL d   1      -2.183  -7.913   0.055  0.00  0.00     0.301 C 
ATOM     15  O   UNL d   1      -3.333  -7.482   0.173  0.00  0.00    -0.259 OA
BRANCH  14  16
ATOM     16  O   UNL d   1      -1.863  -9.229  -0.014  0.00  0.00    -0.312 OA
BRANCH  16  17
ATOM     17  C   UNL d   1      -2.961 -10.150   0.015  0.00  0.00     0.124 C 
ATOM     18  C   UNL d   1      -3.816  -9.973  -1.234  0.00  0.00     0.040 C 
ATOM     19  C   UNL d   1      -2.398 -11.570   0.037  0.00  0.00     0.040 C 
ENDBRANCH  16  17
ENDBRANCH  14  16
ENDBRANCH   7  14
ENDBRANCH   1   2
BRANCH   1  20
ATOM     20  N   UNL d   1       4.243  -2.275  -0.126  0.00  0.00    -0.058 N 
ATOM     21  H   UNL d   1       4.657  -2.784   0.664  0.00  0.00     0.280 HD
BRANCH  20  22
ATOM     22  C   UNL d   1       4.723  -2.877  -1.496  0.00  0.00     0.269 C 
BRANCH  22  23
ATOM     23  C   UNL d   1       4.281  -4.299  -1.768  0.00  0.00     0.168 C 
BRANCH  23  24
ATOM     24  C   UNL d   1       3.304  -4.572  -2.891  0.00  0.00     0.209 C 
BRANCH  24  25
ATOM     25  O   UNL d   1       2.260  -3.591  -2.716  0.00  0.00    -0.349 OA
BRANCH  25  26
ATOM     26  C   UNL d   1       1.293  -3.657  -3.669  0.00  0.00     0.069 C 
ATOM     27  C   UNL d   1       0.954  -2.453  -4.275  0.00  0.00     0.038 C 
ATOM     28  C   UNL d   1       0.238  -2.482  -5.465  0.00  0.00     0.026 C 
ATOM     29  C   UNL d   1      -0.399  -3.659  -5.850  0.00  0.00     0.034 C 
ATOM     30 CL   UNL d   1      -1.457  -3.647  -7.202  0.00  0.00    -0.084 Cl
ATOM     31  C   UNL d   1      -0.218  -4.831  -5.120  0.00  0.00     0.026 C 
ATOM     32  C   UNL d   1       0.689  -4.847  -4.064  0.00  0.00     0.038 C 
ENDBRANCH  25  26
ENDBRANCH  24  25
ENDBRANCH  23  24
BRANCH  23  33
ATOM     33  O   UNL d   1       5.265  -5.245  -1.419  0.00  0.00    -0.392 OA
ATOM     34  H   UNL d   1       5.863  -5.418  -2.164  0.00  0.00     0.210 HD
ENDBRANCH  23  33
ENDBRANCH  22  23
ENDBRANCH  20  22
BRANCH  20  35
ATOM     35  C   UNL d   1       4.792  -0.837  -0.052  0.00  0.00     0.180 C 
ATOM     36  C   UNL d   1       4.332  -0.121   1.213  0.00  0.00     0.039 C 
ATOM     37  C   UNL d   1       6.323  -0.889  -0.060  0.00  0.00     0.039 C 
ENDBRANCH  20  35
ENDBRANCH   1  20
TORSDOF 12
