REMARK  5 active torsions:
REMARK  status: ('A' for Active; 'I' for Inactive)
REMARK       I    between atoms: C_2  and  N_4 
REMARK    1  A    between atoms: N_4  and  C_5 
REMARK    2  A    between atoms: C_7  and  C_8 
REMARK       I    between atoms: C_8  and  N_10 
REMARK    3  A    between atoms: C_11  and  N_10 
REMARK    4  A    between atoms: C_11  and  C_14 
REMARK    5  A    between atoms: C_11  and  C_12 
ROOT
ATOM      1  C   UNL d   1       9.320  -0.067   2.502  0.00  0.00     0.253 C 
ATOM      2  O   UNL d   1      10.436   0.457   2.469  0.00  0.00    -0.268 OA
ATOM      3  N   UNL d   1       8.829  -0.405   3.773  0.00  0.00    -0.336 N 
ATOM      4  H   UNL d   1       9.487  -0.174   4.506  0.00  0.00     0.164 HD
ENDROOT
BRANCH   1   5
ATOM      5  C   UNL d   1       8.565  -0.257   1.185  0.00  0.00     0.034 C 
ATOM      6  C   UNL d   1       7.349  -0.924   1.194  0.00  0.00     0.047 C 
ATOM      7  C   UNL d   1       6.321  -1.024   0.245  0.00  0.00     0.041 C 
ATOM      8  C   UNL d   1       6.785  -0.713  -1.019  0.00  0.00    -0.035 C 
ATOM      9  C   UNL d   1       8.101  -0.137  -1.171  0.00  0.00     0.010 C 
ATOM     10  C   UNL d   1       5.899  -0.953  -2.197  0.00  0.00     0.050 C 
ATOM     11  C   UNL d   1       8.966   0.138  -0.071  0.00  0.00     0.017 C 
BRANCH   7  12
ATOM     12  N   UNL d   1       5.005  -1.639   0.551  0.00  0.00    -0.327 N 
ATOM     13  C   UNL d   1       3.956  -1.119   1.372  0.00  0.00     0.218 C 
ATOM     14  C   UNL d   1       2.766  -2.011   1.667  0.00  0.00     0.117 C 
ATOM     15  O   UNL d   1       3.792   0.023   1.794  0.00  0.00    -0.274 OA
ATOM     16  H   UNL d   1       4.680  -2.325  -0.118  0.00  0.00     0.169 HD
ENDBRANCH   7  12
ENDBRANCH   1   5
BRANCH   3  17
ATOM     17  C   UNL d   1       7.580  -1.010   4.309  0.00  0.00     0.226 C 
BRANCH  17  18
ATOM     18  C   UNL d   1       7.677  -2.513   4.518  0.00  0.00    -0.016 A 
ATOM     19  C   UNL d   1       8.346  -2.850   5.708  0.00  0.00     0.011 A 
ATOM     20  C   UNL d   1       8.528  -4.174   6.080  0.00  0.00     0.001 A 
ATOM     21  C   UNL d   1       8.071  -5.199   5.265  0.00  0.00     0.001 A 
ATOM     22  C   UNL d   1       7.414  -4.907   4.087  0.00  0.00     0.007 A 
ATOM     23  C   UNL d   1       7.197  -3.582   3.705  0.00  0.00    -0.053 A 
ATOM     24  C   UNL d   1       6.461  -3.487   2.410  0.00  0.00     0.049 C 
ENDBRANCH  17  18
BRANCH  17  25
ATOM     25  C   UNL d   1       6.399  -0.450   3.682  0.00  0.00     0.089 C 
ATOM     26  N   UNL d   1       5.728   0.190   3.055  0.00  0.00    -0.195 NA
ENDBRANCH  17  25
ENDBRANCH   3  17
TORSDOF 5
