@<TRIPOS>MOLECULE
*****
 59 64 0 0 0
SMALL
GASTEIGER

@<TRIPOS>ATOM
      1 C           1.0338   -0.0730   -0.0059 C.3     1  UNL1        0.0788
      2 O           2.4655   -0.0566   -0.0890 O.3     1  UNL1       -0.4951
      3 C           3.1671    0.1274    1.0723 C.ar    1  UNL1        0.1207
      4 C           2.8325   -0.4356    2.3148 C.ar    1  UNL1       -0.0182
      5 C           3.5460   -0.1017    3.4814 C.ar    1  UNL1       -0.0365
      6 C           4.5738    0.8071    3.3722 C.ar    1  UNL1        0.0432
      7 C           4.9302    1.3703    2.1436 C.ar    1  UNL1        0.0377
      8 C           4.2577    1.0069    0.9766 C.ar    1  UNL1       -0.0089
      9 C           5.9039    2.4984    2.3983 C.3     1  UNL1        0.1069
     10 C           6.0556    2.4426    3.9554 C.2     1  UNL1        0.2741
     11 O           6.8058    3.1422    4.6300 O.2     1  UNL1       -0.2685
     12 N           5.2572    1.4229    4.4164 N.am    1  UNL1       -0.2798
     13 C           5.4623    3.9051    1.9142 C.3     1  UNL1        0.0927
     14 C           3.9176    4.1449    1.8624 C.2     1  UNL1        0.1750
     15 O           3.3306    4.9140    1.1127 O.2     1  UNL1       -0.2914
     16 C           2.9811    3.5329    2.7925 C.ar    1  UNL1        0.0360
     17 C           3.0696    3.7060    4.1609 C.ar    1  UNL1       -0.0484
     18 C           2.2243    2.9495    4.9651 C.ar    1  UNL1       -0.0429
     19 C           1.3647    2.0388    4.3633 C.ar    1  UNL1        0.0276
     20 N           1.1838    1.9538    3.0292 N.ar    1  UNL1       -0.2626
     21 C           1.9661    2.7440    2.2665 C.ar    1  UNL1        0.0380
     22 C           6.3074    4.1616    0.5966 C.3     1  UNL1        0.0443
     23 C           5.5423    4.5235   -0.6644 C.ar    1  UNL1       -0.0316
     24 C           4.8234    5.7258   -0.7233 C.ar    1  UNL1       -0.0577
     25 C           3.8431    5.9308   -1.7013 C.ar    1  UNL1       -0.0551
     26 C           3.5843    4.9490   -2.6546 C.ar    1  UNL1        0.0156
     27 C           4.3978    3.8223   -2.6920 C.ar    1  UNL1        0.2734
     28 N           4.1567    2.7466   -3.6607 N.pl3   1  UNL1        0.0796
     29 O           3.2208    2.8814   -4.4552 O.2     1  UNL1        0.0414
     30 O           4.8976    1.7522   -3.5940 O.co2   1  UNL1       -0.5760
     31 C           5.4200    3.6523   -1.7522 C.ar    1  UNL1        0.0192
     32 C           7.2045    2.9083    0.4068 C.3     1  UNL1       -0.0015
     33 C           8.6312    3.2142   -0.0530 C.3     1  UNL1        0.0422
     34 S           9.7138    2.5264    1.2108 S.3     1  UNL1       -0.1061
     35 C           8.4640    2.5729    2.4771 C.3     1  UNL1        0.0175
     36 N           7.2340    2.2122    1.7242 N.4     1  UNL1        0.2605
     37 H           0.6496   -0.3492   -0.9950 H       1  UNL1        0.0660
     38 H           0.6385    0.9243    0.2153 H       1  UNL1        0.0660
     39 H           0.6461   -0.8048    0.7069 H       1  UNL1        0.0660
     40 H           1.9442   -1.0525    2.4209 H       1  UNL1        0.0655
     41 H           3.1850   -0.4301    4.4515 H       1  UNL1        0.0637
     42 H           4.4384    1.4935    0.0227 H       1  UNL1        0.0660
     43 H           5.1220    1.2437    5.4057 H       1  UNL1        0.1550
     44 H           5.8226    4.6535    2.6404 H       1  UNL1        0.0457
     45 H           3.7905    4.3895    4.5957 H       1  UNL1        0.0625
     46 H           2.2533    3.0413    6.0434 H       1  UNL1        0.0633
     47 H           0.8314    1.2940    4.9484 H       1  UNL1        0.0829
     48 H           1.8385    2.6302    1.1910 H       1  UNL1        0.0836
     49 H           6.9678    5.0163    0.8103 H       1  UNL1        0.0414
     50 H           4.8701    6.4443    0.0995 H       1  UNL1        0.0620
     51 H           3.2212    6.8230   -1.6543 H       1  UNL1        0.0620
     52 H           2.7577    5.0757   -3.3479 H       1  UNL1        0.0685
     53 H           6.0727    2.7986   -1.8898 H       1  UNL1        0.0688
     54 H           6.7655    2.1517   -0.2454 H       1  UNL1        0.0866
     55 H           8.8119    4.2878   -0.1536 H       1  UNL1        0.0434
     56 H           8.8490    2.7419   -1.0145 H       1  UNL1        0.0434
     57 H           8.3569    3.5869    2.8655 H       1  UNL1        0.0938
     58 H           8.6315    1.8232    3.2539 H       1  UNL1        0.0938
     59 H           7.3040    1.1963    1.5613 H       1  UNL1        0.2060
@<TRIPOS>UNITY_ATOM_ATTR
28 1
charge 1
30 1
charge -1
36 1
charge 1
@<TRIPOS>BOND
     1     1     2    1
     2     2     3    1
     3     3     4   ar
     4     4     5   ar
     5     5     6   ar
     6     6     7   ar
     7     7     8   ar
     8     3     8   ar
     9     7     9    1
    10     9    10    1
    11    10    11    2
    12    10    12   am
    13     6    12    1
    14     9    13    1
    15    14    15    2
    16    14    16    1
    17    16    17   ar
    18    17    18   ar
    19    18    19   ar
    20    19    20   ar
    21    20    21   ar
    22    16    21   ar
    23    13    22    1
    24    23    24   ar
    25    24    25   ar
    26    25    26   ar
    27    26    27   ar
    28    27    28    1
    29    28    29    2
    30    28    30    1
    31    27    31   ar
    32    23    31   ar
    33    22    32    1
    34    32    33    1
    35    33    34    1
    36    34    35    1
    37    35    36    1
    38    32    36    1
    39     9    36    1
    40    22    23    1
    41    13    14    1
    42     1    37    1
    43     1    38    1
    44     1    39    1
    45     4    40    1
    46     5    41    1
    47     8    42    1
    48    12    43    1
    49    13    44    1
    50    17    45    1
    51    18    46    1
    52    19    47    1
    53    21    48    1
    54    22    49    1
    55    24    50    1
    56    25    51    1
    57    26    52    1
    58    31    53    1
    59    32    54    1
    60    33    55    1
    61    33    56    1
    62    35    57    1
    63    35    58    1
    64    36    59    1
