@<TRIPOS>MOLECULE
*****
 52 54 0 0 0
SMALL
GASTEIGER

@<TRIPOS>ATOM
      1 C           1.2802   -0.6007   -0.2757 C.3     1  UNL1        0.0790
      2 O           2.6159   -0.1650   -0.0068 O.3     1  UNL1       -0.4915
      3 C           3.0553    1.0789   -0.4106 C.ar    1  UNL1        0.1615
      4 C           4.2072    1.0345   -1.2150 C.ar    1  UNL1       -0.0156
      5 C           4.9355    2.2079   -1.5140 C.ar    1  UNL1       -0.0459
      6 C           4.5056    3.4903   -1.0939 C.ar    1  UNL1        0.0408
      7 C           5.2622    4.7045   -1.5779 C.2     1  UNL1        0.2496
      8 O           6.2304    4.4023   -2.2771 O.2     1  UNL1       -0.2698
      9 N           4.8821    6.0695   -1.3068 N.am    1  UNL1       -0.2635
     10 C           5.5552    7.2555   -1.8166 C.2     1  UNL1        0.1425
     11 S           6.9513    7.1295   -2.7478 S.2     1  UNL1       -0.0181
     12 N           4.9758    8.5000   -1.4481 N.am    1  UNL1       -0.2758
     13 C           5.4064    9.8309   -1.7865 C.ar    1  UNL1        0.1647
     14 N           5.1139   10.8783   -1.0395 N.ar    1  UNL1       -0.2246
     15 C           5.6945   12.0564   -1.5572 C.ar    1  UNL1        0.0803
     16 C           5.8354   13.2878   -0.8864 C.ar    1  UNL1       -0.0344
     17 C           6.3592   14.4198   -1.5438 C.ar    1  UNL1       -0.0457
     18 C           6.7543   14.3871   -2.8904 C.ar    1  UNL1        0.0602
     19 C           7.3927   15.6556   -3.4299 C.2     1  UNL1        0.3395
     20 O           7.5085   16.6535   -2.7017 O.2     1  UNL1       -0.2450
     21 O           7.8649   15.6012   -4.7044 O.3     1  UNL1       -0.4584
     22 C           8.5452   16.8003   -5.2104 C.3     1  UNL1        0.0978
     23 C           9.8678   17.0713   -4.4838 C.3     1  UNL1       -0.0280
     24 C           8.8613   16.6049   -6.6978 C.3     1  UNL1       -0.0280
     25 C           6.6318   13.1594   -3.5822 C.ar    1  UNL1       -0.0319
     26 C           6.1940   11.9861   -2.8586 C.ar    1  UNL1        0.0415
     27 S           6.2548   10.2845   -3.2320 S.2     1  UNL1       -0.0520
     28 C           3.3869    3.5289   -0.2825 C.ar    1  UNL1       -0.0042
     29 C           2.6737    2.3511    0.0817 C.ar    1  UNL1        0.1622
     30 O           1.6957    2.7167    0.9776 O.3     1  UNL1       -0.4914
     31 C           0.7613    1.7267    1.2955 C.3     1  UNL1        0.0790
     32 H           1.2208   -1.6897   -0.1859 H       1  UNL1        0.0660
     33 H           0.8946   -0.2556   -1.2370 H       1  UNL1        0.0660
     34 H           0.5838   -0.3408    0.5166 H       1  UNL1        0.0660
     35 H           4.5731    0.0826   -1.6062 H       1  UNL1        0.0655
     36 H           5.8643    2.1011   -2.0820 H       1  UNL1        0.0626
     37 H           4.0670    6.1928   -0.7221 H       1  UNL1        0.1568
     38 H           4.2871    8.5267   -0.7049 H       1  UNL1        0.1557
     39 H           5.6059   13.3320    0.1729 H       1  UNL1        0.0639
     40 H           6.4736   15.3385   -0.9657 H       1  UNL1        0.0626
     41 H           7.8788   17.6693   -5.1158 H       1  UNL1        0.0728
     42 H          10.5311   16.2037   -4.5555 H       1  UNL1        0.0265
     43 H           9.7208   17.2740   -3.4207 H       1  UNL1        0.0265
     44 H          10.3856   17.9401   -4.9092 H       1  UNL1        0.0265
     45 H           9.5034   15.7297   -6.8474 H       1  UNL1        0.0265
     46 H           9.3804   17.4774   -7.1164 H       1  UNL1        0.0265
     47 H           7.9499   16.4406   -7.2793 H       1  UNL1        0.0265
     48 H           6.9154   13.0950   -4.6308 H       1  UNL1        0.0637
     49 H           3.0399    4.4669    0.1324 H       1  UNL1        0.0663
     50 H           0.0040    2.0595    2.0046 H       1  UNL1        0.0660
     51 H           1.2899    0.9060    1.7904 H       1  UNL1        0.0660
     52 H           0.2110    1.4983    0.3765 H       1  UNL1        0.0660
@<TRIPOS>BOND
     1     1     2    1
     2     2     3    1
     3     3     4   ar
     4     4     5   ar
     5     5     6   ar
     6     6     7    1
     7     7     8    2
     8     7     9   am
     9     9    10    1
    10    10    11    2
    11    10    12    1
    12    12    13    1
    13    13    14   ar
    14    14    15   ar
    15    15    16   ar
    16    16    17   ar
    17    17    18   ar
    18    18    19    1
    19    19    20    2
    20    19    21    1
    21    21    22    1
    22    22    23    1
    23    22    24    1
    24    18    25   ar
    25    25    26   ar
    26    15    26   ar
    27    26    27   ar
    28    13    27   ar
    29     6    28   ar
    30    28    29   ar
    31     3    29   ar
    32    29    30    1
    33    30    31    1
    34     1    32    1
    35     1    33    1
    36     1    34    1
    37     4    35    1
    38     5    36    1
    39     9    37    1
    40    12    38    1
    41    16    39    1
    42    17    40    1
    43    22    41    1
    44    23    42    1
    45    23    43    1
    46    23    44    1
    47    24    45    1
    48    24    46    1
    49    24    47    1
    50    25    48    1
    51    28    49    1
    52    31    50    1
    53    31    51    1
    54    31    52    1
