@<TRIPOS>MOLECULE
*****
 37 38 0 0 0
SMALL
GASTEIGER

@<TRIPOS>ATOM
      1 C           1.0423    0.0997    0.0090 C.3     1  UNL1       -0.0307
      2 C           2.5623    0.1056    0.0028 C.3     1  UNL1        0.0868
      3 O           3.0176   -0.7916   -1.0119 O.3     1  UNL1       -0.4922
      4 C           4.3693   -1.0004   -1.0635 C.ar    1  UNL1        0.1205
      5 C           4.9104   -1.2073   -2.3307 C.ar    1  UNL1       -0.0192
      6 C           6.2608   -1.5483   -2.4739 C.ar    1  UNL1       -0.0462
      7 C           7.1123   -1.6288   -1.3579 C.ar    1  UNL1        0.0373
      8 C           8.5671   -1.8980   -1.6055 C.2     1  UNL1        0.2483
      9 O           8.9096   -2.1451   -2.7672 O.2     1  UNL1       -0.2699
     10 N           9.4301   -1.9115   -0.5165 N.am    1  UNL1       -0.2786
     11 C          10.8393   -1.9847   -0.6407 C.ar    1  UNL1        0.0756
     12 C          11.5631   -2.7622    0.2703 C.ar    1  UNL1       -0.0366
     13 C          12.9616   -2.8260    0.1935 C.ar    1  UNL1       -0.0569
     14 C          13.6498   -2.1540   -0.8240 C.ar    1  UNL1       -0.0469
     15 C          15.1319   -2.3188   -0.9929 C.3     1  UNL1       -0.0396
     16 C          12.9299   -1.3448   -1.7113 C.ar    1  UNL1       -0.0154
     17 C          11.5415   -1.2472   -1.6021 C.ar    1  UNL1        0.1382
     18 O          10.8822   -0.3189   -2.3626 O.3     1  UNL1       -0.5049
     19 C           6.5594   -1.4256   -0.0893 C.ar    1  UNL1       -0.0462
     20 C           5.1951   -1.1235    0.0539 C.ar    1  UNL1       -0.0192
     21 H           0.6564    0.8221    0.7346 H       1  UNL1        0.0262
     22 H           0.6619   -0.8933    0.2734 H       1  UNL1        0.0262
     23 H           0.6443    0.3426   -0.9809 H       1  UNL1        0.0262
     24 H           2.8985   -0.1900    1.0007 H       1  UNL1        0.0694
     25 H           2.9250    1.1140   -0.2242 H       1  UNL1        0.0694
     26 H           4.2870   -1.1004   -3.2157 H       1  UNL1        0.0654
     27 H           6.6473   -1.7558   -3.4714 H       1  UNL1        0.0626
     28 H           9.0697   -1.9558    0.4232 H       1  UNL1        0.1552
     29 H          11.0549   -3.3777    1.0082 H       1  UNL1        0.0637
     30 H          13.5108   -3.4194    0.9223 H       1  UNL1        0.0621
     31 H          15.5498   -2.9923   -0.2374 H       1  UNL1        0.0278
     32 H          15.6450   -1.3558   -0.9124 H       1  UNL1        0.0278
     33 H          15.3411   -2.7577   -1.9747 H       1  UNL1        0.0278
     34 H          13.4578   -0.7687   -2.4655 H       1  UNL1        0.0657
     35 H          11.3780   -0.1823   -3.1836 H       1  UNL1        0.2922
     36 H           7.1491   -1.5117    0.8149 H       1  UNL1        0.0626
     37 H           4.8018   -1.0174    1.0586 H       1  UNL1        0.0654
@<TRIPOS>BOND
     1     1     2    1
     2     2     3    1
     3     3     4    1
     4     4     5   ar
     5     5     6   ar
     6     6     7   ar
     7     7     8    1
     8     8     9    2
     9     8    10   am
    10    10    11    1
    11    11    12   ar
    12    12    13   ar
    13    13    14   ar
    14    14    15    1
    15    14    16   ar
    16    16    17   ar
    17    11    17   ar
    18    17    18    1
    19     7    19   ar
    20    19    20   ar
    21     4    20   ar
    22     1    21    1
    23     1    22    1
    24     1    23    1
    25     2    24    1
    26     2    25    1
    27     5    26    1
    28     6    27    1
    29    10    28    1
    30    12    29    1
    31    13    30    1
    32    15    31    1
    33    15    32    1
    34    15    33    1
    35    16    34    1
    36    18    35    1
    37    19    36    1
    38    20    37    1
