REMARK  5 active torsions:
REMARK  status: ('A' for Active; 'I' for Inactive)
REMARK    1  A    between atoms: C_2  and  N_4 
REMARK       I    between atoms: N_4  and  C_5 
REMARK       I    between atoms: C_5  and  N_7 
REMARK    2  A    between atoms: N_7  and  N_8 
REMARK       I    between atoms: N_8  and  C_9 
REMARK    3  A    between atoms: C_11  and  C_9 
REMARK    4  A    between atoms: C_11  and  O_13 
REMARK    5  A    between atoms: O_13  and  C_14 
ROOT
ATOM      1  N   UNL d   1       8.351   5.343   0.479  0.00  0.00    -0.264 N 
ATOM      2  C   UNL d   1       8.856   4.312   1.254  0.00  0.00     0.265 C 
ATOM      3  O   UNL d   1       9.737   3.555   0.837  0.00  0.00    -0.269 OA
ATOM      4  H   UNL d   1       7.668   6.021   0.820  0.00  0.00     0.190 HD
ENDROOT
BRANCH   2   5
ATOM      5  C   UNL d   1       8.325   4.221   2.717  0.00  0.00     0.218 C 
ATOM      6  C   UNL d   1       6.819   3.940   2.652  0.00  0.00     0.050 C 
BRANCH   5   7
ATOM      7  O   UNL d   1       8.527   5.345   3.589  0.00  0.00    -0.337 OA
BRANCH   7   8
ATOM      8  C   UNL d   1       9.829   5.675   3.878  0.00  0.00     0.071 A 
ATOM      9  C   UNL d   1      10.826   5.781   2.906  0.00  0.00     0.037 A 
ATOM     10  C   UNL d   1      12.122   6.179   3.222  0.00  0.00     0.004 A 
ATOM     11  C   UNL d   1      12.439   6.511   4.528  0.00  0.00     0.024 A 
ATOM     12  C   UNL d   1      11.450   6.441   5.509  0.00  0.00     0.036 A 
ATOM     13 CL   UNL d   1      11.860   6.865   7.127  0.00  0.00    -0.084 Cl
ATOM     14  C   UNL d   1      10.145   6.036   5.191  0.00  0.00     0.060 A 
ENDBRANCH   7   8
ENDBRANCH   5   7
ENDBRANCH   2   5
BRANCH   1  15
ATOM     15  N   UNL d   1       8.916   5.618  -0.801  0.00  0.00    -0.249 N 
ATOM     16  C   UNL d   1       8.392   6.659  -1.540  0.00  0.00     0.335 C 
ATOM     17  N   UNL d   1       8.921   6.806  -2.806  0.00  0.00    -0.338 N 
ATOM     18  O   UNL d   1       7.489   7.370  -1.091  0.00  0.00    -0.246 OA
ATOM     19  H   UNL d   1       9.700   6.228  -3.086  0.00  0.00     0.164 HD
ATOM     20  H   UNL d   1       9.693   5.034  -1.095  0.00  0.00     0.192 HD
BRANCH  17  21
ATOM     21  C   UNL d   1       8.433   7.832  -3.745  0.00  0.00     0.078 C 
ATOM     22  C   UNL d   1       9.233   7.870  -5.055  0.00  0.00     0.032 C 
ATOM     23  C   UNL d   1       6.959   7.611  -4.097  0.00  0.00     0.032 C 
ENDBRANCH  17  21
ENDBRANCH   1  15
TORSDOF 5
