REMARK  9 active torsions:
REMARK  status: ('A' for Active; 'I' for Inactive)
REMARK       I    between atoms: C_2  and  N_4 
REMARK    1  A    between atoms: N_4  and  C_5 
REMARK    2  A    between atoms: C_9  and  N_10 
REMARK    3  A    between atoms: N_10  and  C_11 
REMARK    4  A    between atoms: C_11  and  N_13 
REMARK    5  A    between atoms: N_13  and  N_14 
REMARK       I    between atoms: N_14  and  C_15 
REMARK    6  A    between atoms: C_15  and  C_17 
REMARK    7  A    between atoms: C_17  and  C_18 
REMARK    8  A    between atoms: C_18  and  C_19 
REMARK    9  A    between atoms: C_21  and  C_22 
ROOT
ATOM      1  N   UNL d   1       7.385  -1.742  -3.860  0.00  0.00    -0.274 N 
ATOM      2  H   UNL d   1       8.395  -1.659  -3.940  0.00  0.00     0.189 HD
ENDROOT
BRANCH   1   3
ATOM      3  C   UNL d   1       6.553  -1.058  -2.961  0.00  0.00     0.191 C 
ATOM      4  S   UNL d   1       4.887  -1.347  -3.158  0.00  0.00    -0.039 SA
BRANCH   3   5
ATOM      5  N   UNL d   1       7.236  -0.222  -2.034  0.00  0.00    -0.332 N 
ATOM      6  H   UNL d   1       8.244  -0.150  -2.131  0.00  0.00     0.168 HD
BRANCH   5   7
ATOM      7  C   UNL d   1       6.677   0.602  -0.981  0.00  0.00     0.036 A 
ATOM      8  C   UNL d   1       7.431   1.471  -0.182  0.00  0.00     0.029 A 
ATOM      9  C   UNL d   1       6.785   2.312   0.769  0.00  0.00     0.004 A 
ATOM     10  C   UNL d   1       5.390   2.276   0.960  0.00  0.00     0.029 A 
ATOM     11  C   UNL d   1       4.644   1.390   0.209  0.00  0.00     0.036 A 
ATOM     12  C   UNL d   1       5.316   0.595  -0.713  0.00  0.00     0.059 A 
BRANCH  11  13
ATOM     13  N   UNL d   1       3.229   1.294   0.264  0.00  0.00    -0.327 N 
ATOM     14  C   UNL d   1       2.553   0.087   0.086  0.00  0.00     0.218 C 
ATOM     15  C   UNL d   1       1.053   0.186   0.032  0.00  0.00     0.117 C 
ATOM     16  O   UNL d   1       3.082  -1.023   0.031  0.00  0.00    -0.274 OA
ATOM     17  H   UNL d   1       2.707   2.138   0.454  0.00  0.00     0.169 HD
ENDBRANCH  11  13
ENDBRANCH   5   7
ENDBRANCH   3   5
ENDBRANCH   1   3
BRANCH   1  18
ATOM     18  N   UNL d   1       6.737  -2.625  -4.801  0.00  0.00    -0.268 N 
ATOM     19  C   UNL d   1       7.416  -3.332  -5.755  0.00  0.00     0.236 C 
ATOM     20  O   UNL d   1       8.641  -3.252  -5.878  0.00  0.00    -0.272 OA
ATOM     21  H   UNL d   1       5.720  -2.682  -4.693  0.00  0.00     0.190 HD
BRANCH  19  22
ATOM     22  C   UNL d   1       6.534  -4.217  -6.638  0.00  0.00     0.112 C 
BRANCH  22  23
ATOM     23  C   UNL d   1       7.402  -4.963  -7.651  0.00  0.00     0.098 C 
BRANCH  23  24
ATOM     24  C   UNL d   1       6.619  -5.808  -8.583  0.00  0.00     0.173 A 
ATOM     25  N   UNL d   1       5.744  -5.444  -9.489  0.00  0.00    -0.208 NA
ATOM     26  C   UNL d   1       5.438  -6.635 -10.101  0.00  0.00     0.159 A 
ATOM     27  N   UNL d   1       6.085  -7.700  -9.607  0.00  0.00    -0.111 NA
ATOM     28  O   UNL d   1       6.873  -7.150  -8.588  0.00  0.00    -0.196 OA
BRANCH  26  29
ATOM     29  C   UNL d   1       4.457  -6.725 -11.229  0.00  0.00     0.051 C 
ATOM     30  C   UNL d   1       3.284  -7.644 -10.882  0.00  0.00     0.018 C 
ATOM     31  C   UNL d   1       3.918  -5.341 -11.607  0.00  0.00     0.018 C 
ENDBRANCH  26  29
ENDBRANCH  23  24
ENDBRANCH  22  23
ENDBRANCH  19  22
ENDBRANCH   1  18
TORSDOF 9
