REMARK  10 active torsions:
REMARK  status: ('A' for Active; 'I' for Inactive)
REMARK    1  A    between atoms: O_2  and  C_3 
REMARK    2  A    between atoms: C_5  and  C_6 
REMARK    3  A    between atoms: C_6  and  O_8 
REMARK    4  A    between atoms: O_8  and  C_9 
REMARK    5  A    between atoms: C_9  and  C_10 
REMARK    6  A    between atoms: C_10  and  C_12 
REMARK    7  A    between atoms: C_24  and  O_25 
REMARK    8  A    between atoms: O_25  and  C_26 
REMARK    9  A    between atoms: C_26  and  C_27 
REMARK       I    between atoms: C_27  and  N_29 
REMARK   10  A    between atoms: N_29  and  C_30 
ROOT
ATOM      1  C   UNL d   1       3.093   0.615  -1.007  0.00  0.00     0.102 A 
ATOM      2  C   UNL d   1       4.231   0.122  -1.709  0.00  0.00     0.057 A 
ATOM      3  C   UNL d   1       4.970   0.925  -2.613  0.00  0.00     0.042 A 
ATOM      4  C   UNL d   1       4.490   2.197  -2.911  0.00  0.00     0.020 A 
ATOM      5  C   UNL d   1       3.379   2.696  -2.220  0.00  0.00     0.040 A 
ATOM      6  C   UNL d   1       2.699   1.950  -1.236  0.00  0.00     0.102 A 
ENDROOT
BRANCH   3   7
ATOM      7  C   UNL d   1       6.300   0.429  -3.139  0.00  0.00     0.293 C 
ATOM      8  O   UNL d   1       6.778  -0.643  -2.866  0.00  0.00    -0.259 OA
BRANCH   7   9
ATOM      9  O   UNL d   1       6.930   1.362  -3.915  0.00  0.00    -0.310 OA
BRANCH   9  10
ATOM     10  C   UNL d   1       8.230   0.968  -4.413  0.00  0.00     0.262 C 
BRANCH  10  11
ATOM     11  C   UNL d   1       8.756   2.066  -5.323  0.00  0.00     0.182 C 
ATOM     12  O   UNL d   1       8.119   3.115  -5.434  0.00  0.00    -0.290 OA
BRANCH  11  13
ATOM     13  C   UNL d   1      10.050   1.903  -6.077  0.00  0.00     0.025 A 
ATOM     14  C   UNL d   1      10.552   3.005  -6.689  0.00  0.00     0.002 A 
ATOM     15  C   UNL d   1      10.090   4.340  -6.944  0.00  0.00     0.014 C 
ATOM     16  C   UNL d   1      11.898   2.631  -7.154  0.00  0.00     0.039 A 
ATOM     17  C   UNL d   1      10.765   5.129  -7.791  0.00  0.00     0.001 C 
ATOM     18  C   UNL d   1      12.053   4.739  -8.328  0.00  0.00     0.002 C 
ATOM     19  C   UNL d   1      12.637   3.561  -8.041  0.00  0.00     0.030 C 
ATOM     20  N   UNL d   1      12.241   1.482  -6.726  0.00  0.00    -0.381 N 
ATOM     21  C   UNL d   1      11.130   0.826  -5.963  0.00  0.00     0.115 A 
ATOM     22  H   UNL d   1      13.133   1.065  -6.999  0.00  0.00     0.160 HD
ATOM     23  C   UNL d   1      11.631  -0.616  -5.670  0.00  0.00     0.037 C 
ENDBRANCH  11  13
ENDBRANCH  10  11
ENDBRANCH   9  10
ENDBRANCH   7   9
ENDBRANCH   3   7
BRANCH   1  24
ATOM     24  O   UNL d   1       2.668  -0.202   0.023  0.00  0.00    -0.353 OA
ATOM     25  C   UNL d   1       1.330  -0.706   0.017  0.00  0.00     0.210 C 
ENDBRANCH   1  24
BRANCH   6  26
ATOM     26  O   UNL d   1       1.780   2.749  -0.588  0.00  0.00    -0.339 OA
BRANCH  26  27
ATOM     27  C   UNL d   1       0.862   2.095   0.242  0.00  0.00     0.278 C 
BRANCH  27  28
ATOM     28  C   UNL d   1      -0.300   2.792   0.933  0.00  0.00     0.246 C 
ATOM     29  O   UNL d   1      -0.601   3.942   0.626  0.00  0.00    -0.271 OA
ATOM     30  N   UNL d   1      -0.998   2.003   1.871  0.00  0.00    -0.325 N 
ATOM     31  H   UNL d   1      -0.612   1.144   2.252  0.00  0.00     0.169 HD
BRANCH  30  32
ATOM     32  C   UNL d   1      -2.192   2.487   2.450  0.00  0.00     0.035 A 
ATOM     33  C   UNL d   1      -2.487   2.302   3.805  0.00  0.00     0.032 A 
ATOM     34  C   UNL d   1      -3.672   2.841   4.327  0.00  0.00     0.044 A 
ATOM     35  C   UNL d   1      -4.527   3.572   3.503  0.00  0.00     0.116 A 
ATOM     36  F   UNL d   1      -5.621   4.146   4.019  0.00  0.00    -0.206 F 
ATOM     37  C   UNL d   1      -4.256   3.728   2.155  0.00  0.00     0.044 A 
ATOM     38  C   UNL d   1      -3.097   3.173   1.633  0.00  0.00     0.032 A 
ENDBRANCH  30  32
ENDBRANCH  27  28
ENDBRANCH  26  27
ENDBRANCH   6  26
TORSDOF 10
