@<TRIPOS>MOLECULE
*****
 56 58 0 0 0
SMALL
GASTEIGER

@<TRIPOS>ATOM
      1 C           0.6855    0.3263   -0.0596 C.3     1  UNL1       -0.0307
      2 C           2.1897    0.4727    0.0319 C.3     1  UNL1        0.0870
      3 O           2.8774    0.9712   -1.1226 O.3     1  UNL1       -0.4886
      4 C           4.2677    0.9181   -1.2027 C.ar    1  UNL1        0.1623
      5 C           4.8367    2.1674   -1.5308 C.ar    1  UNL1       -0.0081
      6 C           6.1875    2.2862   -1.9349 C.ar    1  UNL1        0.0007
      7 C           6.6883    3.5645   -2.5458 C.3     1  UNL1       -0.0075
      8 N           8.1007    3.4472   -3.0398 N.4     1  UNL1        0.2314
      9 C           8.6241    4.6746   -3.6759 C.3     1  UNL1       -0.0174
     10 C          10.0758    4.4900   -4.1169 C.3     1  UNL1        0.0520
     11 N          10.6341    5.7104   -4.6734 N.am    1  UNL1       -0.3048
     12 C          11.9361    5.6926   -5.1813 C.2     1  UNL1        0.2694
     13 O          12.5959    4.6723   -5.1282 O.2     1  UNL1       -0.2683
     14 C          12.4190    6.9440   -5.7643 C.ar    1  UNL1        0.2095
     15 N          13.2467    6.9210   -6.8185 N.ar    1  UNL1       -0.0422
     16 O          13.5657    8.2483   -7.0645 O.2     1  UNL1       -0.2401
     17 N          12.9199    9.0907   -6.1725 N.ar    1  UNL1       -0.0334
     18 C          12.2003    8.2928   -5.3887 C.ar    1  UNL1        0.1925
     19 N          11.4027    8.7528   -4.4005 N.pl3   1  UNL1       -0.3386
     20 C           7.0173    1.1644   -1.8712 C.ar    1  UNL1       -0.0499
     21 C           6.4884   -0.0634   -1.5587 C.ar    1  UNL1       -0.0158
     22 C           5.1338   -0.2120   -1.2600 C.ar    1  UNL1        0.1624
     23 O           4.9181   -1.5654   -1.1217 O.3     1  UNL1       -0.4837
     24 C           3.6507   -1.7876   -0.6094 C.3     1  UNL1        0.1162
     25 C           3.1898   -3.1532   -0.2977 C.ar    1  UNL1        0.0080
     26 C           2.6745   -3.4269    0.9858 C.ar    1  UNL1       -0.0526
     27 C           2.5139   -4.7443    1.3620 C.ar    1  UNL1       -0.0429
     28 C           2.7167   -5.7405    0.4078 C.ar    1  UNL1        0.0424
     29 CL          2.5231   -7.3833    0.8567 Cl      1  UNL1       -0.0835
     30 C           3.0494   -5.4364   -0.9144 C.ar    1  UNL1       -0.0247
     31 C           3.2547   -4.1273   -1.2792 C.ar    1  UNL1        0.0487
     32 CL          3.5647   -3.7318   -2.9322 Cl      1  UNL1       -0.0831
     33 H           0.3700   -0.4027    0.7102 H       1  UNL1        0.0262
     34 H           0.4077   -0.1282   -1.0213 H       1  UNL1        0.0262
     35 H           0.1578    1.2572    0.0931 H       1  UNL1        0.0262
     36 H           2.2488   -0.5793    0.0582 H       1  UNL1        0.0694
     37 H           2.6320    0.7857    0.9802 H       1  UNL1        0.0694
     38 H           4.1935    3.0494   -1.5193 H       1  UNL1        0.0660
     39 H           6.6620    4.3869   -1.8259 H       1  UNL1        0.0866
     40 H           6.0834    3.8063   -3.4276 H       1  UNL1        0.0866
     41 H           8.1384    2.6632   -3.7096 H       1  UNL1        0.2017
     42 H           8.6953    3.1859   -2.2414 H       1  UNL1        0.2017
     43 H           8.5450    5.4743   -2.9346 H       1  UNL1        0.0829
     44 H           7.9807    4.8963   -4.5323 H       1  UNL1        0.0829
     45 H          10.1539    3.6818   -4.8563 H       1  UNL1        0.0515
     46 H          10.6985    4.1962   -3.2614 H       1  UNL1        0.0515
     47 H          10.0508    6.5081   -4.9002 H       1  UNL1        0.1493
     48 H          11.5095    9.7340   -4.1408 H       1  UNL1        0.1439
     49 H          11.0152    8.1761   -3.6681 H       1  UNL1        0.1439
     50 H           8.0747    1.1689   -2.1086 H       1  UNL1        0.0623
     51 H           7.1250   -0.9472   -1.6027 H       1  UNL1        0.0655
     52 H           2.9461   -1.4258   -1.3693 H       1  UNL1        0.0748
     53 H           3.7264   -1.3177    0.3799 H       1  UNL1        0.0748
     54 H           2.4472   -2.6329    1.7018 H       1  UNL1        0.0622
     55 H           2.2740   -4.9851    2.3945 H       1  UNL1        0.0632
     56 H           3.1901   -6.2105   -1.6567 H       1  UNL1        0.0647
@<TRIPOS>UNITY_ATOM_ATTR
8 1
charge 1
@<TRIPOS>BOND
     1     1     2    1
     2     2     3    1
     3     3     4    1
     4     4     5   ar
     5     5     6   ar
     6     6     7    1
     7     7     8    1
     8     8     9    1
     9     9    10    1
    10    10    11    1
    11    11    12   am
    12    12    13    2
    13    12    14    1
    14    14    15   ar
    15    15    16   ar
    16    16    17   ar
    17    17    18   ar
    18    14    18   ar
    19    18    19    1
    20     6    20   ar
    21    20    21   ar
    22    21    22   ar
    23     4    22   ar
    24    22    23    1
    25    23    24    1
    26    24    25    1
    27    25    26   ar
    28    26    27   ar
    29    27    28   ar
    30    28    29    1
    31    28    30   ar
    32    30    31   ar
    33    25    31   ar
    34    31    32    1
    35     1    33    1
    36     1    34    1
    37     1    35    1
    38     2    36    1
    39     2    37    1
    40     5    38    1
    41     7    39    1
    42     7    40    1
    43     8    41    1
    44     8    42    1
    45     9    43    1
    46     9    44    1
    47    10    45    1
    48    10    46    1
    49    11    47    1
    50    19    48    1
    51    19    49    1
    52    20    50    1
    53    21    51    1
    54    24    52    1
    55    24    53    1
    56    26    54    1
    57    27    55    1
    58    30    56    1
