REMARK  4 active torsions:
REMARK  status: ('A' for Active; 'I' for Inactive)
REMARK       I    between atoms: C_2  and  N_3 
REMARK    1  A    between atoms: C_2  and  C_18 
REMARK    2  A    between atoms: N_3  and  C_4 
REMARK    3  A    between atoms: C_4  and  C_5 
REMARK    4  A    between atoms: C_8  and  N_9 
ROOT
ATOM      1  C   UNL d   1       3.194   1.415  -3.436  0.00  0.00    -0.025 A 
ATOM      2  C   UNL d   1       3.984   0.521  -4.165  0.00  0.00     0.014 A 
ATOM      3  C   UNL d   1       4.850   0.990  -5.168  0.00  0.00     0.049 A 
ATOM      4  C   UNL d   1       4.936   2.359  -5.438  0.00  0.00     0.102 A 
ATOM      5  N   UNL d   1       4.143   3.172  -4.722  0.00  0.00    -0.352 N 
ATOM      6  C   UNL d   1       3.293   2.763  -3.766  0.00  0.00     0.098 A 
ATOM      7  H   UNL d   1       4.169   4.153  -4.979  0.00  0.00     0.166 HD
ENDROOT
BRANCH   1   8
ATOM      8  C   UNL d   1       2.245   0.950  -2.352  0.00  0.00     0.162 C 
BRANCH   8   9
ATOM      9  N   UNL d   1       2.931   0.504  -1.149  0.00  0.00    -0.353 N 
ATOM     10  C   UNL d   1       2.203  -0.011  -0.088  0.00  0.00     0.252 C 
ATOM     11  O   UNL d   1       0.976  -0.078  -0.099  0.00  0.00    -0.268 OA
ATOM     12  H   UNL d   1       3.938   0.405  -1.146  0.00  0.00     0.163 HD
BRANCH  10  13
ATOM     13  C   UNL d   1       2.953  -0.502   1.101  0.00  0.00     0.037 A 
ATOM     14  C   UNL d   1       3.993   0.243   1.658  0.00  0.00     0.036 A 
ATOM     15  C   UNL d   1       4.572  -0.222   2.830  0.00  0.00     0.121 A 
ATOM     16  N   UNL d   1       4.198  -1.356   3.452  0.00  0.00    -0.233 NA
ATOM     17  C   UNL d   1       3.188  -2.054   2.895  0.00  0.00     0.210 A 
ATOM     18  F   UNL d   1       2.803  -3.179   3.514  0.00  0.00    -0.184 F 
ATOM     19  C   UNL d   1       2.538  -1.676   1.735  0.00  0.00     0.080 A 
ENDBRANCH  10  13
ENDBRANCH   8   9
ENDBRANCH   1   8
BRANCH   4  20
ATOM     20  N   UNL d   1       5.710   2.937  -6.418  0.00  0.00    -0.367 N 
ATOM     21  C   UNL d   1       6.841   3.792  -6.037  0.00  0.00     0.124 C 
ATOM     22  C   UNL d   1       6.452   5.255  -6.256  0.00  0.00     0.020 C 
ATOM     23  C   UNL d   1       6.424   5.695  -7.720  0.00  0.00     0.002 C 
ATOM     24  C   UNL d   1       5.578   4.814  -8.643  0.00  0.00     0.002 C 
ATOM     25  C   UNL d   1       6.158   3.410  -8.834  0.00  0.00     0.020 C 
ATOM     26  C   UNL d   1       5.690   2.392  -7.781  0.00  0.00     0.124 C 
ENDBRANCH   4  20
TORSDOF 4
