@<TRIPOS>MOLECULE
*****
 40 41 0 0 0
SMALL
GASTEIGER

@<TRIPOS>ATOM
      1 C           0.9092   -0.0913    0.0725 C.3     1  UNL1       -0.0134
      2 S           2.6008   -0.6304    0.4146 S.3     1  UNL1       -0.1268
      3 C           3.1977    0.7381    1.4227 C.ar    1  UNL1        0.0288
      4 C           3.6334    0.2465    2.6647 C.ar    1  UNL1       -0.0465
      5 C           3.7998    1.0818    3.7566 C.ar    1  UNL1       -0.0606
      6 C           3.6565    2.4505    3.5896 C.ar    1  UNL1       -0.0599
      7 C           3.3653    2.9796    2.3176 C.ar    1  UNL1       -0.0394
      8 C           3.1485    2.1375    1.1965 C.ar    1  UNL1        0.0469
      9 N           2.8971    2.7810   -0.0678 N.am    1  UNL1       -0.2830
     10 C           2.9861    2.1739   -1.3146 C.2     1  UNL1        0.2373
     11 O           3.4241    1.0405   -1.5279 O.2     1  UNL1       -0.2734
     12 C           2.6332    2.9979   -2.5641 C.3     1  UNL1        0.0972
     13 C           3.8099    3.9213   -2.8175 C.3     1  UNL1       -0.0381
     14 N           2.4899    2.0182   -3.6601 N.am    1  UNL1       -0.3003
     15 C           2.2545    2.3339   -4.9715 C.2     1  UNL1        0.2461
     16 O           2.1517    3.4903   -5.3778 O.2     1  UNL1       -0.2701
     17 C           2.1350    1.2153   -5.9450 C.ar    1  UNL1        0.0550
     18 C           2.7381    1.3776   -7.2083 C.ar    1  UNL1       -0.0482
     19 C           2.5094    0.4515   -8.2320 C.ar    1  UNL1       -0.0610
     20 C           1.7199   -0.6692   -7.9894 C.ar    1  UNL1       -0.0603
     21 C           1.1395   -0.8503   -6.7335 C.ar    1  UNL1       -0.0427
     22 C           1.3378    0.0879   -5.7120 C.ar    1  UNL1        0.0531
     23 CL          0.5090   -0.2009   -4.2229 Cl      1  UNL1       -0.0828
     24 H           0.5742   -0.5721   -0.8502 H       1  UNL1        0.0344
     25 H           0.7895    0.9884   -0.0473 H       1  UNL1        0.0344
     26 H           0.2740   -0.4252    0.8942 H       1  UNL1        0.0344
     27 H           3.7894   -0.8230    2.7941 H       1  UNL1        0.0629
     28 H           4.0009    0.6427    4.7298 H       1  UNL1        0.0618
     29 H           3.7879    3.0982    4.4548 H       1  UNL1        0.0618
     30 H           3.3032    4.0645    2.2433 H       1  UNL1        0.0636
     31 H           2.8543    3.7956   -0.0497 H       1  UNL1        0.1549
     32 H           1.6790    3.5230   -2.4493 H       1  UNL1        0.0592
     33 H           4.7348    3.3338   -2.8772 H       1  UNL1        0.0252
     34 H           3.9242    4.6443   -2.0063 H       1  UNL1        0.0252
     35 H           3.7071    4.4675   -3.7563 H       1  UNL1        0.0252
     36 H           2.6128    1.0420   -3.3852 H       1  UNL1        0.1498
     37 H           3.3743    2.2395   -7.4067 H       1  UNL1        0.0625
     38 H           2.9265    0.6144   -9.2244 H       1  UNL1        0.0618
     39 H           1.5471   -1.3989   -8.7776 H       1  UNL1        0.0618
     40 H           0.5029   -1.7152   -6.5623 H       1  UNL1        0.0632
@<TRIPOS>BOND
     1     1     2    1
     2     2     3    1
     3     3     4   ar
     4     4     5   ar
     5     5     6   ar
     6     6     7   ar
     7     7     8   ar
     8     3     8   ar
     9     8     9    1
    10     9    10   am
    11    10    11    2
    12    10    12    1
    13    12    13    1
    14    12    14    1
    15    14    15   am
    16    15    16    2
    17    15    17    1
    18    17    18   ar
    19    18    19   ar
    20    19    20   ar
    21    20    21   ar
    22    21    22   ar
    23    17    22   ar
    24    22    23    1
    25     1    24    1
    26     1    25    1
    27     1    26    1
    28     4    27    1
    29     5    28    1
    30     6    29    1
    31     7    30    1
    32     9    31    1
    33    12    32    1
    34    13    33    1
    35    13    34    1
    36    13    35    1
    37    14    36    1
    38    18    37    1
    39    19    38    1
    40    20    39    1
    41    21    40    1
