REMARK  14 active torsions:
REMARK  status: ('A' for Active; 'I' for Inactive)
REMARK    1  A    between atoms: C_2  and  C_3 
REMARK    2  A    between atoms: C_3  and  C_4 
REMARK    3  A    between atoms: C_4  and  C_5 
REMARK    4  A    between atoms: C_5  and  C_6 
REMARK    5  A    between atoms: C_6  and  O_7 
REMARK    6  A    between atoms: O_7  and  C_8 
REMARK    7  A    between atoms: C_13  and  C_14 
REMARK       I    between atoms: C_14  and  N_16 
REMARK    8  A    between atoms: N_16  and  C_17 
REMARK    9  A    between atoms: C_17  and  N_19 
REMARK   10  A    between atoms: C_25  and  C_26 
REMARK   11  A    between atoms: C_26  and  C_27 
REMARK   12  A    between atoms: C_27  and  O_29 
REMARK   13  A    between atoms: O_29  and  C_30 
REMARK   14  A    between atoms: C_30  and  C_32 
ROOT
ATOM      1  C   UNL d   1       6.843   1.988   2.018  0.00  0.00     0.177 C 
ATOM      2  S   UNL d   1       7.790   3.168   1.262  0.00  0.00    -0.041 SA
ENDROOT
BRANCH   1   3
ATOM      3  N   UNL d   1       7.388   1.021   2.895  0.00  0.00    -0.299 N 
ATOM      4  C   UNL d   1       8.740   0.654   3.027  0.00  0.00     0.260 C 
ATOM      5  O   UNL d   1       9.672   1.376   2.683  0.00  0.00    -0.267 OA
ATOM      6  H   UNL d   1       6.797   0.362   3.359  0.00  0.00     0.171 HD
BRANCH   4   7
ATOM      7  C   UNL d   1       9.122  -0.667   3.658  0.00  0.00     0.065 A 
ATOM      8  C   UNL d   1      10.489  -0.762   4.031  0.00  0.00     0.020 A 
ATOM      9  C   UNL d   1      11.022  -1.882   4.675  0.00  0.00     0.001 A 
ATOM     10  C   UNL d   1      10.191  -2.948   4.975  0.00  0.00     0.003 A 
ATOM     11  C   UNL d   1       8.856  -2.916   4.557  0.00  0.00     0.038 A 
ATOM     12  C   UNL d   1       8.312  -1.790   3.894  0.00  0.00     0.084 A 
BRANCH  12  13
ATOM     13  O   UNL d   1       6.959  -1.853   3.678  0.00  0.00    -0.350 OA
BRANCH  13  14
ATOM     14  C   UNL d   1       6.543  -1.865   2.308  0.00  0.00     0.175 C 
BRANCH  14  15
ATOM     15  C   UNL d   1       5.011  -2.077   2.267  0.00  0.00     0.027 C 
BRANCH  15  16
ATOM     16  C   UNL d   1       4.441  -1.393   1.021  0.00  0.00     0.002 C 
BRANCH  16  17
ATOM     17  C   UNL d   1       2.898  -1.397   0.898  0.00  0.00    -0.000 C 
BRANCH  17  18
ATOM     18  C   UNL d   1       2.208  -0.880  -0.422  0.00  0.00    -0.005 C 
ATOM     19  C   UNL d   1       0.720  -0.557  -0.232  0.00  0.00     0.005 C 
ENDBRANCH  17  18
ENDBRANCH  16  17
ENDBRANCH  15  16
ENDBRANCH  14  15
ENDBRANCH  13  14
ENDBRANCH  12  13
ENDBRANCH   4   7
ENDBRANCH   1   3
BRANCH   1  20
ATOM     20  N   UNL d   1       5.471   1.858   1.674  0.00  0.00    -0.343 N 
ATOM     21  C   UNL d   1       5.072   2.360   0.298  0.00  0.00     0.146 C 
ATOM     22  C   UNL d   1       4.063   1.463  -0.319  0.00  0.00     0.142 C 
ATOM     23  N   UNL d   1       2.915   1.569   0.572  0.00  0.00    -0.358 N 
ATOM     24  C   UNL d   1       2.943   1.446   1.926  0.00  0.00     0.241 C 
ATOM     25  H   UNL d   1       1.975   1.436   0.232  0.00  0.00     0.162 HD
ATOM     26  O   UNL d   1       1.856   1.224   2.449  0.00  0.00    -0.271 OA
ATOM     27  C   UNL d   1       4.279   1.728   2.666  0.00  0.00     0.188 C 
BRANCH  27  28
ATOM     28  C   UNL d   1       4.561   0.797   3.855  0.00  0.00     0.146 C 
BRANCH  28  29
ATOM     29  C   UNL d   1       3.445   0.187   4.675  0.00  0.00     0.261 C 
ATOM     30  O   UNL d   1       2.317   0.679   4.787  0.00  0.00    -0.265 OA
BRANCH  29  31
ATOM     31  O   UNL d   1       3.828  -0.923   5.392  0.00  0.00    -0.316 OA
BRANCH  31  32
ATOM     32  C   UNL d   1       2.770  -1.428   6.256  0.00  0.00     0.127 C 
ATOM     33  C   UNL d   1       1.706  -2.166   5.434  0.00  0.00     0.040 C 
BRANCH  32  34
ATOM     34  C   UNL d   1       3.330  -2.354   7.351  0.00  0.00     0.027 C 
ATOM     35  C   UNL d   1       2.240  -2.801   8.327  0.00  0.00     0.007 C 
ENDBRANCH  32  34
ENDBRANCH  31  32
ENDBRANCH  29  31
ENDBRANCH  28  29
ENDBRANCH  27  28
ENDBRANCH   1  20
TORSDOF 14
