REMARK  13 active torsions:
REMARK  status: ('A' for Active; 'I' for Inactive)
REMARK    1  A    between atoms: C_2  and  O_3 
REMARK    2  A    between atoms: C_2  and  C_12 
REMARK    3  A    between atoms: O_3  and  C_4 
REMARK       I    between atoms: C_12  and  N_14 
REMARK    4  A    between atoms: N_14  and  N_15 
REMARK       I    between atoms: N_15  and  C_16 
REMARK    5  A    between atoms: C_16  and  C_18 
REMARK    6  A    between atoms: C_18  and  C_19 
REMARK    7  A    between atoms: C_19  and  C_20 
REMARK    8  A    between atoms: C_20  and  C_21 
REMARK    9  A    between atoms: C_21  and  O_23 
REMARK   10  A    between atoms: O_23  and  C_24 
REMARK   11  A    between atoms: C_24  and  C_25 
REMARK   12  A    between atoms: C_25  and  C_26 
REMARK   13  A    between atoms: C_26  and  C_27 
ROOT
ATOM      1  N   UNL d   1       5.034   2.929  -1.040  0.00  0.00    -0.267 N 
ATOM      2  C   UNL d   1       6.407   3.099  -1.107  0.00  0.00     0.236 C 
ATOM      3  O   UNL d   1       7.177   2.201  -0.769  0.00  0.00    -0.272 OA
ATOM      4  H   UNL d   1       4.349   3.631  -1.316  0.00  0.00     0.190 HD
ENDROOT
BRANCH   1   5
ATOM      5  N   UNL d   1       4.511   1.677  -0.579  0.00  0.00    -0.265 N 
ATOM      6  C   UNL d   1       3.140   1.498  -0.542  0.00  0.00     0.265 C 
ATOM      7  O   UNL d   1       2.388   2.425  -0.865  0.00  0.00    -0.269 OA
ATOM      8  H   UNL d   1       5.191   0.947  -0.366  0.00  0.00     0.190 HD
BRANCH   6   9
ATOM      9  C   UNL d   1       2.602   0.117  -0.020  0.00  0.00     0.218 C 
ATOM     10  C   UNL d   1       1.076   0.272   0.086  0.00  0.00     0.050 C 
BRANCH   9  11
ATOM     11  O   UNL d   1       3.031  -0.958  -0.889  0.00  0.00    -0.335 OA
BRANCH  11  12
ATOM     12  C   UNL d   1       2.688  -2.258  -0.581  0.00  0.00     0.091 C 
ATOM     13  C   UNL d   1       1.364  -2.654  -0.366  0.00  0.00     0.040 C 
ATOM     14  C   UNL d   1       1.014  -3.971  -0.068  0.00  0.00     0.026 C 
ATOM     15  C   UNL d   1       1.980  -4.960  -0.117  0.00  0.00     0.035 C 
ATOM     16 CL   UNL d   1       1.512  -6.593   0.142  0.00  0.00    -0.084 Cl
ATOM     17  C   UNL d   1       3.295  -4.627  -0.433  0.00  0.00     0.050 C 
ATOM     18  C   UNL d   1       3.649  -3.281  -0.652  0.00  0.00     0.069 C 
ATOM     19 CL   UNL d   1       5.295  -2.938  -1.049  0.00  0.00    -0.081 Cl
ENDBRANCH  11  12
ENDBRANCH   9  11
ENDBRANCH   6   9
ENDBRANCH   1   5
BRANCH   2  20
ATOM     20  C   UNL d   1       6.893   4.468  -1.619  0.00  0.00     0.105 C 
BRANCH  20  21
ATOM     21  C   UNL d   1       8.432   4.541  -1.647  0.00  0.00     0.019 C 
BRANCH  21  22
ATOM     22  C   UNL d   1       9.023   5.874  -2.143  0.00  0.00     0.111 C 
BRANCH  22  23
ATOM     23  C   UNL d   1      10.544   5.815  -2.125  0.00  0.00     0.258 C 
ATOM     24  O   UNL d   1      11.197   4.840  -1.754  0.00  0.00    -0.265 OA
BRANCH  23  25
ATOM     25  O   UNL d   1      11.110   6.971  -2.572  0.00  0.00    -0.321 OA
BRANCH  25  26
ATOM     26  C   UNL d   1      12.556   6.937  -2.572  0.00  0.00     0.179 C 
BRANCH  26  27
ATOM     27  C   UNL d   1      13.074   8.271  -3.071  0.00  0.00     0.031 C 
BRANCH  27  28
ATOM     28  C   UNL d   1      14.609   8.363  -3.105  0.00  0.00     0.041 C 
BRANCH  28  29
ATOM     29  C   UNL d   1      15.093   9.722  -3.570  0.00  0.00    -0.058 A 
ATOM     30  C   UNL d   1      16.316   9.880  -4.236  0.00  0.00     0.007 A 
ATOM     31  C   UNL d   1      16.782  11.162  -4.554  0.00  0.00     0.001 A 
ATOM     32  C   UNL d   1      16.002  12.286  -4.281  0.00  0.00     0.000 A 
ATOM     33  C   UNL d   1      14.783  12.140  -3.637  0.00  0.00     0.001 A 
ATOM     34  C   UNL d   1      14.352  10.874  -3.266  0.00  0.00     0.007 A 
ENDBRANCH  28  29
ENDBRANCH  27  28
ENDBRANCH  26  27
ENDBRANCH  25  26
ENDBRANCH  23  25
ENDBRANCH  22  23
ENDBRANCH  21  22
ENDBRANCH  20  21
ENDBRANCH   2  20
TORSDOF 13
