@<TRIPOS>MOLECULE
*****
 66 69 0 0 0
SMALL
GASTEIGER

@<TRIPOS>ATOM
      1 C           1.0381   -0.3020    0.6569 C.3     1  UNL1       -0.0613
      2 C           2.5832   -0.2701    0.4859 C.3     1  UNL1       -0.0304
      3 C           3.2135    0.7705    1.3769 C.ar    1  UNL1       -0.0444
      4 C           3.3827    0.4853    2.7086 C.ar    1  UNL1       -0.0584
      5 C           3.4594    1.5497    3.5953 C.ar    1  UNL1       -0.0583
      6 C           3.3282    2.8924    3.1452 C.ar    1  UNL1       -0.0232
      7 C           3.2372    3.1942    1.7754 C.ar    1  UNL1        0.1000
      8 N           2.8917    4.4932    1.2639 N.pl3   1  UNL1       -0.2450
      9 C           2.5241    4.8689   -0.0405 C.2     1  UNL1        0.3842
     10 N           2.2604    4.1833   -1.1254 N.am    1  UNL1        0.0006
     11 C           1.6380    2.9591   -1.0093 C.2     1  UNL1        0.3408
     12 O           0.8032    2.7492   -0.1792 O.2     1  UNL1       -0.2483
     13 C           1.9565    1.9092   -2.0670 C.ar    1  UNL1        0.0630
     14 C           1.2558    0.6953   -2.0608 C.ar    1  UNL1       -0.0061
     15 C           1.6508   -0.4336   -2.7925 C.ar    1  UNL1        0.1243
     16 O           1.2205   -1.6571   -2.3561 O.3     1  UNL1       -0.4950
     17 C           1.5427   -2.7991   -3.1539 C.3     1  UNL1        0.0788
     18 C           2.4597   -0.2062   -3.8721 C.ar    1  UNL1        0.0218
     19 C           3.0799    1.0406   -3.9964 C.ar    1  UNL1        0.1243
     20 O           3.7791    1.1916   -5.1616 O.3     1  UNL1       -0.4950
     21 C           4.3830    2.4657   -5.2846 C.3     1  UNL1        0.0788
     22 C           2.9426    2.0452   -3.0169 C.ar    1  UNL1       -0.0061
     23 N           2.4023    6.2512   -0.2505 N.pl3   1  UNL1       -0.2767
     24 C           1.8412    6.6861   -1.5535 C.3     1  UNL1        0.0684
     25 C           1.6165    8.1765   -1.6792 C.3     1  UNL1        0.0059
     26 C           1.2502    8.7091   -3.0434 C.2     1  UNL1        0.0106
     27 C           1.0385   10.0163   -3.1988 C.ar    1  UNL1        0.0510
     28 C           1.0917   11.0678   -2.2500 C.ar    1  UNL1       -0.0482
     29 C           0.6811   12.2808   -2.6262 C.ar    1  UNL1       -0.0608
     30 C           0.3220   12.5558   -4.0079 C.ar    1  UNL1       -0.0555
     31 C           0.2973   11.6187   -4.9812 C.ar    1  UNL1        0.0098
     32 C           0.6581   10.2336   -4.5976 C.ar    1  UNL1        0.2086
     33 N           0.7006    9.1420   -5.2648 N.2     1  UNL1       -0.2369
     34 C           1.0528    7.9948   -4.3565 C.3     1  UNL1        0.1661
     35 C           3.4142    2.0932    0.9401 C.ar    1  UNL1       -0.0200
     36 H           0.5605   -0.9808   -0.0609 H       1  UNL1        0.0233
     37 H           0.5628    0.6757    0.5449 H       1  UNL1        0.0233
     38 H           0.7083   -0.6264    1.6425 H       1  UNL1        0.0233
     39 H           2.9372   -0.0520   -0.5211 H       1  UNL1        0.0311
     40 H           2.9554   -1.2784    0.6743 H       1  UNL1        0.0311
     41 H           3.4195   -0.5549    3.0222 H       1  UNL1        0.0620
     42 H           3.5435    1.3120    4.6517 H       1  UNL1        0.0619
     43 H           3.3187    3.6679    3.9053 H       1  UNL1        0.0652
     44 H           2.8268    5.1927    1.9928 H       1  UNL1        0.2646
     45 H           0.4077    0.6080   -1.4043 H       1  UNL1        0.0662
     46 H           1.2226   -3.7109   -2.6328 H       1  UNL1        0.0660
     47 H           2.6170   -2.9082   -3.3533 H       1  UNL1        0.0660
     48 H           0.9757   -2.7337   -4.0841 H       1  UNL1        0.0660
     49 H           2.5815   -0.9617   -4.6401 H       1  UNL1        0.0691
     50 H           4.8517    2.5242   -6.2639 H       1  UNL1        0.0660
     51 H           5.1522    2.5750   -4.5133 H       1  UNL1        0.0660
     52 H           3.6351    3.2669   -5.2163 H       1  UNL1        0.0660
     53 H           3.5308    2.9562   -3.0244 H       1  UNL1        0.0662
     54 H           2.2217    6.8578    0.5440 H       1  UNL1        0.2577
     55 H           0.8852    6.1868   -1.7693 H       1  UNL1        0.0658
     56 H           2.5624    6.4001   -2.3244 H       1  UNL1        0.0658
     57 H           2.5308    8.6922   -1.3611 H       1  UNL1        0.0343
     58 H           0.8237    8.4773   -0.9779 H       1  UNL1        0.0343
     59 H           1.4211   10.8606   -1.2385 H       1  UNL1        0.0626
     60 H           0.6227   13.0728   -1.8849 H       1  UNL1        0.0618
     61 H           0.0961   13.5997   -4.2191 H       1  UNL1        0.0620
     62 H           0.0204   11.8866   -5.9944 H       1  UNL1        0.0683
     63 H           0.5201    9.1063   -6.2688 H       1  UNL1        0.4459
     64 H           1.9646    7.5193   -4.7284 H       1  UNL1        0.1077
     65 H           0.2135    7.2913   -4.3514 H       1  UNL1        0.1077
     66 H           3.6313    2.2573   -0.1023 H       1  UNL1        0.0655
@<TRIPOS>UNITY_ATOM_ATTR
33 1
charge 1
@<TRIPOS>BOND
     1     1     2    1
     2     2     3    1
     3     3     4   ar
     4     4     5   ar
     5     5     6   ar
     6     6     7   ar
     7     7     8    1
     8     8     9    1
     9     9    10    2
    10    10    11    1
    11    11    12    2
    12    11    13    1
    13    13    14   ar
    14    14    15   ar
    15    15    16    1
    16    16    17    1
    17    15    18   ar
    18    18    19   ar
    19    19    20    1
    20    20    21    1
    21    19    22   ar
    22    13    22   ar
    23     9    23    1
    24    23    24    1
    25    24    25    1
    26    25    26    1
    27    26    27    2
    28    27    28   ar
    29    28    29   ar
    30    29    30   ar
    31    30    31   ar
    32    31    32   ar
    33    27    32   ar
    34    32    33    2
    35    33    34    1
    36    26    34    1
    37     7    35   ar
    38     3    35   ar
    39     1    36    1
    40     1    37    1
    41     1    38    1
    42     2    39    1
    43     2    40    1
    44     4    41    1
    45     5    42    1
    46     6    43    1
    47     8    44    1
    48    14    45    1
    49    17    46    1
    50    17    47    1
    51    17    48    1
    52    18    49    1
    53    21    50    1
    54    21    51    1
    55    21    52    1
    56    22    53    1
    57    23    54    1
    58    24    55    1
    59    24    56    1
    60    25    57    1
    61    25    58    1
    62    28    59    1
    63    29    60    1
    64    30    61    1
    65    31    62    1
    66    33    63    1
    67    34    64    1
    68    34    65    1
    69    35    66    1
