REMARK  7 active torsions:
REMARK  status: ('A' for Active; 'I' for Inactive)
REMARK    1  A    between atoms: O_2  and  C_3 
REMARK    2  A    between atoms: C_3  and  C_5 
REMARK    3  A    between atoms: C_10  and  N_11 
REMARK       I    between atoms: N_11  and  C_12 
REMARK    4  A    between atoms: C_12  and  C_14 
REMARK    5  A    between atoms: C_14  and  S_15 
REMARK    6  A    between atoms: S_15  and  C_16 
REMARK    7  A    between atoms: C_19  and  C_20 
ROOT
ATOM      1  C   UNL d   1      -0.301   0.994   4.094  0.00  0.00     0.172 A 
ATOM      2  N   UNL d   1      -0.949   0.119   4.806  0.00  0.00    -0.221 NA
ATOM      3  C   UNL d   1      -1.667   0.654   5.871  0.00  0.00     0.104 A 
ATOM      4  C   UNL d   1      -2.471  -0.011   6.824  0.00  0.00     0.021 A 
ATOM      5  C   UNL d   1      -2.856   0.967   7.731  0.00  0.00     0.103 A 
ATOM      6  N   UNL d   1      -2.364   2.179   7.302  0.00  0.00    -0.359 N 
ATOM      7  C   UNL d   1      -1.650   1.986   6.151  0.00  0.00     0.131 A 
ATOM      8  C   UNL d   1      -0.965   2.955   5.357  0.00  0.00     0.278 A 
ATOM      9  O   UNL d   1      -0.964   4.144   5.625  0.00  0.00    -0.265 OA
ATOM     10  N   UNL d   1      -0.296   2.381   4.270  0.00  0.00    -0.296 N 
ATOM     11  C   UNL d   1       0.354   3.300   3.342  0.00  0.00     0.162 C 
ATOM     12  H   UNL d   1      -2.482   3.069   7.772  0.00  0.00     0.165 HD
ENDROOT
BRANCH   1  13
ATOM     13  S   UNL d   1       0.542   0.343   2.718  0.00  0.00    -0.082 SA
BRANCH  13  14
ATOM     14  C   UNL d   1       2.329   0.308   3.121  0.00  0.00     0.185 C 
BRANCH  14  15
ATOM     15  C   UNL d   1       3.085  -0.552   2.085  0.00  0.00     0.231 C 
ATOM     16  N   UNL d   1       4.404  -0.228   1.781  0.00  0.00    -0.326 N 
ATOM     17  H   UNL d   1       4.990   0.035   2.565  0.00  0.00     0.169 HD
ATOM     18  O   UNL d   1       2.561  -1.563   1.621  0.00  0.00    -0.272 OA
BRANCH  16  19
ATOM     19  C   UNL d   1       5.092  -0.712   0.608  0.00  0.00     0.051 A 
ATOM     20  C   UNL d   1       6.501  -0.862   0.690  0.00  0.00     0.030 A 
ATOM     21  C   UNL d   1       7.260  -1.333  -0.398  0.00  0.00     0.002 A 
ATOM     22  C   UNL d   1       6.633  -1.665  -1.592  0.00  0.00     0.001 A 
ATOM     23  C   UNL d   1       5.256  -1.482  -1.713  0.00  0.00     0.020 A 
ATOM     24  C   UNL d   1       4.475  -1.028  -0.628  0.00  0.00     0.066 A 
BRANCH  24  25
ATOM     25  C   UNL d   1       3.010  -1.058  -0.883  0.00  0.00     0.295 C 
ATOM     26  O   UNL d   1       2.456  -2.053  -1.329  0.00  0.00    -0.259 OA
BRANCH  25  27
ATOM     27  O   UNL d   1       2.408   0.123  -0.583  0.00  0.00    -0.322 OA
ATOM     28  C   UNL d   1       0.990  -0.001  -0.396  0.00  0.00     0.213 C 
ENDBRANCH  25  27
ENDBRANCH  24  25
ENDBRANCH  16  19
ENDBRANCH  14  15
ENDBRANCH  13  14
ENDBRANCH   1  13
BRANCH   4  29
ATOM     29  C   UNL d   1      -2.791  -1.413   7.020  0.00  0.00    -0.022 A 
ATOM     30  C   UNL d   1      -4.122  -1.838   7.145  0.00  0.00     0.012 A 
ATOM     31  C   UNL d   1      -4.411  -3.172   7.449  0.00  0.00     0.001 A 
ATOM     32  C   UNL d   1      -3.379  -4.103   7.554  0.00  0.00     0.000 A 
ATOM     33  C   UNL d   1      -2.054  -3.690   7.413  0.00  0.00     0.001 A 
ATOM     34  C   UNL d   1      -1.762  -2.349   7.155  0.00  0.00     0.012 A 
ENDBRANCH   4  29
TORSDOF 7
