@<TRIPOS>MOLECULE
*****
 36 37 0 0 0
SMALL
GASTEIGER

@<TRIPOS>ATOM
      1 C           1.1126    0.0745    0.0004 C.3     1  UNL1        0.0833
      2 O           2.5520    0.0642    0.0088 O.3     1  UNL1       -0.4535
      3 C           3.0785   -1.1745   -0.2052 C.2     1  UNL1        0.4043
      4 O           2.3754   -2.1689   -0.3973 O.2     1  UNL1       -0.2261
      5 N           4.4570   -1.1730   -0.1292 N.am    1  UNL1       -0.2512
      6 C           5.2450   -2.3183   -0.3906 C.ar    1  UNL1        0.0365
      7 C           6.4242   -2.5895    0.3079 C.ar    1  UNL1       -0.0401
      8 C           7.1928   -3.7372   -0.0091 C.ar    1  UNL1       -0.0553
      9 C           6.7810   -4.6468   -1.0088 C.ar    1  UNL1       -0.0302
     10 C           7.5345   -5.9511   -1.2443 C.3     1  UNL1        0.0383
     11 N           6.9758   -6.8392   -2.2708 N.am    1  UNL1       -0.2950
     12 C           7.5180   -8.0803   -2.5248 C.2     1  UNL1        0.3042
     13 O           8.5144   -8.4775   -1.9306 O.2     1  UNL1       -0.2525
     14 N           6.8520   -8.7725   -3.5315 N.am    1  UNL1       -0.2668
     15 C           7.3420   -9.9882   -4.0017 C.ar    1  UNL1        0.0722
     16 C           7.4899  -10.4480   -5.3322 C.ar    1  UNL1        0.0704
     17 N           8.0253  -11.6733   -5.3976 N.ar    1  UNL1       -0.1804
     18 N           8.2026  -12.0056   -4.1066 N.ar    1  UNL1       -0.2829
     19 C           7.7897  -11.0393   -3.2383 C.ar    1  UNL1        0.0436
     20 C           5.6278   -4.3160   -1.7225 C.ar    1  UNL1       -0.0553
     21 C           4.8703   -3.1873   -1.4104 C.ar    1  UNL1       -0.0401
     22 H           0.7605    1.0967    0.1685 H       1  UNL1        0.0661
     23 H           0.7181   -0.5553    0.8065 H       1  UNL1        0.0661
     24 H           0.7202   -0.2634   -0.9665 H       1  UNL1        0.0661
     25 H           4.9053   -0.3272    0.1976 H       1  UNL1        0.1582
     26 H           6.7234   -1.9736    1.1544 H       1  UNL1        0.0636
     27 H           8.1123   -3.9192    0.5495 H       1  UNL1        0.0621
     28 H           7.5499   -6.5167   -0.3034 H       1  UNL1        0.0512
     29 H           8.5739   -5.7363   -1.5204 H       1  UNL1        0.0512
     30 H           6.1149   -6.6027   -2.7272 H       1  UNL1        0.1506
     31 H           6.2528   -8.2561   -4.1577 H       1  UNL1        0.1565
     32 H           7.2867   -9.9346   -6.2626 H       1  UNL1        0.0867
     33 H           8.6026  -12.9131   -3.8892 H       1  UNL1        0.1883
     34 H           7.8377  -11.1847   -2.1695 H       1  UNL1        0.0843
     35 H           5.2644   -4.9155   -2.5453 H       1  UNL1        0.0621
     36 H           3.9854   -2.9913   -2.0087 H       1  UNL1        0.0636
@<TRIPOS>BOND
     1     1     2    1
     2     2     3    1
     3     3     4    2
     4     3     5   am
     5     5     6    1
     6     6     7   ar
     7     7     8   ar
     8     8     9   ar
     9     9    10    1
    10    10    11    1
    11    11    12   am
    12    12    13    2
    13    12    14   am
    14    14    15    1
    15    15    16   ar
    16    16    17   ar
    17    17    18   ar
    18    18    19   ar
    19    15    19   ar
    20     9    20   ar
    21    20    21   ar
    22     6    21   ar
    23     1    22    1
    24     1    23    1
    25     1    24    1
    26     5    25    1
    27     7    26    1
    28     8    27    1
    29    10    28    1
    30    10    29    1
    31    11    30    1
    32    14    31    1
    33    16    32    1
    34    18    33    1
    35    19    34    1
    36    20    35    1
    37    21    36    1
