@<TRIPOS>MOLECULE
*****
 48 51 0 0 0
SMALL
GASTEIGER

@<TRIPOS>ATOM
      1 O           1.0080    0.2009   -0.0046 O.2     1  UNL1       -0.2746
      2 C           2.2319    0.0576    0.0337 C.2     1  UNL1        0.2275
      3 C           2.9212   -1.2590    0.4600 C.3     1  UNL1        0.0779
      4 S           1.7396   -2.5292    0.9602 S.3     1  UNL1       -0.0785
      5 C           2.6554   -3.9909    1.2007 C.ar    1  UNL1        0.1699
      6 N           2.0667   -5.1158    0.9651 N.ar    1  UNL1       -0.2232
      7 C           2.7480   -6.3043    1.2691 C.ar    1  UNL1        0.0790
      8 C           2.1021   -7.5250    1.0581 C.ar    1  UNL1       -0.0355
      9 C           2.7388   -8.7314    1.3647 C.ar    1  UNL1       -0.0597
     10 C           4.0351   -8.7266    1.8810 C.ar    1  UNL1       -0.0609
     11 C           4.6931   -7.5144    2.0982 C.ar    1  UNL1       -0.0474
     12 C           4.0390   -6.3131    1.7986 C.ar    1  UNL1        0.0647
     13 C           4.6721   -5.0019    2.0422 C.ar    1  UNL1        0.2598
     14 O           5.7886   -4.9027    2.5273 O.2     1  UNL1       -0.2671
     15 N           3.9200   -3.8966    1.7052 N.ar    1  UNL1       -0.3014
     16 N           3.0132    1.1673   -0.2303 N.am    1  UNL1       -0.2833
     17 C           4.4188    1.2578   -0.2275 C.ar    1  UNL1        0.0561
     18 C           5.1483    0.2494   -0.8798 C.ar    1  UNL1       -0.0386
     19 C           6.5313    0.2440   -0.8872 C.ar    1  UNL1       -0.0585
     20 C           7.2021    1.2851   -0.2766 C.ar    1  UNL1       -0.0415
     21 C           6.4918    2.3445    0.3117 C.ar    1  UNL1        0.0638
     22 CL          7.5011    3.5243    1.0761 Cl      1  UNL1       -0.0816
     23 C           5.0713    2.3914    0.3308 C.ar    1  UNL1        0.0699
     24 N           4.3388    3.4644    0.8309 N.pl3   1  UNL1       -0.3230
     25 C           4.6170    4.8457    0.3978 C.3     1  UNL1        0.0358
     26 C           5.0315    5.7371    1.5825 C.3     1  UNL1        0.0634
     27 O           4.0689    5.6753    2.6469 O.3     1  UNL1       -0.3767
     28 C           3.9544    4.3214    3.1226 C.3     1  UNL1        0.0634
     29 C           3.4582    3.3736    2.0101 C.3     1  UNL1        0.0358
     30 H           3.5830   -1.0378    1.3035 H       1  UNL1        0.0475
     31 H           3.4858   -1.6731   -0.3720 H       1  UNL1        0.0475
     32 H           1.0920   -7.5324    0.6556 H       1  UNL1        0.0639
     33 H           2.2204   -9.6732    1.1977 H       1  UNL1        0.0618
     34 H           4.5291   -9.6674    2.1148 H       1  UNL1        0.0618
     35 H           5.7044   -7.5092    2.4981 H       1  UNL1        0.0626
     36 H           4.3321   -3.0088    1.9350 H       1  UNL1        0.1709
     37 H           2.5032    2.0457   -0.2640 H       1  UNL1        0.1549
     38 H           4.6464   -0.5138   -1.4655 H       1  UNL1        0.0637
     39 H           7.0741   -0.5583   -1.3785 H       1  UNL1        0.0619
     40 H           8.2897    1.2832   -0.2753 H       1  UNL1        0.0633
     41 H           3.6787    5.2401   -0.0121 H       1  UNL1        0.0486
     42 H           5.3568    4.8904   -0.4080 H       1  UNL1        0.0486
     43 H           5.1111    6.7776    1.2527 H       1  UNL1        0.0575
     44 H           6.0034    5.4637    1.9976 H       1  UNL1        0.0575
     45 H           3.2452    4.3322    3.9567 H       1  UNL1        0.0575
     46 H           4.9257    3.9962    3.5142 H       1  UNL1        0.0575
     47 H           2.4586    3.7055    1.7007 H       1  UNL1        0.0486
     48 H           3.3723    2.3541    2.3985 H       1  UNL1        0.0486
@<TRIPOS>BOND
     1     1     2    2
     2     2     3    1
     3     3     4    1
     4     4     5    1
     5     5     6   ar
     6     6     7   ar
     7     7     8   ar
     8     8     9   ar
     9     9    10   ar
    10    10    11   ar
    11    11    12   ar
    12     7    12   ar
    13    12    13   ar
    14    13    14    2
    15    13    15   ar
    16     5    15   ar
    17     2    16   am
    18    16    17    1
    19    17    18   ar
    20    18    19   ar
    21    19    20   ar
    22    20    21   ar
    23    21    22    1
    24    21    23   ar
    25    17    23   ar
    26    23    24    1
    27    24    25    1
    28    25    26    1
    29    26    27    1
    30    27    28    1
    31    28    29    1
    32    24    29    1
    33     3    30    1
    34     3    31    1
    35     8    32    1
    36     9    33    1
    37    10    34    1
    38    11    35    1
    39    15    36    1
    40    16    37    1
    41    18    38    1
    42    19    39    1
    43    20    40    1
    44    25    41    1
    45    25    42    1
    46    26    43    1
    47    26    44    1
    48    28    45    1
    49    28    46    1
    50    29    47    1
    51    29    48    1
