@<TRIPOS>MOLECULE
*****
 51 51 0 0 0
SMALL
GASTEIGER

@<TRIPOS>ATOM
      1 C          22.3830   -7.5497   -2.0620 C.1     1  UNL1       -0.1176
      2 C          21.9530   -6.4232   -1.9821 C.1     1  UNL1       -0.0866
      3 C          21.4648   -5.0441   -1.8360 C.3     1  UNL1        0.0732
      4 N          20.4906   -4.6925   -2.8640 N.am    1  UNL1       -0.3044
      5 C          19.9159   -3.4318   -2.8912 C.2     1  UNL1        0.2152
      6 O          20.2103   -2.5804   -2.0558 O.2     1  UNL1       -0.2757
      7 C          18.8981   -3.1574   -4.0159 C.3     1  UNL1        0.0396
      8 C          18.3268   -1.7171   -3.9427 C.3     1  UNL1        0.0213
      9 N          17.3401   -1.3530   -4.9900 N.am    1  UNL1       -0.2978
     10 C          16.7414   -0.0973   -5.0220 C.2     1  UNL1        0.3160
     11 O          17.0025    0.7910   -4.2144 O.2     1  UNL1       -0.2513
     12 N          15.8112    0.0950   -6.0408 N.am    1  UNL1       -0.2181
     13 N          15.0759    1.3419   -6.1074 N.am    1  UNL1       -0.2301
     14 C          14.1552    1.5526   -7.1390 C.2     1  UNL1        0.2696
     15 O          13.8606    0.6534   -7.9316 O.2     1  UNL1       -0.2702
     16 C          13.6337    3.0252   -7.3118 C.3     1  UNL1        0.1741
     17 C          12.1144    2.9735   -7.0766 C.3     1  UNL1       -0.0190
     18 O          13.8215    3.6976   -8.5704 O.3     1  UNL1       -0.4798
     19 C          15.1014    3.8210   -9.0411 C.ar    1  UNL1        0.1218
     20 C          15.4368    4.9622   -9.7707 C.ar    1  UNL1       -0.0165
     21 C          16.7007    5.0608  -10.3899 C.ar    1  UNL1       -0.0165
     22 C          17.6717    4.0710  -10.2052 C.ar    1  UNL1        0.1207
     23 O          18.9147    4.2874  -10.7374 O.3     1  UNL1       -0.4922
     24 C          19.9068    3.2995  -10.4189 C.3     1  UNL1        0.0868
     25 C          21.2426    3.7333  -10.9874 C.3     1  UNL1       -0.0307
     26 C          17.3246    2.9387   -9.4933 C.ar    1  UNL1       -0.0165
     27 C          16.0558    2.8176   -8.9452 C.ar    1  UNL1       -0.0165
     28 H          22.7683   -8.5410   -2.1234 H       1  UNL1        0.1228
     29 H          22.3041   -4.3409   -1.8941 H       1  UNL1        0.0599
     30 H          20.9988   -4.9130   -0.8522 H       1  UNL1        0.0599
     31 H          20.2518   -5.3969   -3.5478 H       1  UNL1        0.1496
     32 H          18.0813   -3.8835   -3.9345 H       1  UNL1        0.0374
     33 H          19.3931   -3.3093   -4.9817 H       1  UNL1        0.0374
     34 H          19.1487   -0.9931   -4.0041 H       1  UNL1        0.0467
     35 H          17.8450   -1.5633   -2.9688 H       1  UNL1        0.0467
     36 H          17.0774   -2.0472   -5.6727 H       1  UNL1        0.1503
     37 H          15.5704   -0.5992   -6.7418 H       1  UNL1        0.1744
     38 H          15.4225    2.0878   -5.5042 H       1  UNL1        0.1729
     39 H          14.0654    3.6730   -6.5396 H       1  UNL1        0.0829
     40 H          11.6200    2.3441   -7.8276 H       1  UNL1        0.0270
     41 H          11.6539    3.9657   -7.1549 H       1  UNL1        0.0270
     42 H          11.8835    2.5590   -6.0898 H       1  UNL1        0.0270
     43 H          14.7298    5.7840   -9.8653 H       1  UNL1        0.0655
     44 H          16.9221    5.9125  -11.0280 H       1  UNL1        0.0655
     45 H          19.6314    2.3384  -10.8701 H       1  UNL1        0.0694
     46 H          20.0130    3.1817   -9.3315 H       1  UNL1        0.0694
     47 H          21.1651    3.8880  -12.0673 H       1  UNL1        0.0262
     48 H          22.0097    2.9771  -10.7923 H       1  UNL1        0.0262
     49 H          21.5623    4.6802  -10.5420 H       1  UNL1        0.0262
     50 H          17.9931    2.0975   -9.3559 H       1  UNL1        0.0655
     51 H          15.8770    1.8646   -8.4871 H       1  UNL1        0.0655
@<TRIPOS>BOND
     1     1     2    3
     2     2     3    1
     3     3     4    1
     4     4     5   am
     5     5     6    2
     6     5     7    1
     7     7     8    1
     8     8     9    1
     9     9    10   am
    10    10    11    2
    11    10    12   am
    12    12    13    1
    13    13    14   am
    14    14    15    2
    15    16    18    1
    16    18    19    1
    17    19    20   ar
    18    20    21   ar
    19    21    22   ar
    20    22    23    1
    21    23    24    1
    22    24    25    1
    23    22    26   ar
    24    26    27   ar
    25    19    27   ar
    26    16    17    1
    27    16    14    1
    28     1    28    1
    29     3    29    1
    30     3    30    1
    31     4    31    1
    32     7    32    1
    33     7    33    1
    34     8    34    1
    35     8    35    1
    36     9    36    1
    37    12    37    1
    38    13    38    1
    39    16    39    1
    40    17    40    1
    41    17    41    1
    42    17    42    1
    43    20    43    1
    44    21    44    1
    45    24    45    1
    46    24    46    1
    47    25    47    1
    48    25    48    1
    49    25    49    1
    50    26    50    1
    51    27    51    1
