@<TRIPOS>MOLECULE
*****
 40 41 0 0 0
SMALL
GASTEIGER

@<TRIPOS>ATOM
      1 O           1.0204   -0.0360   -0.0410 O.2     1  UNL1       -0.2708
      2 C           2.2504   -0.0593    0.0136 C.2     1  UNL1        0.2373
      3 C           2.9710   -0.3523    1.2787 C.2     1  UNL1        0.0007
      4 C           2.3240   -0.6220    2.4262 C.2     1  UNL1       -0.0497
      5 C           3.0278   -0.8478    3.7014 C.ar    1  UNL1       -0.0249
      6 C           2.5717   -1.8162    4.6056 C.ar    1  UNL1       -0.0546
      7 C           3.1512   -1.9313    5.8755 C.ar    1  UNL1       -0.0612
      8 C           4.2338   -1.1275    6.2284 C.ar    1  UNL1       -0.0617
      9 C           4.7115   -0.1788    5.3295 C.ar    1  UNL1       -0.0612
     10 C           4.1029   -0.0312    4.0813 C.ar    1  UNL1       -0.0546
     11 N           3.0036    0.1939   -1.1001 N.am    1  UNL1       -0.3032
     12 C           4.4632    0.2241   -1.2469 C.3     1  UNL1        0.0898
     13 C           4.9389    0.5408   -2.6861 C.2     1  UNL1        0.2463
     14 O           4.1500    0.7457   -3.6115 O.2     1  UNL1       -0.2726
     15 N           6.3180    0.5889   -2.8692 N.am    1  UNL1       -0.2328
     16 N           6.8372    0.9004   -4.1612 N.am    1  UNL1       -0.2291
     17 C           8.2180    0.8921   -4.3774 C.2     1  UNL1        0.2784
     18 O           9.0151    0.6593   -3.4686 O.2     1  UNL1       -0.2670
     19 C           8.6835    1.1965   -5.7871 C.ar    1  UNL1        0.1268
     20 C           8.1120    2.2413   -6.5086 C.ar    1  UNL1       -0.0311
     21 C           8.5538    2.4807   -7.8129 C.ar    1  UNL1       -0.0582
     22 C           9.5561    1.6852   -8.3558 C.ar    1  UNL1       -0.0436
     23 C          10.0939    0.6868   -7.5597 C.ar    1  UNL1        0.0284
     24 N           9.6839    0.4231   -6.2926 N.ar    1  UNL1       -0.2503
     25 H           4.0494   -0.3363    1.2574 H       1  UNL1        0.0669
     26 H           1.2358   -0.6485    2.4675 H       1  UNL1        0.0625
     27 H           1.7618   -2.4907    4.3355 H       1  UNL1        0.0623
     28 H           2.7490   -2.6388    6.5969 H       1  UNL1        0.0618
     29 H           4.7007   -1.2356    7.2042 H       1  UNL1        0.0618
     30 H           5.5409    0.4664    5.6063 H       1  UNL1        0.0618
     31 H           4.4668    0.7469    3.4159 H       1  UNL1        0.0623
     32 H           2.4538    0.3800   -1.9358 H       1  UNL1        0.1495
     33 H           4.8433   -0.7562   -0.9450 H       1  UNL1        0.0558
     34 H           4.8431    0.9912   -0.5649 H       1  UNL1        0.0558
     35 H           7.0097    0.4090   -2.1414 H       1  UNL1        0.1728
     36 H           6.1531    0.9827   -4.9116 H       1  UNL1        0.1732
     37 H           7.3571    2.8809   -6.0674 H       1  UNL1        0.0640
     38 H           8.1229    3.2871   -8.4018 H       1  UNL1        0.0619
     39 H           9.9128    1.8443   -9.3698 H       1  UNL1        0.0633
     40 H          10.8932    0.0528   -7.9394 H       1  UNL1        0.0830
@<TRIPOS>BOND
     1     1     2    2
     2     2     3    1
     3     3     4    2
     4     4     5    1
     5     5     6   ar
     6     6     7   ar
     7     7     8   ar
     8     8     9   ar
     9     9    10   ar
    10     5    10   ar
    11     2    11   am
    12    11    12    1
    13    12    13    1
    14    13    14    2
    15    13    15   am
    16    15    16    1
    17    16    17   am
    18    17    18    2
    19    17    19    1
    20    19    20   ar
    21    20    21   ar
    22    21    22   ar
    23    22    23   ar
    24    23    24   ar
    25    19    24   ar
    26     3    25    1
    27     4    26    1
    28     6    27    1
    29     7    28    1
    30     8    29    1
    31     9    30    1
    32    10    31    1
    33    11    32    1
    34    12    33    1
    35    12    34    1
    36    15    35    1
    37    16    36    1
    38    20    37    1
    39    21    38    1
    40    22    39    1
    41    23    40    1
