@<TRIPOS>MOLECULE
*****
 67 69 0 0 0
SMALL
GASTEIGER

@<TRIPOS>ATOM
      1 C           8.9611    4.4557    6.7372 C.3     1  UNL1       -0.0653
      2 C           9.1294    3.6436    5.4608 C.3     1  UNL1       -0.0552
      3 C          10.0842    4.3390    4.4892 C.3     1  UNL1       -0.0438
      4 C          10.2621    3.5446    3.1904 C.3     1  UNL1        0.0011
      5 S          11.3662    4.4895    2.0888 S.3     1  UNL1       -0.0860
      6 C          11.4636    3.4096    0.6929 C.ar    1  UNL1        0.1896
      7 N          10.5841    3.5440   -0.3097 N.ar    1  UNL1       -0.2295
      8 C          10.8204    2.8357   -1.4475 C.ar    1  UNL1        0.0455
      9 C          11.9107    2.0141   -1.6435 C.ar    1  UNL1        0.0916
     10 C          12.0506    1.2906   -2.9433 C.2     1  UNL1        0.2487
     11 O          11.1705    1.3805   -3.8008 O.2     1  UNL1       -0.2700
     12 N          13.1673    0.5136   -3.1538 N.am    1  UNL1       -0.3055
     13 C          13.3488   -0.3778   -4.3119 C.3     1  UNL1        0.0592
     14 C          13.9340   -1.8011   -3.9818 C.3     1  UNL1        0.0209
     15 C          13.3458   -2.4009   -2.7216 C.ar    1  UNL1        0.0054
     16 C          13.7392   -1.9195   -1.4700 C.ar    1  UNL1       -0.0495
     17 C          13.4993   -2.5855   -0.2921 C.ar    1  UNL1       -0.0159
     18 C          12.7720   -3.7562   -0.3263 C.ar    1  UNL1        0.1615
     19 O          12.5821   -4.2641    0.9267 O.3     1  UNL1       -0.4915
     20 C          11.7075   -5.3727    1.0252 C.3     1  UNL1        0.0790
     21 C          12.3512   -4.2761   -1.5691 C.ar    1  UNL1        0.1619
     22 O          11.7449   -5.4975   -1.5694 O.3     1  UNL1       -0.4914
     23 C          11.3586   -6.0570   -2.8098 C.3     1  UNL1        0.0790
     24 C          12.6213   -3.5827   -2.7583 C.ar    1  UNL1       -0.0078
     25 N          15.5152   -1.8446   -3.9268 N.4     1  UNL1        0.2418
     26 C          16.1397   -0.5690   -3.4000 C.3     1  UNL1       -0.0313
     27 C          17.6338   -0.6754   -3.2252 C.3     1  UNL1       -0.0123
     28 C          17.9557   -1.8594   -2.3343 C.3     1  UNL1       -0.0434
     29 C          17.5435   -3.1207   -3.0747 C.3     1  UNL1       -0.0123
     30 C          16.0355   -3.1409   -3.2418 C.3     1  UNL1       -0.0313
     31 C          12.7456    1.9920   -0.5432 C.ar    1  UNL1        0.1456
     32 CL         14.2875    1.2412   -0.4689 Cl      1  UNL1       -0.0611
     33 N          12.5468    2.6426    0.6187 N.ar    1  UNL1       -0.2095
     34 H           8.2749    3.9510    7.4242 H       1  UNL1        0.0230
     35 H           8.5541    5.4484    6.5187 H       1  UNL1        0.0230
     36 H           9.9206    4.5847    7.2486 H       1  UNL1        0.0230
     37 H           8.1494    3.5082    4.9891 H       1  UNL1        0.0263
     38 H           9.5116    2.6483    5.7148 H       1  UNL1        0.0263
     39 H          11.0550    4.4753    4.9843 H       1  UNL1        0.0273
     40 H           9.6914    5.3395    4.2654 H       1  UNL1        0.0273
     41 H           9.2948    3.4055    2.6979 H       1  UNL1        0.0381
     42 H          10.6861    2.5580    3.4098 H       1  UNL1        0.0381
     43 H          10.0772    2.9892   -2.2290 H       1  UNL1        0.0839
     44 H          13.8704    0.5468   -2.4321 H       1  UNL1        0.1492
     45 H          13.9976    0.1408   -5.0252 H       1  UNL1        0.0522
     46 H          12.3821   -0.5033   -4.8144 H       1  UNL1        0.0522
     47 H          13.7015   -2.4490   -4.8408 H       1  UNL1        0.0920
     48 H          14.3754   -1.0690   -1.3743 H       1  UNL1        0.0623
     49 H          13.9288   -2.2039    0.6325 H       1  UNL1        0.0655
     50 H          11.5378   -5.5830    2.0814 H       1  UNL1        0.0660
     51 H          12.1854   -6.2529    0.5865 H       1  UNL1        0.0660
     52 H          10.7348   -5.1510    0.5715 H       1  UNL1        0.0660
     53 H          10.8841   -7.0163   -2.5993 H       1  UNL1        0.0660
     54 H          12.2353   -6.2392   -3.4403 H       1  UNL1        0.0660
     55 H          10.6294   -5.4127   -3.3099 H       1  UNL1        0.0660
     56 H          12.3289   -3.9879   -3.7222 H       1  UNL1        0.0660
     57 H          15.8115   -1.9276   -4.9081 H       1  UNL1        0.2040
     58 H          15.7239   -0.3591   -2.4248 H       1  UNL1        0.0814
     59 H          15.8899    0.2515   -4.0752 H       1  UNL1        0.0814
     60 H          18.0024    0.2459   -2.7617 H       1  UNL1        0.0317
     61 H          18.1180   -0.7747   -4.2015 H       1  UNL1        0.0317
     62 H          17.4062   -1.7804   -1.3835 H       1  UNL1        0.0269
     63 H          19.0196   -1.8767   -2.0891 H       1  UNL1        0.0269
     64 H          17.8655   -3.9973   -2.5006 H       1  UNL1        0.0317
     65 H          18.0303   -3.1709   -4.0534 H       1  UNL1        0.0317
     66 H          15.6190   -3.2151   -2.2377 H       1  UNL1        0.0814
     67 H          15.6937   -4.0005   -3.8291 H       1  UNL1        0.0814
@<TRIPOS>UNITY_ATOM_ATTR
25 1
charge 1
@<TRIPOS>BOND
     1     1     2    1
     2     2     3    1
     3     3     4    1
     4     4     5    1
     5     5     6    1
     6     6     7   ar
     7     7     8   ar
     8     8     9   ar
     9     9    10    1
    10    10    11    2
    11    10    12   am
    12    12    13    1
    13    15    16   ar
    14    16    17   ar
    15    17    18   ar
    16    18    19    1
    17    19    20    1
    18    18    21   ar
    19    21    22    1
    20    22    23    1
    21    21    24   ar
    22    15    24   ar
    23    14    25    1
    24    25    26    1
    25    26    27    1
    26    27    28    1
    27    28    29    1
    28    29    30    1
    29    25    30    1
    30     9    31   ar
    31    31    32    1
    32    31    33   ar
    33     6    33   ar
    34    14    15    1
    35    14    13    1
    36     1    34    1
    37     1    35    1
    38     1    36    1
    39     2    37    1
    40     2    38    1
    41     3    39    1
    42     3    40    1
    43     4    41    1
    44     4    42    1
    45     8    43    1
    46    12    44    1
    47    13    45    1
    48    13    46    1
    49    14    47    1
    50    16    48    1
    51    17    49    1
    52    20    50    1
    53    20    51    1
    54    20    52    1
    55    23    53    1
    56    23    54    1
    57    23    55    1
    58    24    56    1
    59    25    57    1
    60    26    58    1
    61    26    59    1
    62    27    60    1
    63    27    61    1
    64    28    62    1
    65    28    63    1
    66    29    64    1
    67    29    65    1
    68    30    66    1
    69    30    67    1
