@<TRIPOS>MOLECULE
*****
 55 58 0 0 0
SMALL
GASTEIGER

@<TRIPOS>ATOM
      1 C           0.9440   -0.0385   -0.0295 C.3     1  UNL1        0.0788
      2 O           2.3564    0.0835    0.0013 O.3     1  UNL1       -0.4951
      3 C           3.0135   -0.7595    0.8499 C.ar    1  UNL1        0.1202
      4 C           4.2214   -0.2597    1.3361 C.ar    1  UNL1       -0.0181
      5 C           5.0537   -1.0955    2.0568 C.ar    1  UNL1       -0.0314
      6 C           4.6202   -2.4013    2.3512 C.ar    1  UNL1        0.1127
      7 S           5.6446   -3.3364    3.4018 S.O2    1  UNL1        0.0992
      8 O           6.8384   -3.4971    2.5937 O.2     1  UNL1       -0.1463
      9 O           5.6238   -2.5240    4.6048 O.2     1  UNL1       -0.1463
     10 N           5.0303   -4.8150    3.7545 N.2     1  UNL1       -0.1288
     11 C           5.5622   -5.6413    4.6224 C.2     1  UNL1        0.0914
     12 C           4.8846   -6.9667    4.8152 C.2     1  UNL1       -0.0084
     13 C           5.2682   -7.9286    5.6797 C.2     1  UNL1        0.0935
     14 N           4.6449   -9.1538    5.8497 N.pl3   1  UNL1       -0.2606
     15 N           3.4399   -9.5108    5.2660 N.am    1  UNL1       -0.2323
     16 C           2.8893  -10.7485    5.5029 C.2     1  UNL1        0.2636
     17 O           3.2798  -11.5438    6.3617 O.2     1  UNL1       -0.2685
     18 C           1.7201  -11.0764    4.6435 C.ar    1  UNL1        0.0795
     19 C           0.6134  -11.7023    5.2299 C.ar    1  UNL1       -0.0460
     20 C          -0.4484  -12.1370    4.4333 C.ar    1  UNL1       -0.0608
     21 C          -0.4364  -11.8960    3.0591 C.ar    1  UNL1       -0.0583
     22 C           0.6474  -11.2409    2.4705 C.ar    1  UNL1       -0.0194
     23 C           1.7185  -10.8238    3.2634 C.ar    1  UNL1        0.1290
     24 O           2.7655  -10.1541    2.6879 O.3     1  UNL1       -0.5060
     25 C           6.4755   -7.7021    6.5441 C.2     1  UNL1        0.2049
     26 O           6.8451   -8.5501    7.3594 O.2     1  UNL1       -0.2856
     27 C           7.2082   -6.4332    6.3782 C.2     1  UNL1        0.0104
     28 C           6.7857   -5.5092    5.4983 C.2     1  UNL1       -0.0095
     29 C           7.5809   -4.2735    5.3501 C.3     1  UNL1       -0.0070
     30 C           8.9533   -4.2355    5.8572 C.2     1  UNL1       -0.0832
     31 C           9.3743   -5.1454    6.7295 C.2     1  UNL1       -0.0832
     32 C           8.4539   -6.2334    7.2236 C.3     1  UNL1       -0.0054
     33 C           3.4189   -2.9050    1.9075 C.ar    1  UNL1       -0.0314
     34 C           2.6130   -2.0723    1.1442 C.ar    1  UNL1       -0.0181
     35 H           0.5838    0.5934   -0.8453 H       1  UNL1        0.0660
     36 H           0.5242    0.3323    0.9095 H       1  UNL1        0.0660
     37 H           0.5985   -1.0541   -0.2393 H       1  UNL1        0.0660
     38 H           4.5113    0.7720    1.1519 H       1  UNL1        0.0655
     39 H           6.0291   -0.7371    2.3902 H       1  UNL1        0.0638
     40 H           4.0216   -7.1219    4.1793 H       1  UNL1        0.0659
     41 H           5.0177   -9.7725    6.5866 H       1  UNL1        0.1701
     42 H           3.1556   -9.0085    4.4316 H       1  UNL1        0.1730
     43 H           0.5772  -11.8502    6.3074 H       1  UNL1        0.0626
     44 H          -1.2760  -12.6828    4.8813 H       1  UNL1        0.0618
     45 H          -1.2763  -12.2195    2.4475 H       1  UNL1        0.0619
     46 H           0.6433  -11.0826    1.3959 H       1  UNL1        0.0654
     47 H           2.6470  -10.1392    1.7222 H       1  UNL1        0.2922
     48 H           7.0443   -3.4689    5.8465 H       1  UNL1        0.0356
     49 H           7.7678   -4.1734    4.2973 H       1  UNL1        0.0356
     50 H           9.5644   -3.4315    5.4571 H       1  UNL1        0.0572
     51 H          10.3941   -5.0782    7.0838 H       1  UNL1        0.0572
     52 H           8.1447   -5.9737    8.2426 H       1  UNL1        0.0357
     53 H           9.0388   -7.1555    7.2534 H       1  UNL1        0.0357
     54 H           3.1298   -3.9237    2.1388 H       1  UNL1        0.0638
     55 H           1.6880   -2.4902    0.7714 H       1  UNL1        0.0655
@<TRIPOS>BOND
     1     1     2    1
     2     2     3    1
     3     3     4   ar
     4     4     5   ar
     5     5     6   ar
     6     6     7    1
     7     7     8    2
     8     7     9    2
     9     7    10    1
    10    10    11    2
    11    11    12    1
    12    12    13    2
    13    13    14    1
    14    14    15    1
    15    15    16   am
    16    16    17    2
    17    16    18    1
    18    18    19   ar
    19    19    20   ar
    20    20    21   ar
    21    21    22   ar
    22    22    23   ar
    23    18    23   ar
    24    23    24    1
    25    13    25    1
    26    25    26    2
    27    25    27    1
    28    27    28    2
    29    11    28    1
    30    28    29    1
    31    29    30    1
    32    30    31    2
    33    31    32    1
    34    27    32    1
    35     6    33   ar
    36    33    34   ar
    37     3    34   ar
    38     1    35    1
    39     1    36    1
    40     1    37    1
    41     4    38    1
    42     5    39    1
    43    12    40    1
    44    14    41    1
    45    15    42    1
    46    19    43    1
    47    20    44    1
    48    21    45    1
    49    22    46    1
    50    24    47    1
    51    29    48    1
    52    29    49    1
    53    30    50    1
    54    31    51    1
    55    32    52    1
    56    32    53    1
    57    33    54    1
    58    34    55    1
