REMARK  4 active torsions:
REMARK  status: ('A' for Active; 'I' for Inactive)
REMARK    1  A    between atoms: C_6  and  C_7 
REMARK    2  A    between atoms: C_7  and  C_8 
REMARK       I    between atoms: C_8  and  N_10 
REMARK    3  A    between atoms: N_10  and  C_11 
REMARK    4  A    between atoms: C_15  and  C_16 
ROOT
ATOM      1  C   UNL d   1      -2.682   1.812   1.237  0.00  0.00     0.235 C 
ATOM      2  O   UNL d   1      -1.944   1.381   2.127  0.00  0.00    -0.272 OA
ATOM      3  N   UNL d   1      -4.052   1.650   1.231  0.00  0.00    -0.326 N 
ATOM      4  H   UNL d   1      -4.615   2.362   0.784  0.00  0.00     0.169 HD
ENDROOT
BRANCH   3   5
ATOM      5  C   UNL d   1      -4.700   0.609   1.963  0.00  0.00     0.035 A 
ATOM      6  C   UNL d   1      -6.076   0.426   1.850  0.00  0.00     0.029 A 
ATOM      7  C   UNL d   1      -6.726  -0.540   2.641  0.00  0.00     0.003 A 
ATOM      8  C   UNL d   1      -6.008  -1.374   3.510  0.00  0.00     0.014 A 
ATOM      9  C   UNL d   1      -4.631  -1.236   3.598  0.00  0.00    -0.006 A 
ATOM     10  C   UNL d   1      -4.003  -0.269   2.807  0.00  0.00     0.043 A 
BRANCH   9  11
ATOM     11  C   UNL d   1      -3.812  -1.926   4.584  0.00  0.00     0.061 A 
ATOM     12  C   UNL d   1      -3.020  -1.383   5.578  0.00  0.00     0.053 A 
ATOM     13  C   UNL d   1      -2.344  -2.470   6.150  0.00  0.00     0.141 A 
ATOM     14  N   UNL d   1      -2.669  -3.628   5.571  0.00  0.00    -0.187 NA
ATOM     15  N   UNL d   1      -3.545  -3.268   4.610  0.00  0.00    -0.278 N 
ATOM     16  H   UNL d   1      -3.895  -3.989   3.989  0.00  0.00     0.189 HD
ENDBRANCH   9  11
ENDBRANCH   3   5
BRANCH   1  17
ATOM     17  C   UNL d   1      -1.950   2.349   0.022  0.00  0.00     0.068 A 
ATOM     18  C   UNL d   1      -1.770   3.855   0.401  0.00  0.00     0.026 A 
ATOM     19  C   UNL d   1      -1.851   3.489  -0.999  0.00  0.00     0.026 A 
BRANCH  17  20
ATOM     20  C   UNL d   1      -1.010   1.198  -0.381  0.00  0.00    -0.040 C 
ATOM     21  C   UNL d   1      -1.644  -0.062  -0.569  0.00  0.00     0.008 C 
ATOM     22  C   UNL d   1      -0.981  -1.255  -0.317  0.00  0.00     0.001 C 
ATOM     23  C   UNL d   1       0.385  -1.232  -0.103  0.00  0.00     0.007 C 
ATOM     24  C   UNL d   1       1.077  -0.013  -0.117  0.00  0.00    -0.061 C 
ATOM     25  C   UNL d   1       2.567   0.001  -0.003  0.00  0.00     0.048 C 
ATOM     26  C   UNL d   1       0.373   1.202  -0.201  0.00  0.00     0.015 C 
ENDBRANCH  17  20
ENDBRANCH   1  17
TORSDOF 4
