REMARK  8 active torsions:
REMARK  status: ('A' for Active; 'I' for Inactive)
REMARK    1  A    between atoms: C_2  and  N_3 
REMARK    2  A    between atoms: N_3  and  C_4 
REMARK    3  A    between atoms: N_3  and  C_6 
REMARK    4  A    between atoms: C_9  and  N_10 
REMARK    5  A    between atoms: C_16  and  N_17 
REMARK       I    between atoms: N_17  and  C_18 
REMARK    6  A    between atoms: C_18  and  C_20 
REMARK    7  A    between atoms: C_20  and  O_21 
REMARK    8  A    between atoms: C_20  and  C_23 
ROOT
ATOM      1  N   UNL d   1       8.798   0.163  -2.302  0.00  0.00    -0.150 N 
ATOM      2  N   UNL d   1       9.511   0.847  -1.375  0.00  0.00    -0.147 NA
ATOM      3  C   UNL d   1      10.717   0.666  -1.928  0.00  0.00     0.110 C 
ATOM      4  C   UNL d   1      11.510   1.565  -2.647  0.00  0.00     0.045 C 
ATOM      5  C   UNL d   1      12.653   1.012  -3.293  0.00  0.00    -0.033 C 
ATOM      6  C   UNL d   1      13.233   1.781  -4.443  0.00  0.00     0.050 C 
ATOM      7  C   UNL d   1      13.176  -0.259  -2.942  0.00  0.00     0.043 C 
ATOM      8  C   UNL d   1      12.230  -1.220  -2.470  0.00  0.00     0.066 C 
ATOM      9  C   UNL d   1      10.853  -0.721  -2.250  0.00  0.00     0.111 C 
ATOM     10  N   UNL d   1       9.581  -0.932  -2.823  0.00  0.00    -0.147 NA
ENDROOT
BRANCH   7  11
ATOM     11  N   UNL d   1      14.616  -0.413  -3.097  0.00  0.00    -0.324 N 
ATOM     12  C   UNL d   1      15.492  -1.278  -2.411  0.00  0.00     0.255 C 
ATOM     13  O   UNL d   1      15.088  -2.150  -1.670  0.00  0.00    -0.270 OA
ATOM     14  H   UNL d   1      15.074   0.324  -3.610  0.00  0.00     0.169 HD
BRANCH  12  15
ATOM     15  C   UNL d   1      17.102  -1.029  -2.685  0.00  0.00     0.247 C 
BRANCH  15  16
ATOM     16  O   UNL d   1      17.668   0.205  -2.280  0.00  0.00    -0.377 OA
ATOM     17  C   UNL d   1      17.166   1.389  -2.842  0.00  0.00     0.203 C 
ENDBRANCH  15  16
BRANCH  15  18
ATOM     18  C   UNL d   1      17.902  -2.166  -1.991  0.00  0.00     0.001 C 
ATOM     19  C   UNL d   1      17.646  -3.483  -2.439  0.00  0.00     0.012 C 
ATOM     20  C   UNL d   1      18.020  -4.596  -1.680  0.00  0.00     0.001 C 
ATOM     21  C   UNL d   1      18.771  -4.433  -0.524  0.00  0.00     0.002 C 
ATOM     22  C   UNL d   1      19.143  -3.154  -0.126  0.00  0.00     0.024 C 
ATOM     23  C   UNL d   1      18.721  -2.025  -0.845  0.00  0.00     0.043 C 
ATOM     24 CL   UNL d   1      19.287  -0.524  -0.191  0.00  0.00    -0.084 Cl
ENDBRANCH  15  18
ENDBRANCH  12  15
ENDBRANCH   7  11
BRANCH   1  25
ATOM     25  C   UNL d   1       7.327   0.298  -2.229  0.00  0.00     0.079 A 
ATOM     26  C   UNL d   1       6.564   1.455  -2.582  0.00  0.00     0.036 A 
ATOM     27  C   UNL d   1       5.165   1.600  -2.213  0.00  0.00     0.039 A 
ATOM     28  C   UNL d   1       4.485   0.604  -1.495  0.00  0.00     0.134 A 
ATOM     29  C   UNL d   1       5.257  -0.507  -1.126  0.00  0.00     0.039 A 
ATOM     30  C   UNL d   1       6.642  -0.639  -1.461  0.00  0.00     0.036 A 
BRANCH  28  31
ATOM     31  N   UNL d   1       2.984   0.771  -1.124  0.00  0.00    -0.042 N 
ATOM     32  H   UNL d   1       2.934   1.739  -0.782  0.00  0.00     0.286 HD
BRANCH  31  33
ATOM     33  C   UNL d   1       2.601  -0.006   0.145  0.00  0.00     0.237 C 
ATOM     34  C   UNL d   1       1.119  -0.079   0.469  0.00  0.00     0.035 C 
ENDBRANCH  31  33
BRANCH  31  35
ATOM     35  C   UNL d   1       2.126   0.834  -2.400  0.00  0.00     0.237 C 
ATOM     36  C   UNL d   1       0.618   0.800  -2.198  0.00  0.00     0.035 C 
ENDBRANCH  31  35
ENDBRANCH  28  31
ENDBRANCH   1  25
TORSDOF 8
