REMARK  5 active torsions:
REMARK  status: ('A' for Active; 'I' for Inactive)
REMARK    1  A    between atoms: C_7  and  N_8 
REMARK       I    between atoms: N_8  and  C_9 
REMARK       I    between atoms: C_9  and  N_11 
REMARK    2  A    between atoms: N_11  and  C_12 
REMARK    3  A    between atoms: C_14  and  N_15 
REMARK       I    between atoms: N_15  and  C_16 
REMARK    4  A    between atoms: C_16  and  C_18 
REMARK    5  A    between atoms: C_27  and  N_28 
ROOT
ATOM      1  C   UNL d   1       2.426  -6.090   0.049  0.00  0.00     0.065 A 
ATOM      2  C   UNL d   1       2.603  -7.293  -0.713  0.00  0.00     0.061 A 
ATOM      3  C   UNL d   1       3.775  -8.081  -0.580  0.00  0.00     0.037 A 
ATOM      4  C   UNL d   1       4.796  -7.574   0.215  0.00  0.00     0.032 A 
ATOM      5  C   UNL d   1       4.637  -6.412   0.956  0.00  0.00     0.034 A 
ATOM      6  C   UNL d   1       3.463  -5.654   0.923  0.00  0.00     0.057 A 
ENDROOT
BRANCH   1   7
ATOM      7  N   UNL d   1       1.194  -5.336  -0.058  0.00  0.00    -0.306 N 
ATOM      8  C   UNL d   1       1.252  -3.976  -0.352  0.00  0.00     0.325 C 
ATOM      9  N   UNL d   1       0.072  -3.250  -0.154  0.00  0.00    -0.309 N 
ATOM     10  O   UNL d   1       2.303  -3.460  -0.736  0.00  0.00    -0.247 OA
ATOM     11  H   UNL d   1      -0.797  -3.748  -0.018  0.00  0.00     0.170 HD
ATOM     12  H   UNL d   1       0.353  -5.841  -0.284  0.00  0.00     0.170 HD
BRANCH   9  13
ATOM     13  C   UNL d   1       0.014  -1.803  -0.139  0.00  0.00     0.037 A 
ATOM     14  C   UNL d   1      -1.202  -1.120  -0.045  0.00  0.00     0.036 A 
ATOM     15  C   UNL d   1      -1.236   0.300  -0.012  0.00  0.00    -0.059 A 
ATOM     16  C   UNL d   1      -0.043   1.042  -0.015  0.00  0.00     0.013 A 
ATOM     17  C   UNL d   1      -2.551   1.026   0.001  0.00  0.00     0.048 C 
ATOM     18  C   UNL d   1       1.176   0.386  -0.060  0.00  0.00    -0.059 A 
ATOM     19  C   UNL d   1       2.495   1.102  -0.010  0.00  0.00     0.048 C 
ATOM     20  C   UNL d   1       1.176  -1.010  -0.149  0.00  0.00     0.036 A 
ENDBRANCH   9  13
ENDBRANCH   1   7
BRANCH   6  21
ATOM     21  N   UNL d   1       3.430  -4.587   1.802  0.00  0.00    -0.379 N 
ATOM     22  C   UNL d   1       2.327  -4.254   2.679  0.00  0.00     0.123 C 
ATOM     23  C   UNL d   1       2.176  -2.754   2.528  0.00  0.00     0.021 C 
ATOM     24  C   UNL d   1       3.577  -2.255   2.217  0.00  0.00     0.021 C 
ATOM     25  C   UNL d   1       4.288  -3.429   1.539  0.00  0.00     0.123 C 
ENDBRANCH   6  21
BRANCH   3  26
ATOM     26  N   UNL d   1       3.905  -9.382  -1.177  0.00  0.00    -0.323 N 
ATOM     27  C   UNL d   1       4.930 -10.286  -0.873  0.00  0.00     0.256 C 
ATOM     28  O   UNL d   1       5.898 -10.090  -0.129  0.00  0.00    -0.267 OA
ATOM     29  H   UNL d   1       3.119  -9.721  -1.718  0.00  0.00     0.169 HD
BRANCH  27  30
ATOM     30  C   UNL d   1       4.907 -11.644  -1.462  0.00  0.00     0.032 A 
ATOM     31  C   UNL d   1       5.400 -12.714  -0.684  0.00  0.00     0.020 A 
ATOM     32  C   UNL d   1       5.623 -13.965  -1.258  0.00  0.00     0.043 A 
ATOM     33  C   UNL d   1       5.293 -14.161  -2.592  0.00  0.00     0.116 A 
ATOM     34  F   UNL d   1       5.450 -15.374  -3.137  0.00  0.00    -0.206 F 
ATOM     35  C   UNL d   1       4.797 -13.116  -3.371  0.00  0.00     0.043 A 
ATOM     36  C   UNL d   1       4.613 -11.846  -2.811  0.00  0.00     0.020 A 
ENDBRANCH  27  30
ENDBRANCH   3  26
TORSDOF 5
