REMARK  15 active torsions:
REMARK  status: ('A' for Active; 'I' for Inactive)
REMARK    1  A    between atoms: C_2  and  C_3 
REMARK    2  A    between atoms: C_3  and  C_4 
REMARK    3  A    between atoms: C_4  and  O_5 
REMARK    4  A    between atoms: O_5  and  C_6 
REMARK    5  A    between atoms: C_9  and  C_10 
REMARK    6  A    between atoms: C_11  and  C_12 
REMARK    7  A    between atoms: C_12  and  O_14 
REMARK    8  A    between atoms: O_14  and  C_15 
REMARK    9  A    between atoms: C_15  and  C_16 
REMARK   10  A    between atoms: C_16  and  C_18 
REMARK   11  A    between atoms: C_22  and  C_23 
REMARK   12  A    between atoms: C_23  and  O_25 
REMARK   13  A    between atoms: O_25  and  C_26 
REMARK   14  A    between atoms: C_31  and  O_32 
REMARK   15  A    between atoms: O_32  and  C_33 
ROOT
ATOM      1  C   UNL d   1      12.908   3.336  -1.266  0.00  0.00     0.283 C 
ATOM      2  O   UNL d   1      13.406   4.286  -0.684  0.00  0.00    -0.260 OA
ENDROOT
BRANCH   1   3
ATOM      3  C   UNL d   1      11.450   3.029  -1.279  0.00  0.00     0.083 C 
ATOM      4  C   UNL d   1      10.542   3.800  -0.640  0.00  0.00     0.017 C 
BRANCH   4   5
ATOM      5  C   UNL d   1       9.081   3.534  -0.558  0.00  0.00    -0.033 A 
ATOM      6  C   UNL d   1       8.220   4.339   0.196  0.00  0.00     0.014 A 
ATOM      7  C   UNL d   1       6.857   3.993   0.363  0.00  0.00     0.040 A 
ATOM      8  C   UNL d   1       6.276   2.880  -0.285  0.00  0.00     0.102 A 
ATOM      9  C   UNL d   1       7.136   2.106  -1.115  0.00  0.00     0.102 A 
ATOM     10  C   UNL d   1       8.503   2.444  -1.210  0.00  0.00     0.051 A 
BRANCH   8  11
ATOM     11  O   UNL d   1       4.889   2.869  -0.153  0.00  0.00    -0.348 OA
BRANCH  11  12
ATOM     12  C   UNL d   1       4.241   1.682   0.296  0.00  0.00     0.176 C 
BRANCH  12  13
ATOM     13  C   UNL d   1       2.735   1.576   0.141  0.00  0.00     0.026 C 
BRANCH  13  14
ATOM     14  C   UNL d   1       2.337   0.072   0.182  0.00  0.00    -0.002 C 
ATOM     15  C   UNL d   1       0.839  -0.056   0.099  0.00  0.00     0.005 C 
ENDBRANCH  13  14
ENDBRANCH  12  13
ENDBRANCH  11  12
ENDBRANCH   8  11
BRANCH   9  16
ATOM     16  O   UNL d   1       6.930   1.024  -1.973  0.00  0.00    -0.349 OA
BRANCH  16  17
ATOM     17  C   UNL d   1       5.673   0.469  -1.801  0.00  0.00     0.171 C 
ATOM     18  C   UNL d   1       5.163  -0.754  -2.502  0.00  0.00     0.034 C 
ENDBRANCH  16  17
ENDBRANCH   9  16
ENDBRANCH   4   5
ENDBRANCH   1   3
BRANCH   1  19
ATOM     19  O   UNL d   1      13.594   2.421  -2.012  0.00  0.00    -0.310 OA
BRANCH  19  20
ATOM     20  C   UNL d   1      15.022   2.636  -2.092  0.00  0.00     0.264 C 
BRANCH  20  21
ATOM     21  C   UNL d   1      15.745   1.536  -2.912  0.00  0.00     0.200 C 
ATOM     22  O   UNL d   1      15.521   0.355  -2.628  0.00  0.00    -0.288 OA
BRANCH  21  23
ATOM     23  C   UNL d   1      16.690   1.899  -3.999  0.00  0.00     0.088 A 
ATOM     24  N   UNL d   1      17.149   3.164  -4.300  0.00  0.00    -0.356 N 
ATOM     25  C   UNL d   1      18.020   3.143  -5.369  0.00  0.00     0.022 A 
ATOM     26  H   UNL d   1      16.893   4.009  -3.805  0.00  0.00     0.166 HD
ATOM     27  C   UNL d   1      18.652   4.391  -5.881  0.00  0.00     0.069 C 
ATOM     28  C   UNL d   1      18.152   1.835  -5.815  0.00  0.00     0.070 A 
ATOM     29  C   UNL d   1      17.308   1.046  -4.933  0.00  0.00    -0.013 A 
ATOM     30  C   UNL d   1      17.109  -0.436  -5.011  0.00  0.00     0.052 C 
BRANCH  28  31
ATOM     31  C   UNL d   1      18.979   1.347  -6.958  0.00  0.00     0.295 C 
ATOM     32  O   UNL d   1      19.025   0.184  -7.304  0.00  0.00    -0.259 OA
BRANCH  31  33
ATOM     33  O   UNL d   1      19.693   2.336  -7.606  0.00  0.00    -0.318 OA
BRANCH  33  34
ATOM     34  C   UNL d   1      20.480   1.861  -8.716  0.00  0.00     0.174 C 
ATOM     35  C   UNL d   1      21.221   3.024  -9.356  0.00  0.00     0.034 C 
ENDBRANCH  33  34
ENDBRANCH  31  33
ENDBRANCH  28  31
ENDBRANCH  21  23
ENDBRANCH  20  21
ENDBRANCH  19  20
ENDBRANCH   1  19
TORSDOF 15
