REMARK  12 active torsions:
REMARK  status: ('A' for Active; 'I' for Inactive)
REMARK    1  A    between atoms: C_2  and  O_3 
REMARK    2  A    between atoms: O_3  and  C_4 
REMARK    3  A    between atoms: C_4  and  C_6 
REMARK    4  A    between atoms: C_7  and  C_8 
REMARK    5  A    between atoms: C_11  and  O_12 
REMARK    6  A    between atoms: C_14  and  O_15 
REMARK    7  A    between atoms: C_20  and  N_21 
REMARK    8  A    between atoms: N_21  and  C_22 
REMARK    9  A    between atoms: C_22  and  N_24 
REMARK       I    between atoms: N_24  and  C_25 
REMARK   10  A    between atoms: C_25  and  C_27 
REMARK   11  A    between atoms: C_27  and  N_28 
REMARK   12  A    between atoms: N_28  and  C_29 
ROOT
ATOM      1  C   UNL d   1       4.887   2.779   0.995  0.00  0.00     0.085 A 
ATOM      2  C   UNL d   1       4.483   3.667   2.059  0.00  0.00    -0.000 A 
ATOM      3  C   UNL d   1       5.132   4.883   2.003  0.00  0.00     0.065 A 
ATOM      4  S   UNL d   1       6.257   4.925   0.692  0.00  0.00    -0.082 SA
ATOM      5  C   UNL d   1       5.843   3.345   0.169  0.00  0.00     0.093 A 
ENDROOT
BRANCH   5   6
ATOM      6  N   UNL d   1       6.538   2.862  -0.958  0.00  0.00    -0.326 N 
ATOM      7  H   UNL d   1       7.281   3.471  -1.288  0.00  0.00     0.169 HD
BRANCH   6   8
ATOM      8  C   UNL d   1       6.035   1.867  -1.800  0.00  0.00     0.179 C 
ATOM      9  S   UNL d   1       4.433   1.774  -2.307  0.00  0.00    -0.040 SA
BRANCH   8  10
ATOM     10  N   UNL d   1       6.988   1.033  -2.380  0.00  0.00    -0.302 N 
ATOM     11  C   UNL d   1       6.631  -0.239  -2.839  0.00  0.00     0.249 C 
ATOM     12  O   UNL d   1       5.927  -1.054  -2.240  0.00  0.00    -0.271 OA
ATOM     13  H   UNL d   1       7.671   1.552  -2.921  0.00  0.00     0.171 HD
BRANCH  11  14
ATOM     14  C   UNL d   1       7.252  -0.708  -4.131  0.00  0.00     0.335 C 
BRANCH  14  15
ATOM     15  N   UNL d   1       6.799  -2.119  -4.501  0.00  0.00    -0.063 N 
ATOM     16  H   UNL d   1       5.772  -2.104  -4.625  0.00  0.00     0.278 HD
ATOM     17  H   UNL d   1       6.887  -2.696  -3.646  0.00  0.00     0.278 HD
BRANCH  15  18
ATOM     18  C   UNL d   1       7.450  -2.769  -5.694  0.00  0.00     0.186 C 
ATOM     19  C   UNL d   1       8.615  -1.921  -6.229  0.00  0.00     0.033 C 
ATOM     20  C   UNL d   1       9.942  -2.167  -5.508  0.00  0.00     0.002 C 
ATOM     21  C   UNL d   1      10.752  -3.220  -6.246  0.00  0.00     0.000 C 
ATOM     22  C   UNL d   1      10.235  -4.650  -6.102  0.00  0.00     0.000 C 
ATOM     23  C   UNL d   1       8.742  -4.859  -6.372  0.00  0.00     0.002 C 
ATOM     24  C   UNL d   1       7.843  -4.206  -5.317  0.00  0.00     0.033 C 
ENDBRANCH  15  18
ENDBRANCH  14  15
ENDBRANCH  11  14
ENDBRANCH   8  10
ENDBRANCH   6   8
ENDBRANCH   5   6
BRANCH   1  25
ATOM     25  C   UNL d   1       4.389   1.421   0.884  0.00  0.00     0.297 C 
ATOM     26  O   UNL d   1       5.138   0.445   1.023  0.00  0.00    -0.259 OA
BRANCH  25  27
ATOM     27  O   UNL d   1       3.061   1.360   0.588  0.00  0.00    -0.318 OA
BRANCH  27  28
ATOM     28  C   UNL d   1       2.571   0.071   0.188  0.00  0.00     0.174 C 
ATOM     29  C   UNL d   1       1.057   0.097   0.109  0.00  0.00     0.034 C 
ENDBRANCH  27  28
ENDBRANCH  25  27
ENDBRANCH   1  25
BRANCH   2  30
ATOM     30  C   UNL d   1       3.466   3.322   3.047  0.00  0.00    -0.021 A 
ATOM     31  C   UNL d   1       3.549   2.111   3.745  0.00  0.00     0.015 A 
ATOM     32  C   UNL d   1       2.430   1.611   4.413  0.00  0.00     0.040 A 
ATOM     33  C   UNL d   1       1.248   2.359   4.486  0.00  0.00     0.101 A 
ATOM     34  C   UNL d   1       1.169   3.584   3.796  0.00  0.00     0.102 A 
ATOM     35  C   UNL d   1       2.282   4.054   3.087  0.00  0.00     0.052 A 
BRANCH  33  36
ATOM     36  O   UNL d   1       0.274   1.773   5.258  0.00  0.00    -0.353 OA
ATOM     37  C   UNL d   1      -0.888   2.550   5.537  0.00  0.00     0.210 C 
ENDBRANCH  33  36
BRANCH  34  38
ATOM     38  O   UNL d   1      -0.025   4.249   3.800  0.00  0.00    -0.353 OA
ATOM     39  C   UNL d   1      -0.127   5.458   3.071  0.00  0.00     0.210 C 
ENDBRANCH  34  38
ENDBRANCH   2  30
TORSDOF 12
