@<TRIPOS>MOLECULE
*****
 72 74 0 0 0
SMALL
GASTEIGER

@<TRIPOS>ATOM
      1 C           8.1928  -10.9091    0.6308 C.3     1  UNL1       -0.0652
      2 C           7.1347   -9.8328    0.7217 C.3     1  UNL1       -0.0545
      3 C           7.6953   -8.5256    1.2439 C.3     1  UNL1       -0.0376
      4 C           6.5612   -7.5029    1.2692 C.3     1  UNL1        0.0116
      5 N           7.0682   -6.2276    1.6447 N.am    1  UNL1       -0.3138
      6 C           6.3402   -5.2168    2.2107 C.2     1  UNL1        0.2345
      7 O           5.1170   -5.2281    2.2483 O.2     1  UNL1       -0.2737
      8 C           7.2390   -4.0398    2.7717 C.3     1  UNL1        0.1137
      9 C           6.8070   -2.7882    2.1981 C.3     1  UNL1        0.0363
     10 C           6.3518   -3.4091    0.4438 C.ar    1  UNL1       -0.0377
     11 C           7.3324   -4.0778   -0.4043 C.ar    1  UNL1       -0.0579
     12 C           7.3531   -3.8942   -1.8032 C.ar    1  UNL1       -0.0615
     13 C           6.2462   -3.3807   -2.4496 C.ar    1  UNL1       -0.0617
     14 C           5.1523   -2.9627   -1.6855 C.ar    1  UNL1       -0.0615
     15 C           5.1969   -2.9498   -0.2586 C.ar    1  UNL1       -0.0579
     16 C           7.9457   -1.2682    2.8222 C.ar    1  UNL1       -0.0377
     17 C           7.5091   -0.1339    3.5305 C.ar    1  UNL1       -0.0579
     18 C           7.9422    1.2960    3.1367 C.ar    1  UNL1       -0.0615
     19 C           8.9809    1.7176    2.2241 C.ar    1  UNL1       -0.0617
     20 C           9.7359    0.7369    1.6788 C.ar    1  UNL1       -0.0615
     21 C           9.0757   -0.5070    1.9482 C.ar    1  UNL1       -0.0579
     22 N           8.6584   -3.9583    2.5434 N.am    1  UNL1       -0.2800
     23 C           9.1430   -2.9887    1.5149 C.2     1  UNL1        0.2513
     24 O          10.4027   -2.7971    1.4532 O.2     1  UNL1       -0.2698
     25 C           8.0971   -1.9286    0.4292 C.ar    1  UNL1        0.0819
     26 C           8.7969   -1.5629   -0.7073 C.ar    1  UNL1       -0.0459
     27 C           8.2360   -0.4314   -1.3438 C.ar    1  UNL1       -0.0574
     28 C           7.0459    0.3798   -0.9050 C.ar    1  UNL1       -0.0165
     29 C           6.2663    0.1422    0.1864 C.ar    1  UNL1        0.1590
     30 O           5.3416    0.8797    0.8610 O.3     1  UNL1       -0.5033
     31 C           6.6766   -0.9668    0.8021 C.ar    1  UNL1        0.1706
     32 O           5.7274   -1.0534    1.9715 O.3     1  UNL1       -0.5028
     33 C           9.4704   -4.7580    3.5340 C.3     1  UNL1        0.0301
     34 C           9.0062   -4.5717    5.0058 C.3     1  UNL1       -0.0440
     35 C           9.2664   -6.2345    3.2232 C.3     1  UNL1       -0.0440
     36 C          10.9648   -4.5384    3.4161 C.3     1  UNL1       -0.0440
     37 H           7.7456  -11.8278    0.2416 H       1  UNL1        0.0230
     38 H           8.6206  -11.1217    1.6152 H       1  UNL1        0.0230
     39 H           9.0010  -10.6059   -0.0417 H       1  UNL1        0.0230
     40 H           6.3264  -10.1644    1.3827 H       1  UNL1        0.0263
     41 H           6.7024   -9.6610   -0.2701 H       1  UNL1        0.0263
     42 H           8.5225   -8.1781    0.6087 H       1  UNL1        0.0280
     43 H           8.1249   -8.6674    2.2460 H       1  UNL1        0.0280
     44 H           5.7945   -7.7940    1.9932 H       1  UNL1        0.0462
     45 H           6.1133   -7.3874    0.2801 H       1  UNL1        0.0462
     46 H           7.9871   -5.9789    1.3213 H       1  UNL1        0.1487
     47 H           6.9548   -3.9288    3.8212 H       1  UNL1        0.0606
     48 H           5.7750   -2.7749    2.5954 H       1  UNL1        0.0420
     49 H           8.2773   -4.4326   -0.0047 H       1  UNL1        0.0620
     50 H           8.3047   -3.9698   -2.3409 H       1  UNL1        0.0618
     51 H           6.2592   -3.2960   -3.5342 H       1  UNL1        0.0618
     52 H           4.2888   -2.5603   -2.2150 H       1  UNL1        0.0618
     53 H           4.3849   -2.4471    0.2603 H       1  UNL1        0.0620
     54 H           6.6835   -0.1600    4.2232 H       1  UNL1        0.0620
     55 H           7.2805    2.1025    3.4447 H       1  UNL1        0.0618
     56 H           9.0916    2.7317    1.8362 H       1  UNL1        0.0618
     57 H          10.1219    0.8933    0.6253 H       1  UNL1        0.0618
     58 H           8.6050   -0.2353    0.9896 H       1  UNL1        0.0620
     59 H           9.7592   -2.0304   -0.9420 H       1  UNL1        0.0626
     60 H           8.8261   -0.0077   -2.1498 H       1  UNL1        0.0619
     61 H           6.8138    1.2887   -1.4275 H       1  UNL1        0.0655
     62 H           5.3952    1.8144    0.6484 H       1  UNL1        0.2923
     63 H           5.3077   -0.2490    2.3365 H       1  UNL1        0.2923
     64 H           7.9395   -4.7841    5.1553 H       1  UNL1        0.0250
     65 H           9.1870   -3.5569    5.3684 H       1  UNL1        0.0250
     66 H           9.5105   -5.2894    5.6617 H       1  UNL1        0.0250
     67 H           8.2340   -6.5004    3.4582 H       1  UNL1        0.0250
     68 H           9.8541   -6.9427    3.8005 H       1  UNL1        0.0250
     69 H           9.5339   -6.3879    2.1728 H       1  UNL1        0.0250
     70 H          11.2435   -3.5408    3.7587 H       1  UNL1        0.0250
     71 H          11.2680   -4.6783    2.3740 H       1  UNL1        0.0250
     72 H          11.5169   -5.2837    3.9963 H       1  UNL1        0.0250
@<TRIPOS>BOND
     1     1     2    1
     2     2     3    1
     3     3     4    1
     4     4     5    1
     5     5     6   am
     6     6     7    2
     7     9    10    1
     8    10    11   ar
     9    11    12   ar
    10    12    13   ar
    11    13    14   ar
    12    14    15   ar
    13    10    15   ar
    14     9    16    1
    15    16    17   ar
    16    17    18   ar
    17    18    19   ar
    18    19    20   ar
    19    20    21   ar
    20    16    21   ar
    21     8    22    1
    22    22    23   am
    23    23    24    2
    24    23    25    1
    25    25    26   ar
    26    26    27   ar
    27    27    28   ar
    28    28    29   ar
    29    29    30    1
    30    29    31   ar
    31    25    31   ar
    32    31    32    1
    33    22    33    1
    34    33    34    1
    35    33    35    1
    36    33    36    1
    37     8     9    1
    38     8     6    1
    39     1    37    1
    40     1    38    1
    41     1    39    1
    42     2    40    1
    43     2    41    1
    44     3    42    1
    45     3    43    1
    46     4    44    1
    47     4    45    1
    48     5    46    1
    49     8    47    1
    50     9    48    1
    51    11    49    1
    52    12    50    1
    53    13    51    1
    54    14    52    1
    55    15    53    1
    56    17    54    1
    57    18    55    1
    58    19    56    1
    59    20    57    1
    60    21    58    1
    61    26    59    1
    62    27    60    1
    63    28    61    1
    64    30    62    1
    65    32    63    1
    66    34    64    1
    67    34    65    1
    68    34    66    1
    69    35    67    1
    70    35    68    1
    71    35    69    1
    72    36    70    1
    73    36    71    1
    74    36    72    1
