REMARK  8 active torsions:
REMARK  status: ('A' for Active; 'I' for Inactive)
REMARK    1  A    between atoms: C_5  and  N_6 
REMARK    2  A    between atoms: C_9  and  N_10 
REMARK       I    between atoms: N_10  and  C_11 
REMARK    3  A    between atoms: C_13  and  C_11 
REMARK    4  A    between atoms: C_13  and  N_15 
REMARK    5  A    between atoms: N_15  and  C_16 
REMARK    6  A    between atoms: C_20  and  N_21 
REMARK       I    between atoms: N_21  and  C_22 
REMARK    7  A    between atoms: C_22  and  C_24 
REMARK    8  A    between atoms: C_24  and  O_25 
ROOT
ATOM      1  C   UNL d   1      -1.907  -5.165  -0.160  0.00  0.00     0.170 C 
ATOM      2  C   UNL d   1      -1.928  -3.618  -0.210  0.00  0.00     0.042 C 
ENDROOT
BRANCH   1   3
ATOM      3  N   UNL d   1      -3.303  -5.655  -0.383  0.00  0.00    -0.377 N 
ATOM      4  H   UNL d   1      -3.987  -5.037   0.057  0.00  0.00     0.160 HD
BRANCH   3   5
ATOM      5  C   UNL d   1      -3.679  -6.993  -0.236  0.00  0.00     0.030 C 
ATOM      6  C   UNL d   1      -4.610  -7.536  -1.117  0.00  0.00     0.029 C 
ATOM      7  C   UNL d   1      -5.001  -8.881  -1.026  0.00  0.00     0.004 C 
ATOM      8  C   UNL d   1      -4.429  -9.725  -0.087  0.00  0.00     0.029 C 
ATOM      9  C   UNL d   1      -3.707  -9.164   0.944  0.00  0.00     0.036 C 
ATOM     10  C   UNL d   1      -3.385  -7.790   0.878  0.00  0.00     0.058 C 
BRANCH   9  11
ATOM     11  N   UNL d   1      -3.299 -10.062   1.962  0.00  0.00    -0.325 N 
ATOM     12  C   UNL d   1      -2.516  -9.761   3.041  0.00  0.00     0.245 C 
ATOM     13  O   UNL d   1      -2.678  -8.668   3.661  0.00  0.00    -0.271 OA
ATOM     14  H   UNL d   1      -3.356 -11.049   1.751  0.00  0.00     0.169 HD
BRANCH  12  15
ATOM     15  C   UNL d   1      -1.209 -10.961   3.301  0.00  0.00     0.267 C 
BRANCH  15  16
ATOM     16  O   UNL d   1       0.336 -11.038   3.083  0.00  0.00    -0.392 OA
ATOM     17  H   UNL d   1       0.945 -10.283   3.362  0.00  0.00     0.210 HD
ENDBRANCH  15  16
ENDBRANCH  12  15
ENDBRANCH   9  11
ENDBRANCH   3   5
ENDBRANCH   1   3
BRANCH   1  18
ATOM     18  C   UNL d   1      -1.323  -5.507   1.236  0.00  0.00     0.244 C 
ATOM     19  N   UNL d   1      -0.619  -6.705   1.366  0.00  0.00    -0.323 N 
ATOM     20  H   UNL d   1      -0.871  -7.354   0.637  0.00  0.00     0.169 HD
ATOM     21  O   UNL d   1      -1.577  -4.783   2.199  0.00  0.00    -0.271 OA
BRANCH  19  22
ATOM     22  C   UNL d   1      -0.175  -7.221   2.652  0.00  0.00     0.074 C 
ATOM     23  C   UNL d   1       0.262  -6.417   3.729  0.00  0.00     0.130 C 
ATOM     24  C   UNL d   1       0.575  -6.897   5.051  0.00  0.00     0.039 C 
ATOM     25  C   UNL d   1       0.397  -8.188   5.494  0.00  0.00     0.010 C 
ATOM     26  C   UNL d   1      -0.002  -9.111   4.559  0.00  0.00    -0.054 C 
ATOM     27  C   UNL d   1       0.036 -10.633   5.455  0.00  0.00     0.049 C 
ATOM     28  C   UNL d   1      -0.198  -8.614   2.946  0.00  0.00    -0.027 C 
ATOM     29  C   UNL d   1      -0.435  -9.548   1.461  0.00  0.00     0.051 C 
BRANCH  23  30
ATOM     30  N   UNL d   1       0.647  -5.016   3.531  0.00  0.00    -0.113 N 
ATOM     31  O   UNL d   1       1.134  -4.689   2.437  0.00  0.00    -0.532 OA
ATOM     32  O   UNL d   1       0.577  -4.268   4.521  0.00  0.00    -0.532 OA
ENDBRANCH  23  30
ENDBRANCH  19  22
ENDBRANCH   1  18
TORSDOF 8
