@<TRIPOS>MOLECULE
*****
 40 40 0 0 0
SMALL
GASTEIGER

@<TRIPOS>ATOM
      1 C           7.0494   -2.2632   -0.6654 C.3     1  UNL1       -0.0600
      2 C           6.4102   -0.8894   -0.6309 C.3     1  UNL1       -0.0133
      3 C           5.2054   -0.6574   -1.5555 C.2     1  UNL1        0.0671
      4 N           4.6440   -1.5046   -2.3720 N.2     1  UNL1       -0.0958
      5 O           5.2112   -2.7715   -2.3665 O.2     1  UNL1       -0.4092
      6 C           4.5997    0.7519   -1.5379 C.3     1  UNL1        0.0560
      7 C           3.1073    0.6643   -1.2031 C.3     1  UNL1       -0.0504
      8 C           4.7944    1.4764   -2.8716 C.2     1  UNL1        0.1421
      9 O           3.8415    1.9084   -3.5263 O.2     1  UNL1       -0.2967
     10 C           6.2165    1.7231   -3.3334 C.3     1  UNL1        0.0147
     11 C           6.2663    2.4145   -4.7073 C.3     1  UNL1        0.0309
     12 C           7.7053    2.6085   -5.1427 C.2     1  UNL1        0.2176
     13 O           8.6321    2.2515   -4.4060 O.2     1  UNL1       -0.2755
     14 N           7.8866    3.2387   -6.3682 N.am    1  UNL1       -0.2855
     15 C           9.1837    3.4893   -6.8835 C.ar    1  UNL1        0.0335
     16 C          10.1828    2.5137   -6.7803 C.ar    1  UNL1       -0.0391
     17 C          11.4794    2.7588   -7.2349 C.ar    1  UNL1       -0.0416
     18 C          11.7909    3.9949   -7.7871 C.ar    1  UNL1        0.0411
     19 CL         13.4020    4.3132   -8.3011 Cl      1  UNL1       -0.0835
     20 C          10.8031    4.9716   -7.9204 C.ar    1  UNL1       -0.0416
     21 C           9.4901    4.7117   -7.4914 C.ar    1  UNL1       -0.0391
     22 H           7.9078   -2.3429    0.0041 H       1  UNL1        0.0233
     23 H           7.4064   -2.4880   -1.6768 H       1  UNL1        0.0233
     24 H           6.3258   -3.0252   -0.3543 H       1  UNL1        0.0233
     25 H           7.1715   -0.1425   -0.8896 H       1  UNL1        0.0324
     26 H           6.0941   -0.6694    0.3967 H       1  UNL1        0.0324
     27 H           4.6814   -3.2692   -3.0137 H       1  UNL1        0.3278
     28 H           5.0867    1.3512   -0.7579 H       1  UNL1        0.0436
     29 H           2.5663    0.0862   -1.9620 H       1  UNL1        0.0240
     30 H           2.6513    1.6602   -1.1715 H       1  UNL1        0.0240
     31 H           2.9412    0.1793   -0.2361 H       1  UNL1        0.0240
     32 H           6.7397    0.7617   -3.3836 H       1  UNL1        0.0346
     33 H           6.7158    2.3443   -2.5791 H       1  UNL1        0.0346
     34 H           5.7667    3.3891   -4.6548 H       1  UNL1        0.0362
     35 H           5.7457    1.8011   -5.4516 H       1  UNL1        0.0362
     36 H           7.1074    3.7440   -6.7753 H       1  UNL1        0.1548
     37 H           9.9562    1.5393   -6.3547 H       1  UNL1        0.0636
     38 H          12.2332    1.9823   -7.1422 H       1  UNL1        0.0633
     39 H          11.0580    5.9412   -8.3424 H       1  UNL1        0.0633
     40 H           8.7500    5.5030   -7.5746 H       1  UNL1        0.0636
@<TRIPOS>BOND
     1     1     2    1
     2     2     3    1
     3     3     4    2
     4     4     5    1
     5     6     8    1
     6     8     9    2
     7     8    10    1
     8    10    11    1
     9    11    12    1
    10    12    13    2
    11    12    14   am
    12    14    15    1
    13    15    16   ar
    14    16    17   ar
    15    17    18   ar
    16    18    19    1
    17    18    20   ar
    18    20    21   ar
    19    15    21   ar
    20     6     7    1
    21     6     3    1
    22     1    22    1
    23     1    23    1
    24     1    24    1
    25     2    25    1
    26     2    26    1
    27     5    27    1
    28     6    28    1
    29     7    29    1
    30     7    30    1
    31     7    31    1
    32    10    32    1
    33    10    33    1
    34    11    34    1
    35    11    35    1
    36    14    36    1
    37    16    37    1
    38    17    38    1
    39    20    39    1
    40    21    40    1
