@<TRIPOS>MOLECULE
*****
 31 32 0 0 0
SMALL
GASTEIGER

@<TRIPOS>ATOM
      1 C           1.1101    0.3166   -0.5401 C.3     1  UNL1       -0.0024
      2 N           2.4603    0.0397   -0.0443 N.pl3   1  UNL1       -0.3463
      3 C           3.1491    0.8177    0.8949 C.ar    1  UNL1        0.0391
      4 C           4.3730    1.4366    0.5217 C.ar    1  UNL1       -0.0401
      5 C           5.2135    2.0632    1.4619 C.ar    1  UNL1       -0.0600
      6 C           4.8070    2.1792    2.7818 C.ar    1  UNL1       -0.0609
      7 C           3.5806    1.6416    3.1596 C.ar    1  UNL1       -0.0478
      8 C           2.7473    0.9618    2.2418 C.ar    1  UNL1        0.0578
      9 C           1.4931    0.3939    2.8271 C.2     1  UNL1        0.2500
     10 O           1.0926    0.8273    3.9177 O.2     1  UNL1       -0.2698
     11 N           0.8662   -0.6112    2.1320 N.am    1  UNL1       -0.2815
     12 C          -0.5217   -0.8917    2.1532 C.ar    1  UNL1        0.0337
     13 C          -1.0012   -2.0029    1.4486 C.ar    1  UNL1       -0.0394
     14 C          -2.3550   -2.3497    1.5182 C.ar    1  UNL1       -0.0460
     15 C          -3.2174   -1.5932    2.3080 C.ar    1  UNL1        0.0180
     16 BR         -4.9537   -2.2341    2.6882 Br      1  UNL1       -0.0503
     17 C          -2.7817   -0.4041    2.8809 C.ar    1  UNL1       -0.0460
     18 C          -1.4405   -0.0383    2.7699 C.ar    1  UNL1       -0.0394
     19 H           0.8815   -0.4171   -1.3213 H       1  UNL1        0.0425
     20 H           0.9473    1.3460   -0.8525 H       1  UNL1        0.0425
     21 H           0.3092    0.1447    0.1652 H       1  UNL1        0.0425
     22 H           3.0704   -0.4164   -0.7195 H       1  UNL1        0.1458
     23 H           4.7106    1.4339   -0.5143 H       1  UNL1        0.0636
     24 H           6.1931    2.4443    1.1740 H       1  UNL1        0.0618
     25 H           5.4318    2.6797    3.5189 H       1  UNL1        0.0618
     26 H           3.2816    1.7143    4.2044 H       1  UNL1        0.0626
     27 H           1.4271   -1.0376    1.3946 H       1  UNL1        0.1551
     28 H          -0.3279   -2.6322    0.8723 H       1  UNL1        0.0636
     29 H          -2.7184   -3.2304    0.9954 H       1  UNL1        0.0629
     30 H          -3.4586    0.2303    3.4455 H       1  UNL1        0.0629
     31 H          -1.1307    0.9204    3.1774 H       1  UNL1        0.0636
@<TRIPOS>BOND
     1     1     2    1
     2     2     3    1
     3     3     4   ar
     4     4     5   ar
     5     5     6   ar
     6     6     7   ar
     7     7     8   ar
     8     3     8   ar
     9     8     9    1
    10     9    10    2
    11     9    11   am
    12    11    12    1
    13    12    13   ar
    14    13    14   ar
    15    14    15   ar
    16    15    16    1
    17    15    17   ar
    18    17    18   ar
    19    12    18   ar
    20     1    19    1
    21     1    20    1
    22     1    21    1
    23     2    22    1
    24     4    23    1
    25     5    24    1
    26     6    25    1
    27     7    26    1
    28    11    27    1
    29    13    28    1
    30    14    29    1
    31    17    30    1
    32    18    31    1
