@<TRIPOS>MOLECULE
*****
 31 32 0 0 0
SMALL
GASTEIGER

@<TRIPOS>ATOM
      1 N          -3.0763    0.0014    0.0347 N.1     1  UNL1       -0.1909
      2 C          -1.9234    0.0242   -0.0202 C.1     1  UNL1        0.0992
      3 C          -0.4873    0.0099   -0.0527 C.ar    1  UNL1        0.0536
      4 C           0.2350    1.1994   -0.0416 C.ar    1  UNL1       -0.0442
      5 C           1.6254    1.1459    0.0121 C.ar    1  UNL1       -0.0588
      6 C           2.2853   -0.0993    0.0562 C.ar    1  UNL1       -0.0393
      7 C           1.5734   -1.3183    0.0145 C.ar    1  UNL1        0.0457
      8 N           2.2468   -2.5515    0.0624 N.pl3   1  UNL1       -0.2633
      9 N           1.5649   -3.7967    0.0036 N.am    1  UNL1       -0.2200
     10 C           2.3239   -4.9638    0.0433 C.2     1  UNL1        0.3201
     11 O           3.5506   -4.9127    0.1252 O.2     1  UNL1       -0.2509
     12 N           1.5853   -6.1456   -0.0584 N.am    1  UNL1       -0.2683
     13 C           2.1881   -7.4361    0.0188 C.ar    1  UNL1        0.0348
     14 C           1.7431   -8.5112   -0.7658 C.ar    1  UNL1       -0.0404
     15 C           2.3069   -9.7923   -0.6042 C.ar    1  UNL1       -0.0600
     16 C           3.3495   -9.9963    0.2987 C.ar    1  UNL1       -0.0616
     17 C           3.7861   -8.9374    1.0853 C.ar    1  UNL1       -0.0600
     18 C           3.2089   -7.6725    0.9433 C.ar    1  UNL1       -0.0404
     19 C           0.1799   -1.2248   -0.0507 C.ar    1  UNL1       -0.0220
     20 H          -0.2767    2.1606   -0.0601 H       1  UNL1        0.0630
     21 H           2.1917    2.0767    0.0326 H       1  UNL1        0.0619
     22 H           3.3728   -0.0888    0.1266 H       1  UNL1        0.0636
     23 H           3.2674   -2.5975    0.1031 H       1  UNL1        0.1700
     24 H           0.5600   -3.8045   -0.0471 H       1  UNL1        0.1743
     25 H           0.6004   -6.1159   -0.2818 H       1  UNL1        0.1564
     26 H           1.0174   -8.3719   -1.5631 H       1  UNL1        0.0636
     27 H           1.9409  -10.6391   -1.1823 H       1  UNL1        0.0618
     28 H           3.8250  -10.9710    0.3877 H       1  UNL1        0.0618
     29 H           4.5683   -9.0879    1.8238 H       1  UNL1        0.0618
     30 H           3.5503   -6.8731    1.5938 H       1  UNL1        0.0636
     31 H          -0.4276   -2.1195   -0.0851 H       1  UNL1        0.0649
@<TRIPOS>BOND
     1     1     2    3
     2     2     3    1
     3     3     4   ar
     4     4     5   ar
     5     5     6   ar
     6     6     7   ar
     7     7     8    1
     8     8     9    1
     9     9    10   am
    10    10    11    2
    11    10    12   am
    12    12    13    1
    13    13    14   ar
    14    14    15   ar
    15    15    16   ar
    16    16    17   ar
    17    17    18   ar
    18    13    18   ar
    19     7    19   ar
    20     3    19   ar
    21     4    20    1
    22     5    21    1
    23     6    22    1
    24     8    23    1
    25     9    24    1
    26    12    25    1
    27    14    26    1
    28    15    27    1
    29    16    28    1
    30    17    29    1
    31    18    30    1
    32    19    31    1
