REMARK  7 active torsions:
REMARK  status: ('A' for Active; 'I' for Inactive)
REMARK    1  A    between atoms: O_2  and  C_3 
REMARK    2  A    between atoms: C_6  and  N_7 
REMARK       I    between atoms: N_7  and  C_8 
REMARK       I    between atoms: C_8  and  N_19 
REMARK       I    between atoms: N_9  and  C_10 
REMARK    3  A    between atoms: C_10  and  C_12 
REMARK    4  A    between atoms: N_19  and  C_20 
REMARK    5  A    between atoms: C_20  and  C_21 
REMARK    6  A    between atoms: C_21  and  C_22 
REMARK    7  A    between atoms: C_32  and  O_33 
ROOT
ATOM      1  N   UNL d   1       5.294  -2.974  -3.536  0.00  0.00    -0.190 N 
ATOM      2  C   UNL d   1       4.905  -3.067  -4.891  0.00  0.00     0.704 C 
ATOM      3  N   UNL d   1       3.960  -2.479  -5.569  0.00  0.00    -0.023 NA
ATOM      4  C   UNL d   1       2.815  -2.130  -4.905  0.00  0.00     0.293 C 
ATOM      5  O   UNL d   1       2.260  -2.859  -4.121  0.00  0.00    -0.265 OA
ATOM      6  N   UNL d   1       5.648  -3.963  -5.680  0.00  0.00    -0.224 N 
ATOM      7  H   UNL d   1       5.874  -3.720  -3.180  0.00  0.00     0.184 HD
ATOM      8  H   UNL d   1       6.141  -4.713  -5.210  0.00  0.00     0.177 HD
ENDROOT
BRANCH   1   9
ATOM      9  C   UNL d   1       4.757  -2.151  -2.487  0.00  0.00     0.052 C 
ATOM     10  C   UNL d   1       4.971  -2.323  -1.127  0.00  0.00     0.033 C 
ATOM     11  C   UNL d   1       4.191  -1.597  -0.162  0.00  0.00     0.042 C 
ATOM     12  C   UNL d   1       3.100  -0.770  -0.509  0.00  0.00     0.101 C 
ATOM     13  C   UNL d   1       2.929  -0.570  -1.856  0.00  0.00     0.103 C 
ATOM     14  C   UNL d   1       3.928  -1.074  -2.737  0.00  0.00     0.069 C 
BRANCH  12  15
ATOM     15  O   UNL d   1       2.542  -0.059   0.520  0.00  0.00    -0.353 OA
ATOM     16  C   UNL d   1       1.131  -0.010   0.711  0.00  0.00     0.210 C 
ENDBRANCH  12  15
BRANCH  13  17
ATOM     17  O   UNL d   1       1.940   0.013  -2.572  0.00  0.00    -0.353 OA
ATOM     18  C   UNL d   1       0.845   0.694  -2.032  0.00  0.00     0.210 C 
ENDBRANCH  13  17
ENDBRANCH   1   9
BRANCH   6  19
ATOM     19  C   UNL d   1       5.136  -4.283  -7.048  0.00  0.00     0.142 C 
BRANCH  19  20
ATOM     20  C   UNL d   1       5.931  -5.354  -7.786  0.00  0.00     0.057 C 
BRANCH  20  21
ATOM     21  C   UNL d   1       5.614  -5.636  -9.241  0.00  0.00    -0.048 A 
ATOM     22  C   UNL d   1       6.328  -6.543  -9.915  0.00  0.00    -0.006 A 
ATOM     23  C   UNL d   1       7.396  -7.381  -9.497  0.00  0.00     0.014 A 
ATOM     24  C   UNL d   1       5.850  -6.527 -11.303  0.00  0.00     0.038 A 
ATOM     25  C   UNL d   1       8.006  -8.141 -10.411  0.00  0.00     0.001 A 
ATOM     26  C   UNL d   1       7.549  -8.174 -11.792  0.00  0.00     0.002 A 
ATOM     27  C   UNL d   1       6.531  -7.423 -12.264  0.00  0.00     0.030 A 
ATOM     28  N   UNL d   1       4.886  -5.700 -11.456  0.00  0.00    -0.385 N 
ATOM     29  C   UNL d   1       4.587  -5.013 -10.156  0.00  0.00     0.155 A 
ATOM     30  H   UNL d   1       4.414  -5.558 -12.349  0.00  0.00     0.160 HD
ENDBRANCH  20  21
ENDBRANCH  19  20
ENDBRANCH   6  19
BRANCH   4  31
ATOM     31  C   UNL d   1       2.045  -0.976  -5.456  0.00  0.00     0.035 C 
ATOM     32  C   UNL d   1       2.122   0.393  -5.136  0.00  0.00     0.017 C 
ATOM     33  C   UNL d   1       0.992   1.208  -5.311  0.00  0.00     0.002 C 
ATOM     34  C   UNL d   1      -0.142   0.693  -5.929  0.00  0.00     0.007 C 
ATOM     35  C   UNL d   1      -0.152  -0.634  -6.356  0.00  0.00    -0.061 C 
ATOM     36  C   UNL d   1      -1.303  -1.280  -7.033  0.00  0.00     0.048 C 
ATOM     37  C   UNL d   1       0.929  -1.460  -6.098  0.00  0.00     0.024 C 
ENDBRANCH   4  31
TORSDOF 7
