@<TRIPOS>MOLECULE
*****
 45 46 0 0 0
SMALL
GASTEIGER

@<TRIPOS>ATOM
      1 C           1.1183    0.0205    0.0057 C.3     1  UNL1       -0.0495
      2 C           2.6372    0.0133   -0.0123 C.3     1  UNL1        0.0091
      3 N           3.1780   -0.3208   -1.3168 N.am    1  UNL1       -0.3116
      4 C           4.5516   -0.4391   -1.5017 C.2     1  UNL1        0.2441
      5 O           5.3719   -0.2627   -0.6269 O.2     1  UNL1       -0.2702
      6 C           5.0065   -0.7826   -2.8807 C.ar    1  UNL1        0.0384
      7 C           6.0777   -1.6398   -3.0976 C.ar    1  UNL1       -0.0495
      8 C           6.5682   -1.8073   -4.3995 C.ar    1  UNL1       -0.0593
      9 C           5.9646   -1.1484   -5.4928 C.ar    1  UNL1       -0.0404
     10 C           4.9011   -0.2593   -5.2768 C.ar    1  UNL1        0.0341
     11 N           4.3679    0.5445   -6.3374 N.am    1  UNL1       -0.2842
     12 C           3.3814    1.5145   -6.1420 C.2     1  UNL1        0.2343
     13 O           2.6821    1.6024   -5.1254 O.2     1  UNL1       -0.2738
     14 C           3.1116    2.5398   -7.2573 C.3     1  UNL1        0.0861
     15 N           1.9289    3.2971   -6.8954 N.pl3   1  UNL1       -0.3345
     16 C           1.1303    3.8597   -7.8735 C.ar    1  UNL1        0.0425
     17 C           0.8171    5.2097   -7.5820 C.ar    1  UNL1       -0.0214
     18 C           0.0754    5.9982   -8.4436 C.ar    1  UNL1        0.0428
     19 CL         -0.3466    7.5996   -7.9827 Cl      1  UNL1       -0.0835
     20 C          -0.3319    5.4738   -9.6554 C.ar    1  UNL1       -0.0422
     21 C          -0.0755    4.1208   -9.9467 C.ar    1  UNL1       -0.0452
     22 C           0.6322    3.2604   -9.0581 C.ar    1  UNL1        0.0285
     23 S           0.7295    1.5418   -9.7133 S.3     1  UNL1       -0.1268
     24 C           1.5768    0.3908   -8.5498 C.3     1  UNL1       -0.0134
     25 C           4.4435   -0.1118   -3.9613 C.ar    1  UNL1       -0.0284
     26 H           0.7483    0.2622    1.0082 H       1  UNL1        0.0245
     27 H           0.7169   -0.9581   -0.2770 H       1  UNL1        0.0245
     28 H           0.7175    0.7627   -0.6923 H       1  UNL1        0.0245
     29 H           3.0159   -0.7196    0.7079 H       1  UNL1        0.0459
     30 H           3.0219    0.9967    0.2799 H       1  UNL1        0.0459
     31 H           2.5410   -0.4890   -2.0837 H       1  UNL1        0.1490
     32 H           6.5311   -2.1605   -2.2576 H       1  UNL1        0.0625
     33 H           7.4491   -2.4310   -4.5505 H       1  UNL1        0.0618
     34 H           6.3746   -1.3332   -6.4841 H       1  UNL1        0.0636
     35 H           4.7648    0.4103   -7.2617 H       1  UNL1        0.1549
     36 H           2.9158    2.1095   -8.2093 H       1  UNL1        0.0557
     37 H           3.9722    3.1695   -7.4733 H       1  UNL1        0.0557
     38 H           1.4880    3.0643   -5.9990 H       1  UNL1        0.1466
     39 H           1.2282    5.6545   -6.6754 H       1  UNL1        0.0651
     40 H          -0.8564    6.1051  -10.3686 H       1  UNL1        0.0632
     41 H          -0.4544    3.7455  -10.8982 H       1  UNL1        0.0630
     42 H           1.4364   -0.6618   -8.8114 H       1  UNL1        0.0344
     43 H           1.2309    0.5439   -7.5261 H       1  UNL1        0.0344
     44 H           2.6677    0.4533   -8.6380 H       1  UNL1        0.0344
     45 H           3.6654    0.5871   -3.7035 H       1  UNL1        0.0644
@<TRIPOS>BOND
     1     1     2    1
     2     2     3    1
     3     3     4   am
     4     4     5    2
     5     4     6    1
     6     6     7   ar
     7     7     8   ar
     8     8     9   ar
     9     9    10   ar
    10    10    11    1
    11    11    12   am
    12    12    13    2
    13    12    14    1
    14    14    15    1
    15    15    16    1
    16    16    17   ar
    17    17    18   ar
    18    18    19    1
    19    18    20   ar
    20    20    21   ar
    21    21    22   ar
    22    16    22   ar
    23    22    23    1
    24    23    24    1
    25    10    25   ar
    26     6    25   ar
    27     1    26    1
    28     1    27    1
    29     1    28    1
    30     2    29    1
    31     2    30    1
    32     3    31    1
    33     7    32    1
    34     8    33    1
    35     9    34    1
    36    11    35    1
    37    14    36    1
    38    14    37    1
    39    15    38    1
    40    17    39    1
    41    20    40    1
    42    21    41    1
    43    24    42    1
    44    24    43    1
    45    24    44    1
    46    25    45    1
