REMARK  12 active torsions:
REMARK  status: ('A' for Active; 'I' for Inactive)
REMARK    1  A    between atoms: C_2  and  C_3 
REMARK    2  A    between atoms: C_3  and  N_4 
REMARK       I    between atoms: N_4  and  C_5 
REMARK    3  A    between atoms: C_17  and  N_4 
REMARK    4  A    between atoms: C_5  and  C_7 
REMARK    5  A    between atoms: C_7  and  N_8 
REMARK       I    between atoms: N_8  and  C_9 
REMARK    6  A    between atoms: C_9  and  C_11 
REMARK    7  A    between atoms: C_17  and  C_27 
REMARK    8  A    between atoms: C_17  and  C_18 
REMARK       I    between atoms: C_18  and  N_20 
REMARK    9  A    between atoms: N_20  and  C_21 
REMARK   10  A    between atoms: C_28  and  O_29 
REMARK   11  A    between atoms: C_31  and  O_32 
REMARK   12  A    between atoms: C_34  and  O_35 
ROOT
ATOM      1  C   UNL d   1       5.253   2.666   0.234  0.00  0.00     0.218 C 
ENDROOT
BRANCH   1   2
ATOM      2  C   UNL d   1       6.735   2.351   0.098  0.00  0.00     0.040 C 
ATOM      3  C   UNL d   1       7.288   1.066   0.073  0.00  0.00     0.080 C 
ATOM      4  C   UNL d   1       8.655   0.870   0.240  0.00  0.00     0.073 C 
ATOM      5  C   UNL d   1       9.510   1.958   0.302  0.00  0.00     0.071 C 
ATOM      6  C   UNL d   1       9.024   3.245   0.203  0.00  0.00     0.073 C 
ATOM      7  C   UNL d   1       7.657   3.425   0.043  0.00  0.00     0.080 C 
BRANCH   3   8
ATOM      8  O   UNL d   1       6.625  -0.103  -0.170  0.00  0.00    -0.360 OA
ATOM      9  H   UNL d   1       5.768   0.044  -0.613  0.00  0.00     0.217 HD
ENDBRANCH   3   8
BRANCH   5  10
ATOM     10  O   UNL d   1      10.858   1.788   0.379  0.00  0.00    -0.361 OA
ATOM     11  H   UNL d   1      11.041   0.843   0.246  0.00  0.00     0.217 HD
ENDBRANCH   5  10
BRANCH   7  12
ATOM     12  O   UNL d   1       7.228   4.683  -0.288  0.00  0.00    -0.360 OA
ATOM     13  H   UNL d   1       7.895   5.338  -0.015  0.00  0.00     0.217 HD
ENDBRANCH   7  12
ENDBRANCH   1   2
BRANCH   1  14
ATOM     14  C   UNL d   1       4.259   1.583  -0.238  0.00  0.00     0.245 C 
ATOM     15  O   UNL d   1       3.557   1.820  -1.224  0.00  0.00    -0.271 OA
ATOM     16  N   UNL d   1       4.199   0.360   0.433  0.00  0.00    -0.354 N 
ATOM     17  H   UNL d   1       4.846   0.216   1.218  0.00  0.00     0.162 HD
BRANCH  16  18
ATOM     18  C   UNL d   1       2.976  -0.447   0.485  0.00  0.00     0.084 C 
ATOM     19  C   UNL d   1       1.761   0.488   0.496  0.00  0.00     0.025 C 
ATOM     20  C   UNL d   1       0.424  -0.150   0.241  0.00  0.00     0.002 C 
ATOM     21  C   UNL d   1       0.505  -1.033  -0.998  0.00  0.00     0.000 C 
ATOM     22  C   UNL d   1       1.571  -2.108  -0.824  0.00  0.00     0.002 C 
ATOM     23  C   UNL d   1       2.956  -1.496  -0.627  0.00  0.00     0.025 C 
ENDBRANCH  16  18
ENDBRANCH   1  14
BRANCH   1  24
ATOM     24  N   UNL d   1       4.858   3.342   1.521  0.00  0.00    -0.333 N 
ATOM     25  C   UNL d   1       4.652   2.543   2.653  0.00  0.00     0.238 C 
ATOM     26  O   UNL d   1       4.728   1.309   2.631  0.00  0.00    -0.272 OA
BRANCH  24  27
ATOM     27  C   UNL d   1       4.875   4.840   1.470  0.00  0.00     0.127 C 
BRANCH  27  28
ATOM     28  C   UNL d   1       4.710   5.592   2.766  0.00  0.00     0.015 C 
ATOM     29  C   UNL d   1       4.891   7.080   2.768  0.00  0.00     0.006 C 
ENDBRANCH  27  28
ENDBRANCH  24  27
BRANCH  25  30
ATOM     30  C   UNL d   1       4.332   3.182   3.995  0.00  0.00     0.225 C 
BRANCH  30  31
ATOM     31  N   UNL d   1       4.031   2.275   5.058  0.00  0.00    -0.348 N 
ATOM     32  C   UNL d   1       3.785   2.806   6.297  0.00  0.00     0.252 C 
ATOM     33  O   UNL d   1       3.785   4.018   6.540  0.00  0.00    -0.268 OA
ATOM     34  H   UNL d   1       3.967   1.288   4.838  0.00  0.00     0.163 HD
BRANCH  32  35
ATOM     35  C   UNL d   1       3.528   1.840   7.367  0.00  0.00     0.032 A 
ATOM     36  C   UNL d   1       2.569   2.133   8.338  0.00  0.00     0.017 A 
ATOM     37  C   UNL d   1       2.425   1.280   9.427  0.00  0.00     0.001 A 
ATOM     38  C   UNL d   1       3.192   0.115   9.507  0.00  0.00     0.000 A 
ATOM     39  C   UNL d   1       4.135  -0.181   8.521  0.00  0.00     0.001 A 
ATOM     40  C   UNL d   1       4.313   0.687   7.452  0.00  0.00     0.017 A 
ENDBRANCH  32  35
ENDBRANCH  30  31
ENDBRANCH  25  30
ENDBRANCH   1  24
TORSDOF 12
