REMARK  8 active torsions:
REMARK  status: ('A' for Active; 'I' for Inactive)
REMARK    1  A    between atoms: N_2  and  C_25 
REMARK    2  A    between atoms: N_2  and  C_3 
REMARK    3  A    between atoms: C_3  and  C_4 
REMARK    4  A    between atoms: C_5  and  C_6 
REMARK       I    between atoms: C_6  and  N_8 
REMARK    5  A    between atoms: N_8  and  N_9 
REMARK    6  A    between atoms: C_10  and  C_11 
REMARK    7  A    between atoms: N_18  and  C_19 
REMARK    8  A    between atoms: C_23  and  N_24 
ROOT
ATOM      1  C   UNL d   1       0.628  -0.764  -1.361  0.00  0.00     0.096 A 
ATOM      2  C   UNL d   1       1.352  -1.300  -2.453  0.00  0.00     0.170 A 
ATOM      3  N   UNL d   1       0.382  -1.693  -3.359  0.00  0.00    -0.152 NA
ATOM      4  N   UNL d   1      -0.832  -1.581  -2.830  0.00  0.00     0.012 NA
ATOM      5  N   UNL d   1      -0.748  -1.003  -1.618  0.00  0.00    -0.215 N 
ENDROOT
BRANCH   2   6
ATOM      6  C   UNL d   1       2.847  -1.408  -2.882  0.00  0.00     0.293 C 
ATOM      7  O   UNL d   1       3.117  -1.623  -4.074  0.00  0.00    -0.264 OA
ATOM      8  N   UNL d   1       3.909  -1.200  -1.962  0.00  0.00    -0.242 N 
ATOM      9  H   UNL d   1       3.789  -1.215  -0.981  0.00  0.00     0.192 HD
BRANCH   8  10
ATOM     10  N   UNL d   1       5.252  -0.951  -2.293  0.00  0.00    -0.183 NA
ATOM     11  C   UNL d   1       6.020  -0.590  -1.295  0.00  0.00     0.157 C 
BRANCH  11  12
ATOM     12  C   UNL d   1       7.454  -0.451  -1.350  0.00  0.00     0.024 A 
ATOM     13  C   UNL d   1       8.287  -0.057  -2.373  0.00  0.00     0.021 A 
ATOM     14  C   UNL d   1       9.666  -0.116  -1.997  0.00  0.00     0.008 A 
ATOM     15  C   UNL d   1       9.837  -0.561  -0.705  0.00  0.00     0.050 A 
ATOM     16  S   UNL d   1       8.341  -0.851   0.068  0.00  0.00    -0.101 SA
ENDBRANCH  11  12
ENDBRANCH   8  10
ENDBRANCH   2   6
BRANCH   1  17
ATOM     17  C   UNL d   1       0.957  -0.107  -0.091  0.00  0.00     0.296 C 
BRANCH  17  18
ATOM     18  N   UNL d   1       2.406   0.100   0.090  0.00  0.00    -0.065 N 
ATOM     19  C   UNL d   1       2.916   1.109  -0.980  0.00  0.00     0.270 C 
ATOM     20  H   UNL d   1       2.698  -0.875   0.067  0.00  0.00     0.280 HD
BRANCH  18  21
ATOM     21  C   UNL d   1       2.891   0.518   1.457  0.00  0.00     0.188 C 
ATOM     22  C   UNL d   1       2.595   1.997   1.633  0.00  0.00     0.033 C 
ATOM     23  C   UNL d   1       2.899   2.482   3.019  0.00  0.00     0.002 C 
ATOM     24  C   UNL d   1       2.198   1.615   4.048  0.00  0.00     0.000 C 
ATOM     25  C   UNL d   1       2.623   0.152   3.927  0.00  0.00     0.002 C 
ATOM     26  C   UNL d   1       2.297  -0.381   2.544  0.00  0.00     0.033 C 
ENDBRANCH  18  21
ENDBRANCH  17  18
ENDBRANCH   1  17
BRANCH   5  27
ATOM     27  C   UNL d   1      -1.896  -0.632  -0.824  0.00  0.00     0.225 A 
ATOM     28  N   UNL d   1      -2.836  -1.533  -0.523  0.00  0.00    -0.081 NA
ATOM     29  O   UNL d   1      -3.722  -0.843   0.323  0.00  0.00    -0.103 OA
ATOM     30  N   UNL d   1      -3.306   0.473   0.519  0.00  0.00    -0.083 NA
ATOM     31  C   UNL d   1      -2.193   0.598  -0.197  0.00  0.00     0.201 A 
BRANCH  31  32
ATOM     32  N   UNL d   1      -1.486   1.747  -0.301  0.00  0.00    -0.379 N 
ATOM     33  H   UNL d   1      -1.979   2.589   0.007  0.00  0.00     0.158 HD
ATOM     34  H   UNL d   1      -0.966   1.937  -1.152  0.00  0.00     0.158 HD
ENDBRANCH  31  32
ENDBRANCH   5  27
TORSDOF 8
