REMARK  4 active torsions:
REMARK  status: ('A' for Active; 'I' for Inactive)
REMARK       I    between atoms: C_2  and  N_3 
REMARK    1  A    between atoms: C_2  and  C_13 
REMARK    2  A    between atoms: N_3  and  N_4 
REMARK    3  A    between atoms: C_5  and  C_6 
REMARK    4  A    between atoms: C_9  and  O_10 
ROOT
ATOM      1  O   UNL d   1       0.961  -0.173  -0.049  0.00  0.00    -0.266 OA
ATOM      2  C   UNL d   1       2.182  -0.036  -0.072  0.00  0.00     0.274 C 
ATOM      3  N   UNL d   1       2.890   0.769  -0.954  0.00  0.00    -0.243 N 
ATOM      4  H   UNL d   1       3.898   0.744  -0.930  0.00  0.00     0.192 HD
ENDROOT
BRANCH   2   5
ATOM      5  C   UNL d   1       3.029  -0.817   0.879  0.00  0.00     0.061 A 
ATOM      6  C   UNL d   1       2.669  -2.135   1.223  0.00  0.00     0.019 A 
ATOM      7  C   UNL d   1       3.462  -2.910   2.073  0.00  0.00     0.002 A 
ATOM      8  C   UNL d   1       4.630  -2.386   2.629  0.00  0.00     0.014 A 
ATOM      9  C   UNL d   1       4.983  -1.052   2.356  0.00  0.00    -0.007 A 
ATOM     10  C   UNL d   1       6.041  -0.220   2.807  0.00  0.00     0.030 A 
ATOM     11  C   UNL d   1       4.185  -0.292   1.492  0.00  0.00     0.058 A 
ATOM     12  C   UNL d   1       5.858   1.023   2.251  0.00  0.00     0.089 A 
ATOM     13  N   UNL d   1       4.743   0.971   1.460  0.00  0.00    -0.364 N 
ATOM     14  H   UNL d   1       4.355   1.759   0.957  0.00  0.00     0.165 HD
ENDBRANCH   2   5
BRANCH   3  15
ATOM     15  N   UNL d   1       2.265   1.505  -1.928  0.00  0.00    -0.183 NA
ATOM     16  C   UNL d   1       2.982   2.156  -2.802  0.00  0.00     0.150 C 
BRANCH  16  17
ATOM     17  C   UNL d   1       4.453   2.146  -2.960  0.00  0.00    -0.017 A 
ATOM     18  C   UNL d   1       5.137   0.928  -2.886  0.00  0.00     0.015 A 
ATOM     19  C   UNL d   1       6.525   0.891  -2.969  0.00  0.00     0.037 A 
ATOM     20  C   UNL d   1       7.218   2.071  -3.205  0.00  0.00     0.065 A 
ATOM     21  C   UNL d   1       6.546   3.286  -3.328  0.00  0.00     0.037 A 
ATOM     22  C   UNL d   1       5.152   3.332  -3.205  0.00  0.00     0.015 A 
BRANCH  20  23
ATOM     23  O   UNL d   1       8.573   2.079  -3.344  0.00  0.00    -0.361 OA
ATOM     24  H   UNL d   1       8.903   1.166  -3.292  0.00  0.00     0.217 HD
ENDBRANCH  20  23
ENDBRANCH  16  17
ENDBRANCH   3  15
TORSDOF 4
