REMARK  9 active torsions:
REMARK  status: ('A' for Active; 'I' for Inactive)
REMARK    1  A    between atoms: C_3  and  C_2 
REMARK    2  A    between atoms: C_3  and  N_5 
REMARK       I    between atoms: N_5  and  C_6 
REMARK    3  A    between atoms: C_6  and  C_8 
REMARK    4  A    between atoms: C_8  and  N_10 
REMARK       I    between atoms: N_10  and  C_11 
REMARK       I    between atoms: C_11  and  N_13 
REMARK    5  A    between atoms: N_13  and  C_14 
REMARK    6  A    between atoms: C_14  and  C_15 
REMARK    7  A    between atoms: C_15  and  N_16 
REMARK    8  A    between atoms: N_16  and  C_17 
REMARK    9  A    between atoms: C_22  and  N_23 
ROOT
ATOM      1  N   UNL d   1       7.397  -3.575  -1.793  0.00  0.00    -0.330 N 
ATOM      2  C   UNL d   1       8.754  -3.726  -1.938  0.00  0.00     0.316 C 
ATOM      3  O   UNL d   1       9.563  -2.880  -1.589  0.00  0.00    -0.247 OA
ATOM      4  N   UNL d   1       9.144  -4.944  -2.434  0.00  0.00    -0.342 N 
ATOM      5  H   UNL d   1       6.747  -4.248  -2.180  0.00  0.00     0.165 HD
ATOM      6  H   UNL d   1       8.465  -5.524  -2.904  0.00  0.00     0.164 HD
ENDROOT
BRANCH   4   7
ATOM      7  C   UNL d   1      10.572  -5.236  -2.600  0.00  0.00     0.144 C 
BRANCH   7   8
ATOM      8  C   UNL d   1      10.836  -6.616  -3.218  0.00  0.00     0.139 C 
BRANCH   8   9
ATOM      9  N   UNL d   1      12.250  -6.828  -3.538  0.00  0.00    -0.386 N 
ATOM     10  H   UNL d   1      12.935  -6.251  -3.056  0.00  0.00     0.159 HD
BRANCH   9  11
ATOM     11  C   UNL d   1      12.730  -7.971  -4.172  0.00  0.00     0.061 A 
ATOM     12  C   UNL d   1      13.787  -8.665  -3.530  0.00  0.00     0.031 A 
ATOM     13  C   UNL d   1      14.389  -9.806  -4.086  0.00  0.00     0.002 A 
ATOM     14  C   UNL d   1      13.900 -10.339  -5.268  0.00  0.00     0.003 A 
ATOM     15  C   UNL d   1      12.843  -9.705  -5.912  0.00  0.00     0.038 A 
ATOM     16  C   UNL d   1      12.260  -8.529  -5.381  0.00  0.00     0.129 A 
BRANCH  16  17
ATOM     17  N   UNL d   1      11.239  -7.901  -6.240  0.00  0.00    -0.113 N 
ATOM     18  O   UNL d   1      10.687  -8.620  -7.083  0.00  0.00    -0.532 OA
ATOM     19  O   UNL d   1      11.000  -6.688  -6.127  0.00  0.00    -0.532 OA
ENDBRANCH  16  17
ENDBRANCH   9  11
ENDBRANCH   8   9
ENDBRANCH   7   8
ENDBRANCH   4   7
BRANCH   1  20
ATOM     20  C   UNL d   1       6.809  -2.381  -1.144  0.00  0.00     0.174 C 
ATOM     21  C   UNL d   1       7.292  -2.265   0.297  0.00  0.00     0.042 C 
BRANCH  20  22
ATOM     22  C   UNL d   1       5.252  -2.452  -1.132  0.00  0.00     0.240 C 
ATOM     23  N   UNL d   1       4.580  -1.390  -0.522  0.00  0.00    -0.355 N 
ATOM     24  H   UNL d   1       5.105  -0.567  -0.253  0.00  0.00     0.162 HD
ATOM     25  O   UNL d   1       4.662  -3.400  -1.653  0.00  0.00    -0.271 OA
BRANCH  23  26
ATOM     26  C   UNL d   1       3.110  -1.263  -0.564  0.00  0.00     0.080 C 
ATOM     27  C   UNL d   1       2.602  -0.037   0.226  0.00  0.00     0.032 C 
BRANCH  26  28
ATOM     28  C   UNL d   1       2.627  -1.166  -2.024  0.00  0.00     0.020 C 
ATOM     29  C   UNL d   1       3.175   0.104  -2.664  0.00  0.00     0.007 C 
ENDBRANCH  26  28
ENDBRANCH  23  26
ENDBRANCH  20  22
ENDBRANCH   1  20
TORSDOF 9
