REMARK  11 active torsions:
REMARK  status: ('A' for Active; 'I' for Inactive)
REMARK    1  A    between atoms: C_2  and  C_3 
REMARK    2  A    between atoms: C_3  and  O_4 
REMARK    3  A    between atoms: O_4  and  C_5 
REMARK    4  A    between atoms: C_5  and  C_7 
REMARK    5  A    between atoms: C_7  and  C_8 
REMARK    6  A    between atoms: C_8  and  C_9 
REMARK       I    between atoms: C_9  and  N_11 
REMARK    7  A    between atoms: N_11  and  C_12 
REMARK    8  A    between atoms: C_12  and  N_14 
REMARK    9  A    between atoms: N_14  and  C_15 
REMARK   10  A    between atoms: C_19  and  C_20 
REMARK       I    between atoms: C_20  and  N_22 
REMARK   11  A    between atoms: N_22  and  C_23 
ROOT
ATOM      1  C   UNL d   1      10.976   4.245  -3.027  0.00  0.00     0.178 C 
ATOM      2  S   UNL d   1      11.866   3.239  -1.986  0.00  0.00    -0.040 SA
ENDROOT
BRANCH   1   3
ATOM      3  N   UNL d   1       9.557   4.201  -3.103  0.00  0.00    -0.304 N 
ATOM      4  C   UNL d   1       8.758   3.271  -2.405  0.00  0.00     0.224 C 
ATOM      5  O   UNL d   1       9.215   2.335  -1.748  0.00  0.00    -0.273 OA
ATOM      6  H   UNL d   1       9.082   4.897  -3.664  0.00  0.00     0.171 HD
BRANCH   4   7
ATOM      7  C   UNL d   1       7.240   3.368  -2.465  0.00  0.00     0.113 C 
BRANCH   7   8
ATOM      8  C   UNL d   1       6.621   2.228  -1.589  0.00  0.00     0.120 C 
BRANCH   8   9
ATOM      9  C   UNL d   1       5.113   2.241  -1.599  0.00  0.00     0.259 C 
ATOM     10  O   UNL d   1       4.452   3.065  -2.232  0.00  0.00    -0.265 OA
BRANCH   9  11
ATOM     11  O   UNL d   1       4.574   1.243  -0.834  0.00  0.00    -0.321 OA
BRANCH  11  12
ATOM     12  C   UNL d   1       3.129   1.230  -0.824  0.00  0.00     0.178 C 
BRANCH  12  13
ATOM     13  C   UNL d   1       2.588   0.093   0.048  0.00  0.00     0.022 C 
ATOM     14  C   UNL d   1       1.063   0.073   0.064  0.00  0.00     0.007 C 
ENDBRANCH  12  13
ENDBRANCH  11  12
ENDBRANCH   9  11
ENDBRANCH   8   9
ENDBRANCH   7   8
ENDBRANCH   4   7
ENDBRANCH   1   3
BRANCH   1  15
ATOM     15  N   UNL d   1      11.603   5.217  -3.855  0.00  0.00    -0.333 N 
ATOM     16  H   UNL d   1      11.086   6.026  -4.181  0.00  0.00     0.168 HD
BRANCH  15  17
ATOM     17  C   UNL d   1      13.040   5.303  -4.015  0.00  0.00     0.035 A 
ATOM     18  C   UNL d   1      13.747   6.506  -3.952  0.00  0.00     0.029 A 
ATOM     19  C   UNL d   1      15.151   6.505  -4.095  0.00  0.00     0.003 A 
ATOM     20  C   UNL d   1      15.858   5.303  -4.252  0.00  0.00     0.017 A 
ATOM     21  C   UNL d   1      15.165   4.095  -4.343  0.00  0.00     0.034 A 
ATOM     22  C   UNL d   1      13.768   4.130  -4.263  0.00  0.00     0.046 A 
BRANCH  21  23
ATOM     23  C   UNL d   1      15.906   2.812  -4.571  0.00  0.00     0.251 C 
ATOM     24  O   UNL d   1      17.132   2.827  -4.694  0.00  0.00    -0.268 OA
ATOM     25  N   UNL d   1      15.168   1.644  -4.659  0.00  0.00    -0.357 N 
ATOM     26  H   UNL d   1      14.175   1.636  -4.485  0.00  0.00     0.162 HD
BRANCH  25  27
ATOM     27  C   UNL d   1      15.792   0.363  -4.910  0.00  0.00     0.118 C 
ATOM     28  C   UNL d   1      14.771  -0.762  -4.960  0.00  0.00     0.026 C 
ENDBRANCH  25  27
ENDBRANCH  21  23
ENDBRANCH  15  17
ENDBRANCH   1  15
TORSDOF 11
