@<TRIPOS>MOLECULE
*****
 68 72 0 0 0
SMALL
GASTEIGER

@<TRIPOS>ATOM
      1 C           1.0864   -0.0757    0.1318 C.3     1  UNL1        0.0788
      2 O           2.5075    0.0270    0.1815 O.3     1  UNL1       -0.4951
      3 C           3.1685   -0.8022    1.0460 C.ar    1  UNL1        0.1201
      4 C           4.3780   -0.3169    1.5543 C.ar    1  UNL1       -0.0193
      5 C           5.2224   -1.1268    2.3418 C.ar    1  UNL1       -0.0476
      6 C           4.8360   -2.4236    2.6960 C.ar    1  UNL1        0.0198
      7 C           5.7048   -3.3269    3.4893 C.ar    1  UNL1        0.1694
      8 N           6.1181   -3.2055    4.7378 N.ar    1  UNL1       -0.1279
      9 N           6.8300   -4.3560    5.0788 N.ar    1  UNL1       -0.1218
     10 C           6.8670   -5.1600    4.0298 C.ar    1  UNL1        0.1968
     11 S           7.8208   -6.6540    3.9713 S.3     1  UNL1       -0.0763
     12 C           7.6985   -7.3862    2.3078 C.3     1  UNL1        0.0793
     13 C           8.3602   -8.7221    2.0403 C.2     1  UNL1        0.2425
     14 O           8.9487   -9.3566    2.9238 O.2     1  UNL1       -0.2732
     15 N           8.1757   -9.2112    0.7242 N.am    1  UNL1       -0.2063
     16 N           8.7078  -10.4423    0.4331 N.2     1  UNL1       -0.1877
     17 C           8.6713  -10.9096   -0.7725 C.2     1  UNL1        0.0529
     18 C           9.2694  -12.2410   -1.0613 C.ar    1  UNL1       -0.0020
     19 C           9.9281  -12.5140   -2.2609 C.ar    1  UNL1       -0.0529
     20 C          10.3825  -13.8145   -2.5249 C.ar    1  UNL1       -0.0577
     21 C          10.2091  -14.8290   -1.5770 C.ar    1  UNL1       -0.0193
     22 C           9.5641  -14.5495   -0.3688 C.ar    1  UNL1        0.1290
     23 O           9.4190  -15.6030    0.5096 O.3     1  UNL1       -0.4560
     24 C           8.6014  -15.4456    1.6076 C.ar    1  UNL1        0.1284
     25 C           9.1367  -15.7777    2.8506 C.ar    1  UNL1       -0.0193
     26 C           8.3366  -15.7028    3.9914 C.ar    1  UNL1       -0.0583
     27 C           7.0302  -15.2199    3.9008 C.ar    1  UNL1       -0.0615
     28 C           6.4981  -14.8731    2.6604 C.ar    1  UNL1       -0.0583
     29 C           7.2685  -15.0279    1.5085 C.ar    1  UNL1       -0.0193
     30 C           9.1258  -13.2477   -0.1092 C.ar    1  UNL1       -0.0107
     31 N           6.1525   -4.5510    3.0174 N.ar    1  UNL1       -0.2703
     32 C           5.9823   -4.9743    1.7039 C.ar    1  UNL1        0.0507
     33 C           5.2572   -6.1339    1.4541 C.ar    1  UNL1       -0.0343
     34 C           5.3833   -6.7148    0.1989 C.ar    1  UNL1       -0.0180
     35 C           6.0606   -6.0409   -0.8215 C.ar    1  UNL1        0.1202
     36 O           6.0784   -6.6863   -2.0256 O.3     1  UNL1       -0.4951
     37 C           6.4775   -5.8779   -3.1288 C.3     1  UNL1        0.0788
     38 C           6.6816   -4.8131   -0.5660 C.ar    1  UNL1       -0.0180
     39 C           6.6602   -4.2764    0.7086 C.ar    1  UNL1       -0.0343
     40 C           3.6166   -2.8979    2.1728 C.ar    1  UNL1       -0.0476
     41 C           2.7948   -2.1040    1.3532 C.ar    1  UNL1       -0.0193
     42 H           0.7327    0.5714   -0.6797 H       1  UNL1        0.0660
     43 H           0.6511    0.2937    1.0650 H       1  UNL1        0.0660
     44 H           0.7295   -1.0847   -0.0936 H       1  UNL1        0.0660
     45 H           4.6708    0.7067    1.3276 H       1  UNL1        0.0654
     46 H           6.1979   -0.7395    2.6282 H       1  UNL1        0.0626
     47 H           8.0473   -6.6705    1.5590 H       1  UNL1        0.0476
     48 H           6.6614   -7.6765    2.2141 H       1  UNL1        0.0476
     49 H           7.6701   -8.7041   -0.0012 H       1  UNL1        0.1772
     50 H           8.2076  -10.3808   -1.6241 H       1  UNL1        0.0851
     51 H          10.1280  -11.7236   -2.9776 H       1  UNL1        0.0624
     52 H          10.8700  -14.0428   -3.4711 H       1  UNL1        0.0619
     53 H          10.5876  -15.8303   -1.7793 H       1  UNL1        0.0654
     54 H          10.1767  -16.0804    2.9334 H       1  UNL1        0.0654
     55 H           8.7326  -16.0171    4.9530 H       1  UNL1        0.0619
     56 H           6.4280  -15.1119    4.7991 H       1  UNL1        0.0618
     57 H           5.4847  -14.4875    2.5892 H       1  UNL1        0.0619
     58 H           6.8400  -14.7695    0.5444 H       1  UNL1        0.0654
     59 H           8.6445  -12.9964    0.8306 H       1  UNL1        0.0661
     60 H           4.7509   -6.6630    2.2630 H       1  UNL1        0.0639
     61 H           5.0248   -7.7304    0.0455 H       1  UNL1        0.0655
     62 H           6.2570   -6.4256   -4.0471 H       1  UNL1        0.0660
     63 H           7.5563   -5.6968   -3.0887 H       1  UNL1        0.0660
     64 H           5.9213   -4.9328   -3.1626 H       1  UNL1        0.0660
     65 H           7.2366   -4.2725   -1.3240 H       1  UNL1        0.0655
     66 H           7.2128   -3.3638    0.9258 H       1  UNL1        0.0639
     67 H           3.3054   -3.9239    2.3578 H       1  UNL1        0.0626
     68 H           1.8941   -2.5490    0.9445 H       1  UNL1        0.0654
@<TRIPOS>BOND
     1     1     2    1
     2     2     3    1
     3     3     4   ar
     4     4     5   ar
     5     5     6   ar
     6     6     7    1
     7     7     8   ar
     8     8     9   ar
     9     9    10   ar
    10    10    11    1
    11    11    12    1
    12    12    13    1
    13    13    14    2
    14    13    15   am
    15    15    16    1
    16    16    17    2
    17    17    18    1
    18    18    19   ar
    19    19    20   ar
    20    20    21   ar
    21    21    22   ar
    22    22    23    1
    23    23    24    1
    24    24    25   ar
    25    25    26   ar
    26    26    27   ar
    27    27    28   ar
    28    28    29   ar
    29    24    29   ar
    30    22    30   ar
    31    18    30   ar
    32    10    31   ar
    33     7    31   ar
    34    31    32    1
    35    32    33   ar
    36    33    34   ar
    37    34    35   ar
    38    35    36    1
    39    36    37    1
    40    35    38   ar
    41    38    39   ar
    42    32    39   ar
    43     6    40   ar
    44    40    41   ar
    45     3    41   ar
    46     1    42    1
    47     1    43    1
    48     1    44    1
    49     4    45    1
    50     5    46    1
    51    12    47    1
    52    12    48    1
    53    15    49    1
    54    17    50    1
    55    19    51    1
    56    20    52    1
    57    21    53    1
    58    25    54    1
    59    26    55    1
    60    27    56    1
    61    28    57    1
    62    29    58    1
    63    30    59    1
    64    33    60    1
    65    34    61    1
    66    37    62    1
    67    37    63    1
    68    37    64    1
    69    38    65    1
    70    39    66    1
    71    40    67    1
    72    41    68    1
