REMARK  7 active torsions:
REMARK  status: ('A' for Active; 'I' for Inactive)
REMARK    1  A    between atoms: C_2  and  S_3 
REMARK    2  A    between atoms: C_2  and  C_16 
REMARK    3  A    between atoms: S_3  and  C_4 
REMARK    4  A    between atoms: C_7  and  C_8 
REMARK       I    between atoms: C_16  and  N_18 
REMARK    5  A    between atoms: N_18  and  C_19 
REMARK    6  A    between atoms: C_19  and  C_20 
REMARK       I    between atoms: C_20  and  N_22 
REMARK    7  A    between atoms: N_22  and  C_23 
ROOT
ATOM      1  C   UNL d   1       2.982  -0.492   1.339  0.00  0.00     0.232 C 
ATOM      2  O   UNL d   1       2.197  -0.834   2.232  0.00  0.00    -0.272 OA
ATOM      3  N   UNL d   1       4.340  -0.610   1.541  0.00  0.00    -0.351 N 
ATOM      4  H   UNL d   1       5.001  -0.291   0.836  0.00  0.00     0.163 HD
ENDROOT
BRANCH   1   5
ATOM      5  C   UNL d   1       2.479  -0.010  -0.061  0.00  0.00     0.143 C 
ATOM      6  C   UNL d   1       0.947  -0.018  -0.071  0.00  0.00     0.031 C 
BRANCH   5   7
ATOM      7  S   UNL d   1       3.110   1.661  -0.413  0.00  0.00    -0.076 SA
BRANCH   7   8
ATOM      8  C   UNL d   1       2.503   2.195  -1.949  0.00  0.00     0.190 A 
ATOM      9  N   UNL d   1       2.566   3.442  -2.358  0.00  0.00    -0.122 NA
ATOM     10  N   UNL d   1       2.124   3.492  -3.660  0.00  0.00    -0.129 NA
ATOM     11  C   UNL d   1       1.767   2.276  -4.024  0.00  0.00     0.165 A 
ATOM     12  N   UNL d   1       1.990   1.427  -2.957  0.00  0.00    -0.316 N 
ATOM     13  H   UNL d   1       1.831   0.433  -2.957  0.00  0.00     0.169 HD
BRANCH  11  14
ATOM     14  C   UNL d   1       1.253   1.890  -5.335  0.00  0.00     0.050 A 
ATOM     15  C   UNL d   1       1.975   2.200  -6.498  0.00  0.00     0.018 A 
ATOM     16  C   UNL d   1       1.464   1.883  -7.764  0.00  0.00     0.001 A 
ATOM     17  C   UNL d   1       0.217   1.272  -7.883  0.00  0.00     0.003 A 
ATOM     18  C   UNL d   1      -0.515   0.970  -6.736  0.00  0.00     0.043 A 
ATOM     19  C   UNL d   1       0.009   1.270  -5.477  0.00  0.00     0.130 A 
ATOM     20  F   UNL d   1      -0.719   0.966  -4.391  0.00  0.00    -0.205 F 
ENDBRANCH  11  14
ENDBRANCH   7   8
ENDBRANCH   5   7
ENDBRANCH   1   5
BRANCH   3  21
ATOM     21  C   UNL d   1       4.911  -1.046   2.832  0.00  0.00     0.225 C 
BRANCH  21  22
ATOM     22  C   UNL d   1       6.451  -1.006   2.792  0.00  0.00     0.239 C 
ATOM     23  O   UNL d   1       7.026  -0.647   1.758  0.00  0.00    -0.271 OA
ATOM     24  N   UNL d   1       7.124  -1.424   3.942  0.00  0.00    -0.323 N 
ATOM     25  H   UNL d   1       6.628  -1.990   4.626  0.00  0.00     0.169 HD
BRANCH  24  26
ATOM     26  C   UNL d   1       8.551  -1.443   4.007  0.00  0.00     0.077 A 
ATOM     27  C   UNL d   1       9.296  -0.378   3.484  0.00  0.00     0.036 A 
ATOM     28  C   UNL d   1      10.694  -0.394   3.509  0.00  0.00     0.048 A 
ATOM     29  C   UNL d   1      11.359  -1.485   4.053  0.00  0.00     0.158 A 
ATOM     30  F   UNL d   1      12.700  -1.501   4.053  0.00  0.00    -0.203 F 
ATOM     31  C   UNL d   1      10.641  -2.545   4.593  0.00  0.00     0.195 A 
ATOM     32  F   UNL d   1      11.298  -3.600   5.099  0.00  0.00    -0.199 F 
ATOM     33  C   UNL d   1       9.243  -2.515   4.591  0.00  0.00     0.184 A 
ATOM     34  F   UNL d   1       8.564  -3.561   5.089  0.00  0.00    -0.200 F 
ENDBRANCH  24  26
ENDBRANCH  21  22
ENDBRANCH   3  21
TORSDOF 7
