REMARK  4 active torsions:
REMARK  status: ('A' for Active; 'I' for Inactive)
REMARK    1  A    between atoms: C_4  and  C_5 
REMARK    2  A    between atoms: C_13  and  C_14 
REMARK    3  A    between atoms: N_24  and  C_25 
REMARK    4  A    between atoms: C_30  and  C_31 
ROOT
ATOM      1  C   UNL d   1       0.801   0.580   0.170  0.00  0.00     0.063 C 
ATOM      2  C   UNL d   1       2.368   0.554   0.561  0.00  0.00     0.004 C 
ATOM      3  C   UNL d   1       2.945  -0.495   1.229  0.00  0.00    -0.008 C 
ATOM      4  C   UNL d   1       2.407  -1.759   1.940  0.00  0.00     0.126 C 
ATOM      5  C   UNL d   1       3.116  -1.718   3.263  0.00  0.00     0.026 C 
ATOM      6  C   UNL d   1       4.283  -1.041   3.402  0.00  0.00     0.018 C 
ATOM      7  C   UNL d   1       4.870  -0.783   4.736  0.00  0.00     0.067 C 
ATOM      8  C   UNL d   1       4.122  -1.351   5.947  0.00  0.00     0.038 C 
ATOM      9  C   UNL d   1       2.804  -2.074   5.760  0.00  0.00     0.094 C 
ATOM     10  C   UNL d   1       2.387  -2.323   4.381  0.00  0.00     0.159 C 
ATOM     11  O   UNL d   1       1.369  -2.993   4.207  0.00  0.00    -0.293 OA
ATOM     12  N   UNL d   1       5.004  -0.513   2.305  0.00  0.00    -0.371 N 
ATOM     13  C   UNL d   1       4.519  -0.699   0.926  0.00  0.00     0.210 C 
ATOM     14  N   UNL d   1       4.864   0.347  -0.218  0.00  0.00    -0.185 NA
ATOM     15  N   UNL d   1       3.445   1.236  -0.188  0.00  0.00    -0.222 NA
ATOM     16  H   UNL d   1       5.644   0.263   2.441  0.00  0.00     0.161 HD
ATOM     17  H   UNL d   1       3.123   1.446  -1.153  0.00  0.00     0.147 HD
ENDROOT
BRANCH  14  18
ATOM     18  C   UNL d   1       5.081  -0.369  -1.598  0.00  0.00     0.045 C 
ATOM     19  C   UNL d   1       6.188  -0.865  -2.327  0.00  0.00     0.026 C 
ATOM     20  C   UNL d   1       5.972  -1.260  -3.738  0.00  0.00     0.002 C 
ATOM     21  C   UNL d   1       4.714  -1.290  -4.378  0.00  0.00     0.001 C 
ATOM     22  C   UNL d   1       3.654  -0.939  -3.641  0.00  0.00     0.020 C 
ATOM     23  C   UNL d   1       3.900  -0.546  -2.331  0.00  0.00     0.063 C 
BRANCH  23  24
ATOM     24  C   UNL d   1       2.728  -0.872  -1.613  0.00  0.00     0.211 C 
ATOM     25  O   UNL d   1       1.641  -0.447  -2.035  0.00  0.00    -0.644 OA
ATOM     26  O   UNL d   1       2.945  -1.751  -0.691  0.00  0.00    -0.644 OA
ENDBRANCH  23  24
ENDBRANCH  14  18
BRANCH   4  27
ATOM     27  C   UNL d   1       0.871  -1.778   2.028  0.00  0.00     0.094 C 
ATOM     28  N   UNL d   1      -0.034  -2.080   1.065  0.00  0.00    -0.354 N 
ATOM     29  C   UNL d   1      -1.289  -1.591   1.409  0.00  0.00     0.106 C 
ATOM     30  H   UNL d   1       0.296  -2.244   0.106  0.00  0.00     0.166 HD
ATOM     31  C   UNL d   1      -1.193  -1.137   2.691  0.00  0.00     0.106 C 
ATOM     32  N   UNL d   1       0.126  -1.228   3.015  0.00  0.00    -0.354 N 
ATOM     33  H   UNL d   1       0.544  -0.930   3.886  0.00  0.00     0.166 HD
ENDBRANCH   4  27
BRANCH   8  34
ATOM     34  C   UNL d   1       5.035  -2.341   6.591  0.00  0.00    -0.013 A 
ATOM     35  C   UNL d   1       5.415  -3.564   6.068  0.00  0.00     0.015 A 
ATOM     36  C   UNL d   1       6.307  -4.238   6.929  0.00  0.00     0.008 A 
ATOM     37  C   UNL d   1       6.559  -3.510   8.069  0.00  0.00     0.050 A 
ATOM     38  S   UNL d   1       5.720  -2.026   8.110  0.00  0.00    -0.106 SA
ENDBRANCH   8  34
TORSDOF 4
