REMARK  4 active torsions:
REMARK  status: ('A' for Active; 'I' for Inactive)
REMARK    1  A    between atoms: C_7  and  N_8 
REMARK       I    between atoms: N_8  and  C_9 
REMARK    2  A    between atoms: C_11  and  C_9 
REMARK    3  A    between atoms: C_11  and  N_13 
REMARK       I    between atoms: N_13  and  C_14 
REMARK    4  A    between atoms: C_14  and  C_16 
ROOT
ATOM      1  C   UNL d   1       3.254   3.875  -0.179  0.00  0.00     0.173 C 
ATOM      2  C   UNL d   1       2.559   2.467  -0.217  0.00  0.00     0.042 C 
ENDROOT
BRANCH   1   3
ATOM      3  N   UNL d   1       4.695   3.671   0.133  0.00  0.00    -0.344 N 
ATOM      4  C   UNL d   1       5.694   4.637   0.005  0.00  0.00     0.252 C 
ATOM      5  O   UNL d   1       6.593   4.488  -0.787  0.00  0.00    -0.268 OA
ATOM      6  H   UNL d   1       5.039   2.805  -0.268  0.00  0.00     0.163 HD
BRANCH   4   7
ATOM      7  C   UNL d   1       5.735   5.779   0.979  0.00  0.00     0.032 C 
ATOM      8  C   UNL d   1       6.511   6.923   0.751  0.00  0.00     0.018 C 
ATOM      9  C   UNL d   1       6.487   8.008   1.651  0.00  0.00     0.025 C 
ATOM     10  C   UNL d   1       5.757   7.926   2.824  0.00  0.00     0.034 C 
ATOM     11 CL   UNL d   1       5.705   9.258   3.912  0.00  0.00    -0.084 Cl
ATOM     12  C   UNL d   1       5.107   6.743   3.118  0.00  0.00     0.025 C 
ATOM     13  C   UNL d   1       5.101   5.679   2.207  0.00  0.00     0.018 C 
ENDBRANCH   4   7
ENDBRANCH   1   3
BRANCH   1  14
ATOM     14  C   UNL d   1       2.513   4.580   0.966  0.00  0.00     0.244 C 
ATOM     15  N   UNL d   1       2.508   5.966   1.077  0.00  0.00    -0.325 N 
ATOM     16  H   UNL d   1       2.965   6.481   0.331  0.00  0.00     0.169 HD
ATOM     17  O   UNL d   1       2.053   3.801   1.793  0.00  0.00    -0.271 OA
BRANCH  15  18
ATOM     18  C   UNL d   1       2.232   6.750   2.282  0.00  0.00     0.040 A 
ATOM     19  C   UNL d   1       2.504   8.143   2.224  0.00  0.00     0.030 A 
ATOM     20  C   UNL d   1       2.501   8.955   3.385  0.00  0.00     0.002 A 
ATOM     21  C   UNL d   1       2.271   8.404   4.638  0.00  0.00     0.001 A 
ATOM     22  C   UNL d   1       2.009   7.052   4.729  0.00  0.00     0.009 A 
ATOM     23  C   UNL d   1       1.984   6.223   3.583  0.00  0.00    -0.035 A 
ATOM     24  C   UNL d   1       1.943   4.772   3.951  0.00  0.00     0.050 C 
ENDBRANCH  15  18
ENDBRANCH   1  14
TORSDOF 4
