REMARK  9 active torsions:
REMARK  status: ('A' for Active; 'I' for Inactive)
REMARK    1  A    between atoms: O_2  and  C_3 
REMARK    2  A    between atoms: C_6  and  N_7 
REMARK       I    between atoms: N_7  and  C_8 
REMARK    3  A    between atoms: C_8  and  C_10 
REMARK    4  A    between atoms: C_10  and  S_11 
REMARK    5  A    between atoms: S_11  and  C_12 
REMARK    6  A    between atoms: C_14  and  N_15 
REMARK    7  A    between atoms: C_17  and  C_18 
REMARK    8  A    between atoms: C_18  and  C_19 
REMARK    9  A    between atoms: C_26  and  O_27 
ROOT
ATOM      1  C   UNL d   1       4.722   8.767  -5.633  0.00  0.00     0.191 C 
ATOM      2  N   UNL d   1       5.509   8.225  -6.544  0.00  0.00    -0.210 NA
ATOM      3  C   UNL d   1       6.099   9.006  -7.452  0.00  0.00     0.117 C 
ATOM      4  C   UNL d   1       5.747  10.399  -7.542  0.00  0.00     0.047 A 
ATOM      5  C   UNL d   1       5.957  11.552  -8.470  0.00  0.00    -0.035 A 
ATOM      6  C   UNL d   1       5.384  12.714  -7.968  0.00  0.00     0.060 A 
ATOM      7  S   UNL d   1       4.530  12.471  -6.524  0.00  0.00    -0.081 SA
ATOM      8  C   UNL d   1       4.905  10.812  -6.512  0.00  0.00     0.114 A 
ATOM      9  N   UNL d   1       4.392  10.052  -5.538  0.00  0.00    -0.215 NA
ENDROOT
BRANCH   1  10
ATOM     10  S   UNL d   1       4.068   7.702  -4.418  0.00  0.00    -0.081 SA
BRANCH  10  11
ATOM     11  C   UNL d   1       4.995   6.055  -4.622  0.00  0.00     0.185 C 
BRANCH  11  12
ATOM     12  C   UNL d   1       4.266   5.100  -3.653  0.00  0.00     0.232 C 
ATOM     13  N   UNL d   1       4.829   3.843  -3.366  0.00  0.00    -0.324 N 
ATOM     14  H   UNL d   1       5.590   3.512  -3.942  0.00  0.00     0.169 HD
ATOM     15  O   UNL d   1       3.176   5.468  -3.253  0.00  0.00    -0.272 OA
BRANCH  13  16
ATOM     16  C   UNL d   1       4.234   2.869  -2.462  0.00  0.00     0.068 C 
ATOM     17  C   UNL d   1       4.725   1.546  -2.434  0.00  0.00     0.035 C 
ATOM     18  C   UNL d   1       4.084   0.542  -1.661  0.00  0.00     0.039 C 
ATOM     19  C   UNL d   1       2.964   0.845  -0.889  0.00  0.00     0.070 C 
ATOM     20  C   UNL d   1       2.541   2.158  -0.838  0.00  0.00     0.075 C 
ATOM     21  C   UNL d   1       3.175   3.157  -1.573  0.00  0.00     0.097 C 
BRANCH  19  22
ATOM     22  O   UNL d   1       2.391  -0.127  -0.113  0.00  0.00    -0.356 OA
ATOM     23  C   UNL d   1       0.965  -0.022  -0.003  0.00  0.00     0.210 C 
ENDBRANCH  19  22
BRANCH  21  24
ATOM     24  O   UNL d   1       2.891   4.455  -1.287  0.00  0.00    -0.354 OA
ATOM     25  C   UNL d   1       1.656   4.813  -0.695  0.00  0.00     0.210 C 
ENDBRANCH  21  24
ENDBRANCH  13  16
ENDBRANCH  11  12
ENDBRANCH  10  11
ENDBRANCH   1  10
BRANCH   3  26
ATOM     26  N   UNL d   1       6.977   8.221  -8.180  0.00  0.00    -0.286 NA
ATOM     27  H   UNL d   1       6.626   7.274  -8.250  0.00  0.00     0.125 HD
ATOM     28  H   UNL d   1       7.350   8.515  -9.049  0.00  0.00     0.125 HD
ENDBRANCH   3  26
BRANCH   5  29
ATOM     29  C   UNL d   1       6.630  11.610  -9.838  0.00  0.00     0.044 C 
BRANCH  29  30
ATOM     30  C   UNL d   1       7.050  10.251 -10.339  0.00  0.00    -0.019 C 
ATOM     31  C   UNL d   1       5.810   9.347 -10.571  0.00  0.00     0.010 C 
ATOM     32  C   UNL d   1       7.921  10.163 -11.571  0.00  0.00     0.010 C 
ENDBRANCH  29  30
ENDBRANCH   5  29
TORSDOF 9
