@<TRIPOS>MOLECULE
*****
 64 66 0 0 0
SMALL
GASTEIGER

@<TRIPOS>ATOM
      1 C           6.4589   -5.3841  -10.6713 C.3     1  UNL1       -0.0587
      2 C           6.4890   -6.8992  -10.9111 C.3     1  UNL1       -0.0215
      3 C           7.5211   -7.1855  -12.0178 C.3     1  UNL1       -0.0587
      4 C           6.8041   -7.6113   -9.6006 C.ar    1  UNL1       -0.0447
      5 C           6.0081   -7.4479   -8.4554 C.ar    1  UNL1       -0.0566
      6 C           6.4320   -7.9423   -7.1987 C.ar    1  UNL1       -0.0402
      7 C           7.6073   -8.7044   -7.0867 C.ar    1  UNL1        0.0338
      8 N           8.0030   -9.3040   -5.8561 N.am    1  UNL1       -0.2777
      9 C           9.1047  -10.1608   -5.6867 C.2     1  UNL1        0.3048
     10 O           9.9362  -10.4991   -6.5283 O.2     1  UNL1       -0.2648
     11 C           9.2972  -10.7681   -4.2844 C.2     1  UNL1        0.3184
     12 O           8.4771  -10.4962   -3.4053 O.2     1  UNL1       -0.2634
     13 N          10.4269  -11.5916   -4.1700 N.am    1  UNL1       -0.1992
     14 N          10.7147  -12.2184   -2.9749 N.2     1  UNL1       -0.1873
     15 C          11.8110  -12.9085   -2.8812 C.2     1  UNL1        0.0528
     16 C          12.1649  -13.6370   -1.6237 C.ar    1  UNL1       -0.0052
     17 C          13.4964  -13.7984   -1.2265 C.ar    1  UNL1       -0.0496
     18 C          13.8047  -14.6057   -0.1133 C.ar    1  UNL1       -0.0193
     19 C          12.7930  -15.2060    0.6497 C.ar    1  UNL1        0.1212
     20 O          13.2141  -15.9184    1.7398 O.3     1  UNL1       -0.4828
     21 C          12.2351  -16.4423    2.6397 C.3     1  UNL1        0.1651
     22 C          12.9116  -17.0916    3.8690 C.2     1  UNL1        0.2507
     23 O          14.1276  -17.1274    4.0365 O.2     1  UNL1       -0.2721
     24 N          12.0348  -17.6537    4.7810 N.am    1  UNL1       -0.3100
     25 C          12.5100  -18.3886    5.9549 C.3     1  UNL1        0.0380
     26 C          11.4028  -19.0033    6.8419 C.3     1  UNL1        0.0742
     27 C          10.1965  -19.5324    6.0778 C.3     1  UNL1       -0.0231
     28 C          10.5623  -20.9673    5.8168 C.3     1  UNL1       -0.0271
     29 C          11.3079  -21.3430    7.0734 C.3     1  UNL1        0.0482
     30 O          11.9321  -20.1430    7.5602 O.3     1  UNL1       -0.3750
     31 C          11.4690  -15.0308    0.2539 C.ar    1  UNL1       -0.0193
     32 C          11.1566  -14.2463   -0.8707 C.ar    1  UNL1       -0.0496
     33 C           8.3599   -8.8855   -8.2404 C.ar    1  UNL1       -0.0402
     34 C           7.9636   -8.3710   -9.4677 C.ar    1  UNL1       -0.0566
     35 H           6.2458   -4.8423  -11.5980 H       1  UNL1        0.0235
     36 H           7.4243   -5.0326  -10.2867 H       1  UNL1        0.0235
     37 H           5.6933   -5.1030   -9.9411 H       1  UNL1        0.0235
     38 H           5.5063   -7.2325  -11.2696 H       1  UNL1        0.0343
     39 H           8.5254   -6.8643  -11.7090 H       1  UNL1        0.0235
     40 H           7.2852   -6.6554  -12.9439 H       1  UNL1        0.0235
     41 H           7.5653   -8.2565  -12.2487 H       1  UNL1        0.0235
     42 H           5.0639   -6.9069   -8.5293 H       1  UNL1        0.0621
     43 H           5.8277   -7.6928   -6.3292 H       1  UNL1        0.0636
     44 H           7.4022   -9.1689   -5.0456 H       1  UNL1        0.1553
     45 H          11.0173  -11.7288   -4.9926 H       1  UNL1        0.1777
     46 H          12.5286  -13.0141   -3.7173 H       1  UNL1        0.0851
     47 H          14.3040  -13.2914   -1.7493 H       1  UNL1        0.0625
     48 H          14.8470  -14.7721    0.1599 H       1  UNL1        0.0654
     49 H          11.6477  -17.2179    2.1321 H       1  UNL1        0.0795
     50 H          11.5719  -15.6463    3.0026 H       1  UNL1        0.0795
     51 H          11.0442  -17.5210    4.6395 H       1  UNL1        0.1489
     52 H          13.1087  -17.6960    6.5617 H       1  UNL1        0.0487
     53 H          13.2101  -19.1637    5.6190 H       1  UNL1        0.0487
     54 H          11.0918  -18.2584    7.5842 H       1  UNL1        0.0611
     55 H           9.9497  -19.0075    5.1559 H       1  UNL1        0.0291
     56 H           9.3087  -19.4748    6.7182 H       1  UNL1        0.0291
     57 H          11.2350  -21.0273    4.9534 H       1  UNL1        0.0288
     58 H           9.6942  -21.6005    5.6186 H       1  UNL1        0.0288
     59 H          12.0684  -22.1077    6.8896 H       1  UNL1        0.0560
     60 H          10.6230  -21.7151    7.8437 H       1  UNL1        0.0560
     61 H          10.6525  -15.5061    0.7851 H       1  UNL1        0.0654
     62 H          10.1169  -14.1333   -1.1682 H       1  UNL1        0.0625
     63 H           9.3026   -9.4132   -8.2463 H       1  UNL1        0.0636
     64 H           8.6252   -8.5728  -10.3036 H       1  UNL1        0.0621
@<TRIPOS>BOND
     1     1     2    1
     2     2     3    1
     3     2     4    1
     4     4     5   ar
     5     5     6   ar
     6     6     7   ar
     7     7     8    1
     8     8     9   am
     9     9    10    2
    10     9    11    1
    11    11    12    2
    12    11    13   am
    13    13    14    1
    14    14    15    2
    15    15    16    1
    16    16    17   ar
    17    17    18   ar
    18    18    19   ar
    19    19    20    1
    20    20    21    1
    21    21    22    1
    22    22    23    2
    23    22    24   am
    24    24    25    1
    25    26    27    1
    26    27    28    1
    27    28    29    1
    28    29    30    1
    29    26    30    1
    30    19    31   ar
    31    31    32   ar
    32    16    32   ar
    33     7    33   ar
    34    33    34   ar
    35     4    34   ar
    36    26    25    1
    37     1    35    1
    38     1    36    1
    39     1    37    1
    40     2    38    1
    41     3    39    1
    42     3    40    1
    43     3    41    1
    44     5    42    1
    45     6    43    1
    46     8    44    1
    47    13    45    1
    48    15    46    1
    49    17    47    1
    50    18    48    1
    51    21    49    1
    52    21    50    1
    53    24    51    1
    54    25    52    1
    55    25    53    1
    56    26    54    1
    57    27    55    1
    58    27    56    1
    59    28    57    1
    60    28    58    1
    61    29    59    1
    62    29    60    1
    63    31    61    1
    64    32    62    1
    65    33    63    1
    66    34    64    1
