REMARK  7 active torsions:
REMARK  status: ('A' for Active; 'I' for Inactive)
REMARK    1  A    between atoms: C_2  and  C_13 
REMARK    2  A    between atoms: C_2  and  O_3 
REMARK    3  A    between atoms: O_3  and  C_4 
REMARK       I    between atoms: C_13  and  N_15 
REMARK    4  A    between atoms: N_15  and  N_16 
REMARK    5  A    between atoms: N_16  and  C_17 
REMARK    6  A    between atoms: C_17  and  N_19 
REMARK    7  A    between atoms: N_19  and  C_20 
ROOT
ATOM      1  C   UNL d   1       2.950   0.666   1.536  0.00  0.00     0.265 C 
ATOM      2  O   UNL d   1       2.182   1.057   2.401  0.00  0.00    -0.269 OA
ATOM      3  N   UNL d   1       4.335   0.695   1.726  0.00  0.00    -0.266 N 
ATOM      4  H   UNL d   1       5.004   0.384   1.025  0.00  0.00     0.190 HD
ENDROOT
BRANCH   3   5
ATOM      5  N   UNL d   1       4.929   1.326   2.866  0.00  0.00    -0.273 N 
ATOM      6  H   UNL d   1       4.274   1.694   3.552  0.00  0.00     0.189 HD
BRANCH   5   7
ATOM      7  C   UNL d   1       6.321   1.246   3.032  0.00  0.00     0.191 C 
ATOM      8  S   UNL d   1       7.253   0.332   1.952  0.00  0.00    -0.039 SA
BRANCH   7   9
ATOM      9  N   UNL d   1       6.812   1.954   4.147  0.00  0.00    -0.331 N 
ATOM     10  H   UNL d   1       6.176   2.063   4.929  0.00  0.00     0.168 HD
BRANCH   9  11
ATOM     11  C   UNL d   1       8.211   2.140   4.440  0.00  0.00     0.056 A 
ATOM     12  C   UNL d   1       8.719   1.802   5.711  0.00  0.00     0.032 A 
ATOM     13  C   UNL d   1      10.104   1.874   5.978  0.00  0.00     0.021 A 
ATOM     14  C   UNL d   1      10.984   2.302   4.986  0.00  0.00     0.012 A 
ATOM     15 BR   UNL d   1      12.846   2.398   5.304  0.00  0.00    -0.051 Br
ATOM     16  C   UNL d   1      10.494   2.706   3.752  0.00  0.00     0.045 A 
ATOM     17  C   UNL d   1       9.120   2.668   3.497  0.00  0.00     0.062 A 
ATOM     18 CL   UNL d   1       8.602   3.483   2.055  0.00  0.00    -0.082 Cl
ENDBRANCH   9  11
ENDBRANCH   7   9
ENDBRANCH   5   7
ENDBRANCH   3   5
BRANCH   1  19
ATOM     19  C   UNL d   1       2.490   0.088   0.145  0.00  0.00     0.218 C 
ATOM     20  C   UNL d   1       3.305   0.798  -0.926  0.00  0.00     0.050 C 
BRANCH  19  21
ATOM     21  O   UNL d   1       1.045   0.171   0.003  0.00  0.00    -0.337 OA
BRANCH  21  22
ATOM     22  C   UNL d   1       0.348   0.342  -1.169  0.00  0.00     0.072 A 
ATOM     23  C   UNL d   1       0.897   0.619  -2.433  0.00  0.00     0.040 A 
ATOM     24  C   UNL d   1       0.160   0.799  -3.592  0.00  0.00     0.042 A 
ATOM     25  C   UNL d   1      -1.187   0.748  -3.471  0.00  0.00     0.105 A 
ATOM     26  C   UNL d   1      -1.792   0.522  -2.257  0.00  0.00     0.107 A 
ATOM     27  O   UNL d   1      -2.043   0.944  -4.498  0.00  0.00    -0.323 OA
ATOM     28  C   UNL d   1      -1.057   0.301  -1.091  0.00  0.00     0.076 A 
ATOM     29  O   UNL d   1      -3.149   0.570  -2.385  0.00  0.00    -0.323 OA
ATOM     30  C   UNL d   1      -3.287   0.917  -3.787  0.00  0.00     0.352 A 
ENDBRANCH  21  22
ENDBRANCH  19  21
ENDBRANCH   1  19
TORSDOF 7
