@<TRIPOS>MOLECULE
*****
 68 72 0 0 0
SMALL
GASTEIGER

@<TRIPOS>ATOM
      1 O           1.1116   -0.0089    0.1863 O.2     1  UNL1       -0.2749
      2 C           2.3345    0.0658    0.0829 C.2     1  UNL1        0.2230
      3 C           3.0824    0.3409   -1.2328 C.3     1  UNL1        0.0734
      4 S           1.8955    0.4958   -2.6161 S.3     1  UNL1       -0.1085
      5 C           2.9889    0.7829   -4.0347 C.3     1  UNL1        0.1563
      6 N           3.4946    2.1389   -3.9594 N.pl3   1  UNL1       -0.3156
      7 C           4.4707    2.4992   -4.8891 C.ar    1  UNL1        0.0414
      8 C           4.7487    3.8297   -5.2131 C.ar    1  UNL1       -0.0400
      9 C           5.8560    4.1627   -6.0175 C.ar    1  UNL1       -0.0600
     10 C           6.7203    3.1771   -6.4879 C.ar    1  UNL1       -0.0609
     11 C           6.4406    1.8530   -6.2053 C.ar    1  UNL1       -0.0478
     12 C           5.3137    1.5303   -5.4370 C.ar    1  UNL1        0.0593
     13 C           5.0365    0.1193   -5.1684 C.2     1  UNL1        0.2669
     14 O           5.6470   -0.7046   -5.8533 O.2     1  UNL1       -0.2683
     15 N           4.1089   -0.1471   -4.1554 N.am    1  UNL1       -0.1859
     16 N           3.8660   -1.5313   -3.7895 N.am    1  UNL1       -0.2292
     17 C           4.9679   -2.3626   -3.6367 C.2     1  UNL1        0.2296
     18 O           6.1262   -2.0976   -3.9462 O.2     1  UNL1       -0.2743
     19 C           4.7200   -3.6659   -2.9293 C.3     1  UNL1        0.0293
     20 C           5.9714   -4.5199   -3.1780 C.3     1  UNL1       -0.0165
     21 C           5.9219   -5.8450   -2.5273 C.2     1  UNL1        0.0081
     22 C           6.0725   -7.0232   -3.1316 C.ar    1  UNL1        0.0509
     23 C           6.2882   -7.4180   -4.4817 C.ar    1  UNL1       -0.0482
     24 C           6.4063   -8.7266   -4.7467 C.ar    1  UNL1       -0.0608
     25 C           6.3230   -9.7262   -3.6912 C.ar    1  UNL1       -0.0555
     26 C           6.1294   -9.4278   -2.3909 C.ar    1  UNL1        0.0098
     27 C           5.9962   -8.0046   -2.0385 C.ar    1  UNL1        0.2086
     28 N           5.8206   -7.4505   -0.8988 N.2     1  UNL1       -0.2369
     29 C           5.7558   -5.9865   -1.0489 C.3     1  UNL1        0.1660
     30 N           3.0775   -0.1648    1.2123 N.am    1  UNL1       -0.3143
     31 C           4.5170   -0.1909    1.2878 C.3     1  UNL1        0.0156
     32 C           5.0769   -0.4883    2.6850 C.3     1  UNL1       -0.0121
     33 C           6.5917   -0.4813    2.7101 C.ar    1  UNL1       -0.0459
     34 C           7.2714   -0.1289    3.8838 C.ar    1  UNL1       -0.0585
     35 C           8.6552    0.0672    3.8622 C.ar    1  UNL1       -0.0615
     36 C           9.3859   -0.2034    2.7071 C.ar    1  UNL1       -0.0617
     37 C           8.7402   -0.6975    1.5820 C.ar    1  UNL1       -0.0615
     38 C           7.3525   -0.8022    1.5739 C.ar    1  UNL1       -0.0585
     39 H           3.7320   -0.5183   -1.4148 H       1  UNL1        0.0472
     40 H           3.6873    1.2458   -1.1374 H       1  UNL1        0.0472
     41 H           2.3531    0.6673   -4.9271 H       1  UNL1        0.0847
     42 H           2.8341    2.8451   -3.6572 H       1  UNL1        0.1487
     43 H           4.1124    4.6338   -4.8539 H       1  UNL1        0.0636
     44 H           6.0597    5.2018   -6.2654 H       1  UNL1        0.0618
     45 H           7.6038    3.4272   -7.0697 H       1  UNL1        0.0618
     46 H           7.1057    1.0663   -6.5579 H       1  UNL1        0.0626
     47 H           3.0487   -1.6746   -3.1983 H       1  UNL1        0.1731
     48 H           3.8173   -4.1644   -3.2943 H       1  UNL1        0.0362
     49 H           4.6111   -3.4481   -1.8606 H       1  UNL1        0.0362
     50 H           6.8751   -4.0117   -2.8125 H       1  UNL1        0.0317
     51 H           6.1139   -4.6329   -4.2615 H       1  UNL1        0.0317
     52 H           6.3575   -6.6739   -5.2699 H       1  UNL1        0.0626
     53 H           6.5711   -9.0620   -5.7688 H       1  UNL1        0.0618
     54 H           6.4317  -10.7604   -4.0126 H       1  UNL1        0.0620
     55 H           6.0766  -10.2014   -1.6355 H       1  UNL1        0.0683
     56 H           5.7386   -7.9661   -0.0261 H       1  UNL1        0.4459
     57 H           6.5731   -5.5259   -0.4869 H       1  UNL1        0.1077
     58 H           4.7791   -5.6353   -0.7062 H       1  UNL1        0.1077
     59 H           2.5197   -0.3243    2.0454 H       1  UNL1        0.1487
     60 H           4.8905    0.7718    0.9209 H       1  UNL1        0.0465
     61 H           4.8293   -0.9661    0.5815 H       1  UNL1        0.0465
     62 H           4.7135   -1.4574    3.0472 H       1  UNL1        0.0328
     63 H           4.6986    0.2753    3.3787 H       1  UNL1        0.0328
     64 H           6.7325    0.0341    4.8154 H       1  UNL1        0.0620
     65 H           9.1662    0.4452    4.7446 H       1  UNL1        0.0618
     66 H          10.4582   -0.0305    2.6826 H       1  UNL1        0.0618
     67 H           9.3073   -0.9716    0.6968 H       1  UNL1        0.0618
     68 H           6.8899   -1.1073    0.6416 H       1  UNL1        0.0620
@<TRIPOS>UNITY_ATOM_ATTR
28 1
charge 1
@<TRIPOS>BOND
     1     1     2    2
     2     2     3    1
     3     3     4    1
     4     4     5    1
     5     5     6    1
     6     6     7    1
     7     7     8   ar
     8     8     9   ar
     9     9    10   ar
    10    10    11   ar
    11    11    12   ar
    12     7    12   ar
    13    12    13    1
    14    13    14    2
    15    13    15   am
    16     5    15    1
    17    15    16    1
    18    16    17   am
    19    17    18    2
    20    17    19    1
    21    19    20    1
    22    20    21    1
    23    21    22    2
    24    22    23   ar
    25    23    24   ar
    26    24    25   ar
    27    25    26   ar
    28    26    27   ar
    29    22    27   ar
    30    27    28    2
    31    28    29    1
    32    21    29    1
    33     2    30   am
    34    30    31    1
    35    31    32    1
    36    32    33    1
    37    33    34   ar
    38    34    35   ar
    39    35    36   ar
    40    36    37   ar
    41    37    38   ar
    42    33    38   ar
    43     3    39    1
    44     3    40    1
    45     5    41    1
    46     6    42    1
    47     8    43    1
    48     9    44    1
    49    10    45    1
    50    11    46    1
    51    16    47    1
    52    19    48    1
    53    19    49    1
    54    20    50    1
    55    20    51    1
    56    23    52    1
    57    24    53    1
    58    25    54    1
    59    26    55    1
    60    28    56    1
    61    29    57    1
    62    29    58    1
    63    30    59    1
    64    31    60    1
    65    31    61    1
    66    32    62    1
    67    32    63    1
    68    34    64    1
    69    35    65    1
    70    36    66    1
    71    37    67    1
    72    38    68    1
