@<TRIPOS>MOLECULE
*****
 61 65 0 0 0
SMALL
GASTEIGER

@<TRIPOS>ATOM
      1 C          14.5158  -11.0685    7.3843 C.3     1  UNL1       -0.0358
      2 C          13.9257  -12.2767    6.6483 C.3     1  UNL1        0.0684
      3 C          12.8409  -12.9059    7.5399 C.3     1  UNL1       -0.0358
      4 C          13.3105  -11.7695    5.3652 C.3     1  UNL1        0.0025
      5 C          12.9232  -12.8525    4.3965 C.ar    1  UNL1       -0.0158
      6 C          13.4854  -14.1503    4.5206 C.ar    1  UNL1        0.0697
      7 C          13.0858  -15.1892    3.6452 C.ar    1  UNL1        0.2784
      8 N          13.4311  -16.5237    3.7944 N.pl3   1  UNL1       -0.2777
      9 C          13.3955  -17.2256    5.0954 C.3     1  UNL1        0.0174
     10 C          14.7537  -17.9080    5.2288 C.3     1  UNL1       -0.0356
     11 C          15.0355  -18.3388    3.8028 C.3     1  UNL1       -0.0356
     12 C          14.4043  -17.2315    2.9252 C.3     1  UNL1        0.0174
     13 N          12.2017  -14.8614    2.6601 N.ar    1  UNL1       -0.1851
     14 C          11.6658  -13.5906    2.5226 C.ar    1  UNL1        0.2566
     15 S          10.5042  -13.0661    1.3442 S.2     1  UNL1       -0.0133
     16 C          10.4578  -11.4404    1.9455 C.ar    1  UNL1        0.1012
     17 C           9.6805  -10.2899    1.4211 C.2     1  UNL1        0.2528
     18 O           9.7398   -9.1744    1.9677 O.2     1  UNL1       -0.2696
     19 N           8.8883  -10.4203    0.3079 N.am    1  UNL1       -0.3084
     20 C           8.0552   -9.3021   -0.1729 C.3     1  UNL1        0.0382
     21 C           7.1378   -9.6798   -1.3536 C.3     1  UNL1        0.0742
     22 C           7.7173   -9.3568   -2.7232 C.3     1  UNL1       -0.0231
     23 C           8.4838  -10.6062   -3.0626 C.3     1  UNL1       -0.0271
     24 C           7.6484  -11.6960   -2.4255 C.3     1  UNL1        0.0482
     25 O           6.9260  -11.1087   -1.3328 O.3     1  UNL1       -0.3750
     26 C          11.3141  -11.3381    3.0289 C.ar    1  UNL1        0.0581
     27 N          11.4671  -10.1687    3.6917 N.pl3   1  UNL1       -0.3563
     28 C          12.0037  -12.5552    3.3695 C.ar    1  UNL1        0.0793
     29 C          14.4726  -14.3764    5.6580 C.3     1  UNL1        0.0812
     30 O          14.9664  -13.1832    6.2801 O.3     1  UNL1       -0.3687
     31 H          13.7290  -10.3435    7.6315 H       1  UNL1        0.0257
     32 H          15.2663  -10.5499    6.7767 H       1  UNL1        0.0257
     33 H          15.0045  -11.3764    8.3119 H       1  UNL1        0.0257
     34 H          12.0702  -12.1707    7.7976 H       1  UNL1        0.0257
     35 H          13.2826  -13.3013    8.4570 H       1  UNL1        0.0257
     36 H          12.3199  -13.7346    7.0490 H       1  UNL1        0.0257
     37 H          13.9971  -11.0998    4.8299 H       1  UNL1        0.0341
     38 H          12.4165  -11.2217    5.6711 H       1  UNL1        0.0341
     39 H          12.6135  -17.9890    5.0297 H       1  UNL1        0.0465
     40 H          13.1517  -16.6180    5.9645 H       1  UNL1        0.0465
     41 H          14.7276  -18.7520    5.9282 H       1  UNL1        0.0281
     42 H          15.5318  -17.2190    5.5771 H       1  UNL1        0.0281
     43 H          14.5528  -19.3063    3.6125 H       1  UNL1        0.0281
     44 H          16.1072  -18.4769    3.6165 H       1  UNL1        0.0281
     45 H          13.8687  -17.7054    2.0957 H       1  UNL1        0.0465
     46 H          15.1850  -16.5786    2.5223 H       1  UNL1        0.0465
     47 H          11.8901  -15.6077    2.0475 H       1  UNL1        0.4554
     48 H           8.6603  -11.3368   -0.0493 H       1  UNL1        0.1491
     49 H           8.7029   -8.4532   -0.4291 H       1  UNL1        0.0487
     50 H           7.4306   -8.9604    0.6641 H       1  UNL1        0.0487
     51 H           6.1718   -9.1720   -1.2394 H       1  UNL1        0.0611
     52 H           8.3254   -8.4479   -2.7476 H       1  UNL1        0.0291
     53 H           6.9024   -9.2267   -3.4475 H       1  UNL1        0.0291
     54 H           9.4753  -10.5654   -2.5977 H       1  UNL1        0.0288
     55 H           8.6228  -10.7589   -4.1359 H       1  UNL1        0.0288
     56 H           8.2712  -12.5100   -2.0420 H       1  UNL1        0.0560
     57 H           6.9170  -12.1145   -3.1216 H       1  UNL1        0.0560
     58 H          10.9540   -9.3262    3.4009 H       1  UNL1        0.1424
     59 H          12.1816   -9.9339    4.3665 H       1  UNL1        0.1424
     60 H          15.3378  -14.9334    5.2923 H       1  UNL1        0.0613
     61 H          14.0072  -14.9532    6.4574 H       1  UNL1        0.0613
@<TRIPOS>UNITY_ATOM_ATTR
13 1
charge 1
@<TRIPOS>BOND
     1     1     2    1
     2     2     3    1
     3     2     4    1
     4     4     5    1
     5     5     6   ar
     6     6     7   ar
     7     7     8    1
     8     8     9    1
     9     9    10    1
    10    10    11    1
    11    11    12    1
    12     8    12    1
    13     7    13   ar
    14    13    14   ar
    15    14    15   ar
    16    15    16   ar
    17    16    17    1
    18    17    18    2
    19    17    19   am
    20    19    20    1
    21    21    22    1
    22    22    23    1
    23    23    24    1
    24    24    25    1
    25    21    25    1
    26    16    26   ar
    27    26    27    1
    28    26    28   ar
    29     5    28   ar
    30    14    28   ar
    31     6    29    1
    32    29    30    1
    33     2    30    1
    34    21    20    1
    35     1    31    1
    36     1    32    1
    37     1    33    1
    38     3    34    1
    39     3    35    1
    40     3    36    1
    41     4    37    1
    42     4    38    1
    43     9    39    1
    44     9    40    1
    45    10    41    1
    46    10    42    1
    47    11    43    1
    48    11    44    1
    49    12    45    1
    50    12    46    1
    51    13    47    1
    52    19    48    1
    53    20    49    1
    54    20    50    1
    55    21    51    1
    56    22    52    1
    57    22    53    1
    58    23    54    1
    59    23    55    1
    60    24    56    1
    61    24    57    1
    62    27    58    1
    63    27    59    1
    64    29    60    1
    65    29    61    1
