@<TRIPOS>MOLECULE
*****
 65 67 0 0 0
SMALL
GASTEIGER

@<TRIPOS>ATOM
      1 C           0.9693   -0.0669    0.0586 C.3     1  UNL1       -0.0622
      2 C           2.4904   -0.0631    0.0932 C.3     1  UNL1       -0.0215
      3 C           3.0078   -0.4831    1.4717 C.3     1  UNL1        0.0893
      4 O           4.4309   -0.3577    1.5078 O.3     1  UNL1       -0.4920
      5 C           5.0741   -0.8697    2.6052 C.ar    1  UNL1        0.1205
      6 C           6.2778   -0.2545    2.9484 C.ar    1  UNL1       -0.0192
      7 C           7.1456   -0.8625    3.8766 C.ar    1  UNL1       -0.0443
      8 C           6.7932   -2.0698    4.5181 C.ar    1  UNL1        0.0596
      9 C           7.7818   -2.7761    5.4312 C.2     1  UNL1        0.3446
     10 O           8.9819   -2.6072    5.3573 O.2     1  UNL1       -0.2445
     11 O           7.1107   -3.4047    6.4971 O.3     1  UNL1       -0.4186
     12 C           7.7991   -3.6656    7.7267 C.ar    1  UNL1        0.1734
     13 C           7.9182   -5.0252    8.0874 C.ar    1  UNL1       -0.0150
     14 C           8.4468   -5.4060    9.3436 C.ar    1  UNL1       -0.0494
     15 C           8.9322   -4.4357   10.2287 C.ar    1  UNL1       -0.0018
     16 C           9.6403   -4.8410   11.5018 C.2     1  UNL1        0.0529
     17 N          10.1495   -3.9613   12.3121 N.2     1  UNL1       -0.1876
     18 N          10.8303   -4.3679   13.4539 N.am    1  UNL1       -0.2042
     19 C          11.3612   -3.3697   14.2931 C.2     1  UNL1        0.2698
     20 O          11.2538   -2.1671   14.0424 O.2     1  UNL1       -0.2703
     21 C          12.1054   -3.8587   15.5688 C.3     1  UNL1        0.1668
     22 O          12.4742   -2.7352   16.3888 O.3     1  UNL1       -0.4827
     23 C          13.2755   -2.9268   17.4812 C.ar    1  UNL1        0.1216
     24 C          13.0689   -2.0468   18.5560 C.ar    1  UNL1       -0.0135
     25 C          13.9024   -2.0689   19.6844 C.ar    1  UNL1        0.0190
     26 C          14.9173   -3.0264   19.7644 C.ar    1  UNL1        0.2734
     27 N          15.7059   -3.1620   20.9989 N.pl3   1  UNL1        0.0796
     28 O          15.4507   -2.3930   21.9369 O.2     1  UNL1        0.0414
     29 O          16.5594   -4.0604   21.0410 O.co2   1  UNL1       -0.5760
     30 C          15.1473   -3.8959   18.6897 C.ar    1  UNL1        0.0190
     31 C          14.3305   -3.8357   17.5482 C.ar    1  UNL1       -0.0135
     32 C           8.7849   -3.0830    9.8729 C.ar    1  UNL1       -0.0076
     33 C           8.1982   -2.6710    8.6447 C.ar    1  UNL1        0.1632
     34 O           8.0916   -1.2946    8.5586 O.3     1  UNL1       -0.4885
     35 C           7.4427   -0.7567    7.4228 C.3     1  UNL1        0.0870
     36 C           7.5718    0.7314    7.2133 C.3     1  UNL1       -0.0307
     37 C           5.5211   -2.5867    4.2828 C.ar    1  UNL1       -0.0443
     38 C           4.6846   -2.0117    3.3073 C.ar    1  UNL1       -0.0192
     39 H           0.6026    0.2390   -0.9261 H       1  UNL1        0.0231
     40 H           0.5637    0.6266    0.8024 H       1  UNL1        0.0231
     41 H           0.5742   -1.0656    0.2724 H       1  UNL1        0.0231
     42 H           2.8681    0.9325   -0.1661 H       1  UNL1        0.0295
     43 H           2.8776   -0.7442   -0.6755 H       1  UNL1        0.0295
     44 H           2.6749   -1.5095    1.6516 H       1  UNL1        0.0696
     45 H           2.5920    0.1786    2.2384 H       1  UNL1        0.0696
     46 H           6.5564    0.6828    2.4661 H       1  UNL1        0.0654
     47 H           8.1004   -0.3784    4.0819 H       1  UNL1        0.0627
     48 H           7.6061   -5.8016    7.3904 H       1  UNL1        0.0656
     49 H           8.4741   -6.4621    9.6074 H       1  UNL1        0.0625
     50 H           9.7273   -5.9260   11.6971 H       1  UNL1        0.0851
     51 H          10.9398   -5.3570   13.6466 H       1  UNL1        0.1773
     52 H          12.9824   -4.4289   15.2484 H       1  UNL1        0.0795
     53 H          11.4307   -4.4919   16.1539 H       1  UNL1        0.0795
     54 H          12.2441   -1.3362   18.5216 H       1  UNL1        0.0656
     55 H          13.7479   -1.3420   20.4804 H       1  UNL1        0.0686
     56 H          15.9629   -4.6162   18.7190 H       1  UNL1        0.0686
     57 H          14.5636   -4.4915   16.7175 H       1  UNL1        0.0656
     58 H           9.1236   -2.3172   10.5701 H       1  UNL1        0.0662
     59 H           6.4000   -1.0914    7.3627 H       1  UNL1        0.0694
     60 H           8.0260   -1.0518    6.5795 H       1  UNL1        0.0694
     61 H           7.0422    1.3063    7.9669 H       1  UNL1        0.0262
     62 H           7.1745    0.9820    6.2193 H       1  UNL1        0.0262
     63 H           8.6324    1.0039    7.2125 H       1  UNL1        0.0262
     64 H           5.1823   -3.4732    4.8097 H       1  UNL1        0.0627
     65 H           3.7588   -2.5257    3.0776 H       1  UNL1        0.0654
@<TRIPOS>UNITY_ATOM_ATTR
27 1
charge 1
29 1
charge -1
@<TRIPOS>BOND
     1     1     2    1
     2     2     3    1
     3     3     4    1
     4     4     5    1
     5     5     6   ar
     6     6     7   ar
     7     7     8   ar
     8     8     9    1
     9     9    10    2
    10     9    11    1
    11    11    12    1
    12    12    13   ar
    13    13    14   ar
    14    14    15   ar
    15    15    16    1
    16    16    17    2
    17    17    18    1
    18    18    19   am
    19    19    20    2
    20    19    21    1
    21    21    22    1
    22    22    23    1
    23    23    24   ar
    24    24    25   ar
    25    25    26   ar
    26    26    27    1
    27    27    28    2
    28    27    29    1
    29    26    30   ar
    30    30    31   ar
    31    23    31   ar
    32    15    32   ar
    33    32    33   ar
    34    12    33   ar
    35    33    34    1
    36    34    35    1
    37    35    36    1
    38     8    37   ar
    39    37    38   ar
    40     5    38   ar
    41     1    39    1
    42     1    40    1
    43     1    41    1
    44     2    42    1
    45     2    43    1
    46     3    44    1
    47     3    45    1
    48     6    46    1
    49     7    47    1
    50    13    48    1
    51    14    49    1
    52    16    50    1
    53    18    51    1
    54    21    52    1
    55    21    53    1
    56    24    54    1
    57    25    55    1
    58    30    56    1
    59    31    57    1
    60    32    58    1
    61    35    59    1
    62    35    60    1
    63    36    61    1
    64    36    62    1
    65    36    63    1
    66    37    64    1
    67    38    65    1
