REMARK  9 active torsions:
REMARK  status: ('A' for Active; 'I' for Inactive)
REMARK    1  A    between atoms: C_2  and  O_3 
REMARK    2  A    between atoms: O_3  and  C_4 
REMARK    3  A    between atoms: C_10  and  C_11 
REMARK       I    between atoms: C_11  and  N_13 
REMARK    4  A    between atoms: N_13  and  C_14 
REMARK    5  A    between atoms: C_14  and  N_16 
REMARK    6  A    between atoms: N_16  and  N_17 
REMARK       I    between atoms: N_17  and  C_18 
REMARK    7  A    between atoms: C_18  and  C_20 
REMARK    8  A    between atoms: C_20  and  O_21 
REMARK    9  A    between atoms: O_21  and  C_22 
ROOT
ATOM      1  C   UNL d   1       1.647  -2.074  -4.349  0.00  0.00     0.193 C 
ATOM      2  S   UNL d   1       2.124  -2.591  -5.885  0.00  0.00    -0.039 SA
ENDROOT
BRANCH   1   3
ATOM      3  N   UNL d   1       2.516  -1.903  -3.244  0.00  0.00    -0.298 N 
ATOM      4  C   UNL d   1       3.916  -2.131  -3.212  0.00  0.00     0.260 C 
ATOM      5  O   UNL d   1       4.562  -2.517  -4.191  0.00  0.00    -0.267 OA
ATOM      6  H   UNL d   1       2.114  -1.608  -2.361  0.00  0.00     0.171 HD
BRANCH   4   7
ATOM      7  C   UNL d   1       4.739  -1.900  -1.969  0.00  0.00     0.067 A 
ATOM      8  C   UNL d   1       6.133  -2.157  -2.061  0.00  0.00     0.039 A 
ATOM      9  C   UNL d   1       6.987  -1.960  -0.974  0.00  0.00     0.012 A 
ATOM     10  C   UNL d   1       6.478  -1.498   0.230  0.00  0.00     0.022 A 
ATOM     11 BR   UNL d   1       8.837  -2.329  -1.123  0.00  0.00    -0.051 Br
ATOM     12  C   UNL d   1       5.107  -1.243   0.343  0.00  0.00     0.039 A 
ATOM     13  C   UNL d   1       4.236  -1.433  -0.749  0.00  0.00     0.084 A 
BRANCH  13  14
ATOM     14  O   UNL d   1       2.882  -1.269  -0.634  0.00  0.00    -0.350 OA
BRANCH  14  15
ATOM     15  C   UNL d   1       2.475  -0.073   0.036  0.00  0.00     0.171 C 
ATOM     16  C   UNL d   1       0.959  -0.065   0.025  0.00  0.00     0.034 C 
ENDBRANCH  14  15
ENDBRANCH  13  14
ENDBRANCH   4   7
ENDBRANCH   1   3
BRANCH   1  17
ATOM     17  N   UNL d   1       0.291  -1.774  -4.117  0.00  0.00    -0.273 N 
ATOM     18  H   UNL d   1      -0.114  -1.464  -3.235  0.00  0.00     0.189 HD
BRANCH  17  19
ATOM     19  N   UNL d   1      -0.667  -1.930  -5.210  0.00  0.00    -0.266 N 
ATOM     20  C   UNL d   1      -2.020  -1.650  -5.037  0.00  0.00     0.260 C 
ATOM     21  O   UNL d   1      -2.448  -1.261  -3.950  0.00  0.00    -0.269 OA
ATOM     22  H   UNL d   1      -0.268  -2.252  -6.092  0.00  0.00     0.190 HD
BRANCH  20  23
ATOM     23  C   UNL d   1      -2.928  -1.871  -6.293  0.00  0.00     0.280 C 
BRANCH  23  24
ATOM     24  O   UNL d   1      -4.287  -1.525  -5.989  0.00  0.00    -0.342 OA
BRANCH  24  25
ATOM     25  C   UNL d   1      -5.230  -1.671  -6.977  0.00  0.00     0.075 A 
ATOM     26  C   UNL d   1      -5.322  -2.799  -7.792  0.00  0.00     0.038 A 
ATOM     27  C   UNL d   1      -6.359  -2.918  -8.730  0.00  0.00     0.009 A 
ATOM     28  C   UNL d   1      -7.331  -1.920  -8.860  0.00  0.00    -0.061 A 
ATOM     29  C   UNL d   1      -8.430  -2.052  -9.877  0.00  0.00     0.048 C 
ATOM     30  C   UNL d   1      -7.257  -0.800  -8.023  0.00  0.00     0.016 A 
ATOM     31  C   UNL d   1      -6.217  -0.670  -7.078  0.00  0.00    -0.028 A 
ATOM     32  C   UNL d   1      -6.162   0.536  -6.182  0.00  0.00     0.051 C 
ENDBRANCH  24  25
ENDBRANCH  23  24
ENDBRANCH  20  23
ENDBRANCH  17  19
ENDBRANCH   1  17
TORSDOF 9
