REMARK  6 active torsions:
REMARK  status: ('A' for Active; 'I' for Inactive)
REMARK    1  A    between atoms: O_2  and  C_3 
REMARK    2  A    between atoms: C_6  and  C_7 
REMARK       I    between atoms: C_7  and  N_9 
REMARK    3  A    between atoms: N_9  and  C_10 
REMARK    4  A    between atoms: C_13  and  S_14 
REMARK    5  A    between atoms: S_14  and  N_17 
REMARK    6  A    between atoms: N_17  and  C_18 
ROOT
ATOM      1  C   UNL d   1       5.828  -6.087  -3.758  0.00  0.00     0.035 A 
ATOM      2  C   UNL d   1       6.071  -6.211  -5.129  0.00  0.00     0.031 A 
ATOM      3  C   UNL d   1       6.686  -7.371  -5.644  0.00  0.00     0.027 A 
ATOM      4  C   UNL d   1       7.081  -8.413  -4.784  0.00  0.00     0.080 A 
ATOM      5  C   UNL d   1       6.803  -8.307  -3.423  0.00  0.00     0.027 A 
ATOM      6  C   UNL d   1       6.191  -7.146  -2.918  0.00  0.00     0.031 A 
ENDROOT
BRANCH   4   7
ATOM      7  S   UNL d   1       8.041  -9.775  -5.481  0.00  0.00     0.276 S 
ATOM      8  O   UNL d   1       7.134 -10.469  -6.370  0.00  0.00    -0.200 OA
ATOM      9  O   UNL d   1       9.246  -9.141  -5.981  0.00  0.00    -0.200 OA
BRANCH   7  10
ATOM     10  N   UNL d   1       8.443 -10.796  -4.227  0.00  0.00    -0.109 N 
ATOM     11  H   UNL d   1       8.042 -10.759  -3.307  0.00  0.00     0.198 HD
BRANCH  10  12
ATOM     12  C   UNL d   1       9.153 -11.961  -4.538  0.00  0.00     0.736 A 
ATOM     13  N   UNL d   1      10.231 -11.825  -5.303  0.00  0.00    -0.067 NA
ATOM     14  C   UNL d   1      10.976 -12.924  -5.513  0.00  0.00     0.051 A 
ATOM     15  C   UNL d   1      12.176 -12.757  -6.392  0.00  0.00     0.071 C 
ATOM     16  C   UNL d   1      10.657 -14.149  -4.964  0.00  0.00     0.054 A 
ATOM     17  C   UNL d   1       9.541 -14.186  -4.144  0.00  0.00     0.051 A 
ATOM     18  C   UNL d   1       9.134 -15.489  -3.506  0.00  0.00     0.071 C 
ATOM     19  N   UNL d   1       8.787 -13.081  -3.892  0.00  0.00    -0.067 NA
ENDBRANCH  10  12
ENDBRANCH   7  10
ENDBRANCH   4   7
BRANCH   1  20
ATOM     20  N   UNL d   1       5.176  -4.927  -3.257  0.00  0.00    -0.323 N 
ATOM     21  C   UNL d   1       5.502  -4.316  -2.050  0.00  0.00     0.256 C 
ATOM     22  O   UNL d   1       6.437  -4.690  -1.332  0.00  0.00    -0.267 OA
ATOM     23  H   UNL d   1       4.545  -4.463  -3.894  0.00  0.00     0.169 HD
BRANCH  21  24
ATOM     24  C   UNL d   1       4.697  -3.127  -1.591  0.00  0.00     0.032 A 
ATOM     25  C   UNL d   1       5.048  -2.530  -0.366  0.00  0.00     0.020 A 
ATOM     26  C   UNL d   1       4.260  -1.520   0.202  0.00  0.00     0.038 A 
ATOM     27  C   UNL d   1       3.141  -1.037  -0.472  0.00  0.00     0.068 A 
ATOM     28  C   UNL d   1       2.818  -1.571  -1.718  0.00  0.00     0.038 A 
ATOM     29  C   UNL d   1       3.587  -2.614  -2.274  0.00  0.00     0.020 A 
BRANCH  27  30
ATOM     30  O   UNL d   1       2.508   0.025   0.111  0.00  0.00    -0.356 OA
ATOM     31  C   UNL d   1       1.086   0.020   0.035  0.00  0.00     0.210 C 
ENDBRANCH  27  30
ENDBRANCH  21  24
ENDBRANCH   1  20
TORSDOF 6
