@<TRIPOS>MOLECULE
*****
 56 59 0 0 0
SMALL
GASTEIGER

@<TRIPOS>ATOM
      1 C           1.0866    0.0275    0.0977 C.3     1  UNL1       -0.0306
      2 C           2.6080    0.0037    0.1068 C.3     1  UNL1        0.0900
      3 O           3.0562   -1.0570    0.9808 O.3     1  UNL1       -0.4616
      4 C           4.3959   -1.1559    1.1509 C.2     1  UNL1        0.3378
      5 O           5.2490   -0.4247    0.6522 O.2     1  UNL1       -0.2452
      6 C           4.7306   -2.2278    2.1069 C.2     1  UNL1        0.0686
      7 C           4.2913   -3.5093    2.0793 C.2     1  UNL1        0.0783
      8 N           3.4307   -4.1477    1.2065 N.am    1  UNL1       -0.2791
      9 C           2.9902   -5.4866    1.3733 C.2     1  UNL1        0.2279
     10 O           3.2890   -6.2162    2.3148 O.2     1  UNL1       -0.2745
     11 C           2.0488   -6.0006    0.3115 C.3     1  UNL1        0.0780
     12 S           1.5338   -7.7313    0.5862 S.3     1  UNL1       -0.0749
     13 C           0.4863   -8.2638   -0.7045 C.ar    1  UNL1        0.2144
     14 N           0.3404   -9.5344   -1.0311 N.ar    1  UNL1       -0.1011
     15 N          -0.6903   -9.5918   -1.9377 N.ar    1  UNL1       -0.0218
     16 N          -1.2275   -8.3958   -2.1212 N.ar    1  UNL1       -0.0382
     17 N          -0.4970   -7.5487   -1.3629 N.ar    1  UNL1       -0.1875
     18 C          -0.7099   -6.1697   -1.4460 C.ar    1  UNL1        0.0699
     19 C          -1.9554   -5.6304   -1.1375 C.ar    1  UNL1       -0.0361
     20 C          -2.1076   -4.2454   -1.1894 C.ar    1  UNL1       -0.0598
     21 C          -1.0067   -3.4187   -1.4384 C.ar    1  UNL1       -0.0616
     22 C           0.2274   -3.9717   -1.7598 C.ar    1  UNL1       -0.0598
     23 C           0.3453   -5.3520   -1.8514 C.ar    1  UNL1       -0.0361
     24 S           5.0257   -4.4542    3.3536 S.3     1  UNL1       -0.1003
     25 C           5.4188   -3.0097    4.2893 C.3     1  UNL1        0.0582
     26 C           6.5623   -3.3187    5.2164 C.3     1  UNL1       -0.0191
     27 N           7.0676   -2.0447    5.8453 N.4     1  UNL1        0.2339
     28 C           8.3379   -2.3697    6.5990 C.3     1  UNL1       -0.0431
     29 C           7.2788   -0.8986    4.8650 C.3     1  UNL1       -0.0315
     30 C           6.0754   -0.7010    3.9136 C.3     1  UNL1       -0.0042
     31 C           5.7998   -2.0189    3.1869 C.3     1  UNL1        0.0151
     32 H           0.7068    0.7948   -0.5852 H       1  UNL1        0.0262
     33 H           0.6914    0.2296    1.0989 H       1  UNL1        0.0262
     34 H           0.6868   -0.9425   -0.2126 H       1  UNL1        0.0262
     35 H           2.9839    0.9748    0.4514 H       1  UNL1        0.0695
     36 H           2.9724   -0.1905   -0.9078 H       1  UNL1        0.0695
     37 H           3.0738   -3.5983    0.4286 H       1  UNL1        0.1553
     38 H           2.5892   -5.9234   -0.6338 H       1  UNL1        0.0475
     39 H           1.1794   -5.3508    0.3993 H       1  UNL1        0.0475
     40 H          -2.7910   -6.2599   -0.8356 H       1  UNL1        0.0639
     41 H          -3.0885   -3.8033   -1.0357 H       1  UNL1        0.0618
     42 H          -1.1234   -2.3389   -1.4106 H       1  UNL1        0.0618
     43 H           1.0888   -3.3386   -1.9503 H       1  UNL1        0.0618
     44 H           1.2801   -5.7930   -2.1875 H       1  UNL1        0.0639
     45 H           4.5341   -2.6784    4.8530 H       1  UNL1        0.0475
     46 H           7.4049   -3.7725    4.6809 H       1  UNL1        0.0825
     47 H           6.2494   -3.9848    6.0308 H       1  UNL1        0.0825
     48 H           6.3733   -1.7426    6.5454 H       1  UNL1        0.2031
     49 H           9.0806   -2.7198    5.8747 H       1  UNL1        0.0777
     50 H           8.1112   -3.1590    7.3223 H       1  UNL1        0.0777
     51 H           8.6768   -1.4663    7.1061 H       1  UNL1        0.0777
     52 H           8.1813   -1.1411    4.2930 H       1  UNL1        0.0814
     53 H           7.4591   -0.0027    5.4666 H       1  UNL1        0.0814
     54 H           6.3217    0.0884    3.1962 H       1  UNL1        0.0323
     55 H           5.1966   -0.3680    4.4792 H       1  UNL1        0.0323
     56 H           6.7571   -2.3107    2.7227 H       1  UNL1        0.0366
@<TRIPOS>UNITY_ATOM_ATTR
27 1
charge 1
@<TRIPOS>BOND
     1     1     2    1
     2     2     3    1
     3     3     4    1
     4     4     5    2
     5     4     6    1
     6     6     7    2
     7     7     8    1
     8     8     9   am
     9     9    10    2
    10     9    11    1
    11    11    12    1
    12    12    13    1
    13    13    14   ar
    14    14    15   ar
    15    15    16   ar
    16    16    17   ar
    17    13    17   ar
    18    17    18    1
    19    18    19   ar
    20    19    20   ar
    21    20    21   ar
    22    21    22   ar
    23    22    23   ar
    24    18    23   ar
    25     7    24    1
    26    24    25    1
    27    25    26    1
    28    26    27    1
    29    27    29    1
    30    29    30    1
    31    30    31    1
    32     6    31    1
    33    25    31    1
    34    27    28    1
    35     1    32    1
    36     1    33    1
    37     1    34    1
    38     2    35    1
    39     2    36    1
    40     8    37    1
    41    11    38    1
    42    11    39    1
    43    19    40    1
    44    20    41    1
    45    21    42    1
    46    22    43    1
    47    23    44    1
    48    25    45    1
    49    26    46    1
    50    26    47    1
    51    27    48    1
    52    28    49    1
    53    28    50    1
    54    28    51    1
    55    29    52    1
    56    29    53    1
    57    30    54    1
    58    30    55    1
    59    31    56    1
