@<TRIPOS>MOLECULE
*****
 38 40 0 0 0
SMALL
GASTEIGER

@<TRIPOS>ATOM
      1 O           1.0829   -0.1325    0.0205 O.2     1  UNL1       -0.2699
      2 C           2.3060   -0.0197    0.0353 C.2     1  UNL1        0.2483
      3 N           2.9995    1.1847   -0.0443 N.am    1  UNL1       -0.2815
      4 C           2.3265    2.4321   -0.1154 C.ar    1  UNL1        0.0339
      5 C           1.2113    2.6902    0.6907 C.ar    1  UNL1       -0.0370
      6 C           0.5523    3.9233    0.6399 C.ar    1  UNL1       -0.0184
      7 C           0.9979    4.8972   -0.2436 C.ar    1  UNL1        0.1170
      8 O           0.3888    6.1140   -0.3363 O.3     1  UNL1       -0.5068
      9 C           2.0940    4.6549   -1.0649 C.ar    1  UNL1       -0.0184
     10 C           2.7778    3.4318   -0.9847 C.ar    1  UNL1       -0.0370
     11 C           3.1165   -1.2695   -0.0007 C.ar    1  UNL1        0.0371
     12 C           4.2637   -1.4826    0.7692 C.ar    1  UNL1       -0.0479
     13 C           4.9799   -2.7020    0.6590 C.ar    1  UNL1       -0.0398
     14 C           4.5198   -3.7426   -0.1702 C.ar    1  UNL1        0.0338
     15 N           5.1869   -5.0055   -0.1924 N.am    1  UNL1       -0.2790
     16 C           4.8054   -6.1218   -0.9484 C.2     1  UNL1        0.2835
     17 O           3.8658   -6.1294   -1.7514 O.2     1  UNL1       -0.2665
     18 C           5.5775   -7.3322   -0.7470 C.ar    1  UNL1        0.1893
     19 C           6.0322   -7.9828    0.3862 C.ar    1  UNL1       -0.0113
     20 C           6.6297   -9.1955   -0.0474 C.ar    1  UNL1       -0.0231
     21 C           6.5088   -9.2171   -1.4157 C.ar    1  UNL1        0.0928
     22 O           5.8651   -8.1038   -1.8469 O.2     1  UNL1       -0.4583
     23 C           3.3693   -3.4988   -0.9226 C.ar    1  UNL1       -0.0398
     24 C           2.6697   -2.2926   -0.8337 C.ar    1  UNL1       -0.0479
     25 H           3.9627    1.1543   -0.3528 H       1  UNL1        0.1551
     26 H           0.8590    1.9362    1.3898 H       1  UNL1        0.0637
     27 H          -0.2992    4.0905    1.2914 H       1  UNL1        0.0655
     28 H          -0.3392    6.1523    0.3062 H       1  UNL1        0.2921
     29 H           2.4058    5.4182   -1.7734 H       1  UNL1        0.0655
     30 H           3.6144    3.2621   -1.6562 H       1  UNL1        0.0637
     31 H           4.5810   -0.7303    1.4882 H       1  UNL1        0.0626
     32 H           5.8925   -2.8123    1.2419 H       1  UNL1        0.0636
     33 H           6.0044   -5.1082    0.3973 H       1  UNL1        0.1552
     34 H           5.8864   -7.6555    1.4044 H       1  UNL1        0.0657
     35 H           7.0712   -9.9729    0.5607 H       1  UNL1        0.0649
     36 H           6.7961   -9.9231   -2.1848 H       1  UNL1        0.1029
     37 H           2.9582   -4.2302   -1.6070 H       1  UNL1        0.0636
     38 H           1.7623   -2.1740   -1.4231 H       1  UNL1        0.0626
@<TRIPOS>BOND
     1     1     2    2
     2     2     3   am
     3     3     4    1
     4     4     5   ar
     5     5     6   ar
     6     6     7   ar
     7     7     8    1
     8     7     9   ar
     9     9    10   ar
    10     4    10   ar
    11     2    11    1
    12    11    12   ar
    13    12    13   ar
    14    13    14   ar
    15    14    15    1
    16    15    16   am
    17    16    17    2
    18    16    18    1
    19    18    19   ar
    20    19    20   ar
    21    20    21   ar
    22    21    22   ar
    23    18    22   ar
    24    14    23   ar
    25    23    24   ar
    26    11    24   ar
    27     3    25    1
    28     5    26    1
    29     6    27    1
    30     8    28    1
    31     9    29    1
    32    10    30    1
    33    12    31    1
    34    13    32    1
    35    15    33    1
    36    19    34    1
    37    20    35    1
    38    21    36    1
    39    23    37    1
    40    24    38    1
