REMARK  8 active torsions:
REMARK  status: ('A' for Active; 'I' for Inactive)
REMARK    1  A    between atoms: C_2  and  C_3 
REMARK       I    between atoms: C_2  and  N_16 
REMARK    2  A    between atoms: C_3  and  S_4 
REMARK    3  A    between atoms: S_4  and  C_5 
REMARK    4  A    between atoms: C_5  and  C_6 
REMARK       I    between atoms: C_6  and  N_8 
REMARK    5  A    between atoms: N_8  and  N_9 
REMARK    6  A    between atoms: N_9  and  C_10 
REMARK    7  A    between atoms: N_16  and  N_17 
REMARK    8  A    between atoms: N_17  and  C_18 
ROOT
ATOM      1  S   UNL d   1       1.720   1.953   1.880  0.00  0.00    -0.150 SA
ENDROOT
BRANCH   1   2
ATOM      2  C   UNL d   1       2.974   0.949   0.969  0.00  0.00     0.178 C 
BRANCH   2   3
ATOM      3  C   UNL d   1       2.261  -0.061   0.031  0.00  0.00     0.245 C 
ATOM      4  O   UNL d   1       1.032  -0.194  -0.027  0.00  0.00    -0.271 OA
ATOM      5  N   UNL d   1       3.018  -0.853  -0.813  0.00  0.00    -0.269 N 
ATOM      6  H   UNL d   1       2.504  -1.581  -1.307  0.00  0.00     0.190 HD
BRANCH   5   7
ATOM      7  N   UNL d   1       4.383  -1.004  -0.704  0.00  0.00    -0.298 N 
ATOM      8  H   UNL d   1       4.939  -0.414  -0.097  0.00  0.00     0.187 HD
BRANCH   7   9
ATOM      9  C   UNL d   1       5.066  -1.894  -1.548  0.00  0.00     0.048 A 
ATOM     10  C   UNL d   1       6.153  -2.598  -1.006  0.00  0.00     0.031 A 
ATOM     11  C   UNL d   1       6.928  -3.461  -1.784  0.00  0.00     0.002 A 
ATOM     12  C   UNL d   1       6.589  -3.687  -3.113  0.00  0.00     0.000 A 
ATOM     13  C   UNL d   1       5.490  -3.028  -3.664  0.00  0.00     0.002 A 
ATOM     14  C   UNL d   1       4.726  -2.144  -2.884  0.00  0.00     0.031 A 
ENDBRANCH   7   9
ENDBRANCH   5   7
ENDBRANCH   2   3
ENDBRANCH   1   2
BRANCH   1  15
ATOM     15  C   UNL d   1       2.675   3.133   2.940  0.00  0.00     0.178 C 
BRANCH  15  16
ATOM     16  C   UNL d   1       1.681   4.031   3.735  0.00  0.00     0.241 C 
ATOM     17  O   UNL d   1       0.450   3.902   3.695  0.00  0.00    -0.271 OA
ATOM     18  N   UNL d   1       2.254   5.034   4.527  0.00  0.00    -0.286 N 
ATOM     19  H   UNL d   1       3.233   4.992   4.787  0.00  0.00     0.184 HD
BRANCH  18  20
ATOM     20  N   UNL d   1       1.406   5.539   5.559  0.00  0.00    -0.203 NA
ATOM     21  H   UNL d   1       0.425   5.585   5.241  0.00  0.00     0.153 HD
BRANCH  20  22
ATOM     22  C   UNL d   1       1.786   6.735   6.219  0.00  0.00     0.027 A 
ATOM     23  C   UNL d   1       1.083   7.100   7.383  0.00  0.00     0.025 A 
ATOM     24  C   UNL d   1       1.370   8.284   8.075  0.00  0.00     0.002 A 
ATOM     25  C   UNL d   1       2.406   9.104   7.642  0.00  0.00     0.000 A 
ATOM     26  C   UNL d   1       3.128   8.751   6.504  0.00  0.00     0.002 A 
ATOM     27  C   UNL d   1       2.816   7.580   5.795  0.00  0.00     0.025 A 
ENDBRANCH  20  22
ENDBRANCH  18  20
ENDBRANCH  15  16
ENDBRANCH   1  15
TORSDOF 8
