@<TRIPOS>MOLECULE
*****
 32 33 0 0 0
SMALL
GASTEIGER

@<TRIPOS>ATOM
      1 C           1.0616   -0.1124   -0.0328 C.3     1  UNL1        0.0622
      2 O           2.4821   -0.1082   -0.0186 O.3     1  UNL1       -0.2819
      3 N           2.9732   -1.2114    0.7192 N.am    1  UNL1       -0.1787
      4 C           4.3349   -1.3457    0.7566 C.2     1  UNL1        0.3226
      5 O           5.1308   -0.5527    0.2488 O.2     1  UNL1       -0.2507
      6 N           4.7531   -2.4943    1.3834 N.am    1  UNL1       -0.2970
      7 C           6.1738   -2.7260    1.5383 C.3     1  UNL1        0.0227
      8 C           6.4422   -3.8611    2.5183 C.3     1  UNL1        0.0114
      9 C           6.3907   -3.2997    3.9379 C.ar    1  UNL1       -0.0397
     10 C           5.1769   -3.2369    4.6465 C.ar    1  UNL1       -0.0580
     11 C           4.9467   -2.2230    5.5855 C.ar    1  UNL1       -0.0615
     12 C           5.9575   -1.3227    5.9145 C.ar    1  UNL1       -0.0617
     13 C           7.1976   -1.4249    5.2958 C.ar    1  UNL1       -0.0615
     14 C           7.4177   -2.4178    4.3386 C.ar    1  UNL1       -0.0580
     15 C           5.9849   -5.2640    2.1574 C.3     1  UNL1       -0.0411
     16 C           7.4435   -4.9209    2.0862 C.3     1  UNL1       -0.0411
     17 H           0.7211    0.7436   -0.6237 H       1  UNL1        0.0547
     18 H           0.6702   -0.0084    0.9834 H       1  UNL1        0.0547
     19 H           0.6798   -1.0263   -0.4981 H       1  UNL1        0.0547
     20 H           2.3250   -1.8565    1.1431 H       1  UNL1        0.1840
     21 H           4.1190   -2.9911    1.9889 H       1  UNL1        0.1503
     22 H           6.6312   -1.7996    1.9133 H       1  UNL1        0.0471
     23 H           6.6162   -2.9094    0.5568 H       1  UNL1        0.0471
     24 H           4.3519   -3.8882    4.3693 H       1  UNL1        0.0620
     25 H           3.9532   -2.0849    6.0060 H       1  UNL1        0.0618
     26 H           5.7709   -0.5241    6.6283 H       1  UNL1        0.0618
     27 H           7.9645   -0.6775    5.4849 H       1  UNL1        0.0618
     28 H           8.3435   -2.3866    3.7653 H       1  UNL1        0.0620
     29 H           5.4594   -5.4011    1.2154 H       1  UNL1        0.0275
     30 H           5.6806   -5.9717    2.9195 H       1  UNL1        0.0275
     31 H           7.8840   -4.8409    1.0940 H       1  UNL1        0.0275
     32 H           8.1103   -5.3948    2.7967 H       1  UNL1        0.0275
@<TRIPOS>BOND
     1     1     2    1
     2     2     3    1
     3     3     4   am
     4     4     5    2
     5     4     6   am
     6     6     7    1
     7     7     8    1
     8     8     9    1
     9     9    10   ar
    10    10    11   ar
    11    11    12   ar
    12    12    13   ar
    13    13    14   ar
    14     9    14   ar
    15     8    15    1
    16    15    16    1
    17     8    16    1
    18     1    17    1
    19     1    18    1
    20     1    19    1
    21     3    20    1
    22     6    21    1
    23     7    22    1
    24     7    23    1
    25    10    24    1
    26    11    25    1
    27    12    26    1
    28    13    27    1
    29    14    28    1
    30    15    29    1
    31    15    30    1
    32    16    31    1
    33    16    32    1
