@<TRIPOS>MOLECULE
*****
 33 34 0 0 0
SMALL
GASTEIGER

@<TRIPOS>ATOM
      1 C           3.0311   -1.1208   -0.8504 C.3     1  UNL1       -0.0304
      2 C           2.5553    0.0225    0.0562 C.3     1  UNL1        0.1035
      3 O           1.1169    0.0103    0.0400 O.3     1  UNL1       -0.3827
      4 C           3.0251    1.3769   -0.5374 C.3     1  UNL1        0.0443
      5 N           2.5936    1.6305   -1.8984 N.am    1  UNL1       -0.3120
      6 C           2.9566    2.7987   -2.5131 C.2     1  UNL1        0.2162
      7 O           3.6621    3.6554   -1.9872 O.2     1  UNL1       -0.2755
      8 C           2.4476    2.9664   -3.8975 C.3     1  UNL1        0.0356
      9 C           3.0072    4.0786   -4.7613 C.3     1  UNL1       -0.0412
     10 C           3.3487    2.6515   -5.0717 C.3     1  UNL1       -0.0412
     11 C           3.0031   -0.1652    1.5087 C.ar    1  UNL1       -0.0149
     12 C           3.0910   -1.4450    2.0872 C.ar    1  UNL1       -0.0558
     13 C           3.3723   -1.6076    3.4441 C.ar    1  UNL1       -0.0614
     14 C           3.6539   -0.5002    4.2348 C.ar    1  UNL1       -0.0617
     15 C           3.6122    0.7723    3.6807 C.ar    1  UNL1       -0.0614
     16 C           3.2796    0.9374    2.3376 C.ar    1  UNL1       -0.0558
     17 H           4.1242   -1.1769   -0.8614 H       1  UNL1        0.0261
     18 H           2.6728   -1.0002   -1.8772 H       1  UNL1        0.0261
     19 H           2.6312   -2.0900   -0.5357 H       1  UNL1        0.0261
     20 H           0.8199    0.6795    0.6832 H       1  UNL1        0.2107
     21 H           4.1195    1.4463   -0.5070 H       1  UNL1        0.0493
     22 H           2.6167    2.2152    0.0396 H       1  UNL1        0.0493
     23 H           1.9293    1.0004   -2.3316 H       1  UNL1        0.1488
     24 H           1.3891    2.7533   -4.0146 H       1  UNL1        0.0394
     25 H           3.7895    4.7061   -4.3440 H       1  UNL1        0.0273
     26 H           2.3315    4.6136   -5.4168 H       1  UNL1        0.0273
     27 H           4.3644    2.3268   -4.8712 H       1  UNL1        0.0273
     28 H           2.9153    2.2061   -5.9594 H       1  UNL1        0.0273
     29 H           2.9352   -2.3471    1.5014 H       1  UNL1        0.0621
     30 H           3.3564   -2.6023    3.8813 H       1  UNL1        0.0618
     31 H           3.9066   -0.6287    5.2822 H       1  UNL1        0.0618
     32 H           3.8193    1.6469    4.2910 H       1  UNL1        0.0618
     33 H           3.2493    1.9580    1.9677 H       1  UNL1        0.0621
@<TRIPOS>BOND
     1     2     4    1
     2     4     5    1
     3     5     6   am
     4     6     7    2
     5     6     8    1
     6     8     9    1
     7     9    10    1
     8     8    10    1
     9     2    11    1
    10    11    12   ar
    11    12    13   ar
    12    13    14   ar
    13    14    15   ar
    14    15    16   ar
    15    11    16   ar
    16     2     3    1
    17     2     1    1
    18     1    17    1
    19     1    18    1
    20     1    19    1
    21     3    20    1
    22     4    21    1
    23     4    22    1
    24     5    23    1
    25     8    24    1
    26     9    25    1
    27     9    26    1
    28    10    27    1
    29    10    28    1
    30    12    29    1
    31    13    30    1
    32    14    31    1
    33    15    32    1
    34    16    33    1
