@<TRIPOS>MOLECULE
*****
 70 73 0 0 0
SMALL
GASTEIGER

@<TRIPOS>ATOM
      1 CG1         3.3222    4.2519   -7.0280 C.3     1  VAL1       -0.0605
      2 CB          2.6661    5.5895   -7.3467 C.3     1  VAL1       -0.0197
      3 CG2         2.1192    5.9667   -5.9645 C.3     1  VAL1       -0.0605
      4 CA          1.8145    5.5361   -8.6835 C.3     1  VAL1        0.1017
      5 N           2.5520    4.7182   -9.6701 N.am    1  VAL1       -0.3020
      6 C           2.1861    4.7945  -10.9971 C.2     0  UNK0        0.2371
      7 O           1.1716    5.3465  -11.4092 O.2     0  UNK0       -0.2735
      8 C           3.1418    4.0568  -11.9121 C.3     0  UNK0        0.1220
      9 C           3.6603    5.0514  -12.9485 C.3     0  UNK0        0.0040
     10 C           5.1131    5.3149  -12.9170 C.ar    0  UNK0       -0.0199
     11 C           6.0532    4.9058  -12.0015 C.ar    0  UNK0        0.0060
     12 N           7.2679    5.3461  -12.4369 N.ar    0  UNK0       -0.3604
     13 C           7.1244    6.0898  -13.5851 C.ar    0  UNK0        0.0467
     14 C           8.0666    6.7816  -14.3454 C.ar    0  UNK0       -0.0378
     15 C           7.6018    7.4916  -15.4600 C.ar    0  UNK0       -0.0598
     16 C           6.2564    7.4808  -15.8234 C.ar    0  UNK0       -0.0611
     17 C           5.3315    6.7625  -15.0677 C.ar    0  UNK0       -0.0523
     18 C           5.7761    6.0771  -13.9179 C.ar    0  UNK0        0.0029
     19 N           2.3446    2.9767  -12.4608 N.ar    0  UNK0       -0.2482
     20 C           2.2637    1.8157  -11.7030 C.ar    0  UNK0        0.3305
     21 O           2.8439    1.6424  -10.6314 O.2     0  UNK0       -0.2464
     22 N           1.4667    0.8259  -12.2018 N.ar    0  UNK0       -0.3070
     23 C           0.6766    0.9900  -13.3357 C.ar    0  UNK0        0.0556
     24 C          -0.2044    0.0034  -13.7362 C.ar    0  UNK0       -0.0375
     25 C          -1.1293    0.2960  -14.7432 C.ar    0  UNK0       -0.0598
     26 C          -1.0124    1.4557  -15.5124 C.ar    0  UNK0       -0.0609
     27 C          -0.0507    2.3894  -15.1877 C.ar    0  UNK0       -0.0474
     28 C           0.7121    2.1817  -14.0419 C.ar    0  UNK0        0.0630
     29 C           1.5162    3.2637  -13.5319 C.ar    0  UNK0        0.2650
     30 O           1.3881    4.3583  -14.1047 O.2     0  UNK0       -0.2668
     31 C           1.6036    6.9857   -9.2341 C.2     1  VAL1        0.2342
     32 O           2.2894    7.4740  -10.1436 O.2     1  VAL1       -0.2738
     33 N           0.6400    7.7856   -8.6949 N.am    2  THR2       -0.3033
     34 CA          0.0377    7.7171   -7.3401 C.3     2  THR2        0.0882
     35 C          -0.4516    6.3409   -6.7209 C.2     2  THR2        0.0644
     36 O          -0.4988    6.2977   -5.4519 O.co2   2  THR2       -0.5478
     37 OXT        -0.6995    5.3934   -7.5080 O.co2   2  THR2       -0.5478
     38 CB         -1.3013    8.4479   -7.2787 C.3     2  THR2        0.0759
     39 CG2        -1.8438    8.5728   -5.8500 C.3     2  THR2       -0.0368
     40 OG1        -1.1431    9.7906   -7.7838 O.3     2  THR2       -0.3899
     41 HG11        3.9199    4.3468   -6.1148 H       1  VAL1        0.0233
     42 HG12        3.9956    3.9282   -7.8161 H       1  VAL1        0.0233
     43 HG13        2.5523    3.4920   -6.8468 H       1  VAL1        0.0233
     44 HB          3.4360    6.3426   -7.5440 H       1  VAL1        0.0318
     45 HG21        1.4147    5.2034   -5.6143 H       1  VAL1        0.0233
     46 HG22        1.7433    6.9763   -5.9058 H       1  VAL1        0.0233
     47 HG23        2.8797    5.9970   -5.1772 H       1  VAL1        0.0233
     48 HA          0.8709    5.0042   -8.7079 H       1  VAL1        0.0597
     49 H           2.5799    3.7365   -9.3941 H       1  VAL1        0.1495
     50 H           3.9492    3.6123  -11.3209 H       0  UNK0        0.0630
     51 H           3.5201    4.6598  -13.9612 H       0  UNK0        0.0339
     52 H           3.1321    6.0127  -12.8911 H       0  UNK0        0.0339
     53 H           5.9597    4.3378  -11.0855 H       0  UNK0        0.0810
     54 H           8.1383    5.1743  -11.9588 H       0  UNK0        0.1653
     55 H           9.1124    6.7915  -14.0671 H       0  UNK0        0.0638
     56 H           8.3049    8.0724  -16.0491 H       0  UNK0        0.0618
     57 H           5.9147    8.0440  -16.6876 H       0  UNK0        0.0618
     58 H           4.2782    6.7584  -15.3425 H       0  UNK0        0.0624
     59 H           1.3984   -0.0064  -11.6313 H       0  UNK0        0.1704
     60 H          -0.2141   -0.9650  -13.2496 H       0  UNK0        0.0638
     61 H          -1.9626   -0.3757  -14.9168 H       0  UNK0        0.0618
     62 H          -1.6796    1.6518  -16.3445 H       0  UNK0        0.0618
     63 H           0.0672    3.3043  -15.7664 H       0  UNK0        0.0626
     64 H           0.6597    8.7025   -9.1277 H       2  THR2        0.1495
     65 HA          0.7460    8.3014   -6.7357 H       2  THR2        0.0586
     66 HB         -2.0084    7.9315   -7.9342 H       2  THR2        0.0613
     67 HG21       -1.1004    9.0555   -5.2009 H       2  THR2        0.0255
     68 HG22       -2.1191    7.6207   -5.3931 H       2  THR2        0.0255
     69 HG23       -2.7645    9.1467   -5.8340 H       2  THR2        0.0255
     70 HG1        -0.5354   10.2433   -7.1750 H       2  THR2        0.2099
@<TRIPOS>UNITY_ATOM_ATTR
37 1
charge -1
@<TRIPOS>BOND
     1     1     2    1
     2     2     3    1
     3     5     6   am
     4     6     7    2
     5     9    10    1
     6    10    11   ar
     7    11    12   ar
     8    12    13   ar
     9    13    14   ar
    10    14    15   ar
    11    15    16   ar
    12    16    17   ar
    13    17    18   ar
    14    10    18   ar
    15    13    18   ar
    16     8    19    1
    17    19    20   ar
    18    20    21    2
    19    20    22   ar
    20    22    23   ar
    21    23    24   ar
    22    24    25   ar
    23    25    26   ar
    24    26    27   ar
    25    27    28   ar
    26    23    28   ar
    27    28    29   ar
    28    19    29   ar
    29    29    30    2
    30     4    31    1
    31    31    32    2
    32    31    33   am
    33    35    36   ar
    34    35    37   ar
    35    34    38    1
    36    38    39    1
    37    38    40    1
    38     8     9    1
    39     8     6    1
    40     4     5    1
    41     4     2    1
    42    34    35    1
    43    34    33    1
    44     1    41    1
    45     1    42    1
    46     1    43    1
    47     2    44    1
    48     3    45    1
    49     3    46    1
    50     3    47    1
    51     4    48    1
    52     5    49    1
    53     8    50    1
    54     9    51    1
    55     9    52    1
    56    11    53    1
    57    12    54    1
    58    14    55    1
    59    15    56    1
    60    16    57    1
    61    17    58    1
    62    22    59    1
    63    24    60    1
    64    25    61    1
    65    26    62    1
    66    27    63    1
    67    33    64    1
    68    34    65    1
    69    38    66    1
    70    39    67    1
    71    39    68    1
    72    39    69    1
    73    40    70    1
