@<TRIPOS>MOLECULE
*****
 42 43 0 0 0
SMALL
GASTEIGER

@<TRIPOS>ATOM
      1 O           1.1149   -0.0244    0.1995 O.2     1  UNL1       -0.2743
      2 C           2.3433    0.0266    0.1327 C.2     1  UNL1        0.2292
      3 C           3.0547    0.8125   -0.9578 C.3     1  UNL1        0.0285
      4 C           2.0763    1.5169   -1.9135 C.3     1  UNL1       -0.0103
      5 C           2.8166    2.3070   -2.9927 C.3     1  UNL1        0.0900
      6 O           1.8740    3.0063   -3.8176 O.3     1  UNL1       -0.4920
      7 C           2.4389    3.6559   -4.8874 C.ar    1  UNL1        0.1205
      8 C           1.9313    4.9151   -5.2184 C.ar    1  UNL1       -0.0199
      9 C           2.4203    5.5995   -6.3376 C.ar    1  UNL1       -0.0583
     10 C           3.4538    5.0512   -7.0959 C.ar    1  UNL1       -0.0615
     11 C           3.9484    3.7896   -6.7792 C.ar    1  UNL1       -0.0583
     12 C           3.4249    3.0854   -5.6942 C.ar    1  UNL1       -0.0199
     13 N           3.1058   -0.6419    1.0640 N.am    1  UNL1       -0.2332
     14 N           4.5100   -0.6969    1.1230 N.am    1  UNL1       -0.2182
     15 C           5.1014   -1.4256    2.1466 C.2     1  UNL1        0.3160
     16 O           4.4554   -2.0280    3.0027 O.2     1  UNL1       -0.2513
     17 N           6.4728   -1.4043    2.1091 N.am    1  UNL1       -0.2980
     18 C           7.2866   -2.1023    3.0919 C.3     1  UNL1        0.0159
     19 C           8.7696   -1.9429    2.8811 C.3     1  UNL1       -0.0254
     20 C           9.4112   -2.2766    1.5546 C.3     1  UNL1       -0.0485
     21 C           9.3854   -0.8494    2.0374 C.3     1  UNL1       -0.0485
     22 H           3.6855    0.1196   -1.5260 H       1  UNL1        0.0360
     23 H           3.6944    1.5627   -0.4808 H       1  UNL1        0.0360
     24 H           1.4090    2.1894   -1.3611 H       1  UNL1        0.0302
     25 H           1.4188    0.7804   -2.3954 H       1  UNL1        0.0302
     26 H           3.4108    1.5924   -3.5698 H       1  UNL1        0.0696
     27 H           3.4837    3.0420   -2.5282 H       1  UNL1        0.0696
     28 H           1.1600    5.3748   -4.6056 H       1  UNL1        0.0654
     29 H           1.9935    6.5578   -6.6235 H       1  UNL1        0.0619
     30 H           3.8665    5.5997   -7.9386 H       1  UNL1        0.0618
     31 H           4.7286    3.3390   -7.3863 H       1  UNL1        0.0619
     32 H           3.7897    2.0813   -5.5154 H       1  UNL1        0.0654
     33 H           2.6081   -1.1624    1.7889 H       1  UNL1        0.1728
     34 H           5.0571   -0.1911    0.4421 H       1  UNL1        0.1744
     35 H           6.9309   -0.9383    1.3469 H       1  UNL1        0.1503
     36 H           7.0279   -3.1677    3.0701 H       1  UNL1        0.0465
     37 H           7.0212   -1.7241    4.0860 H       1  UNL1        0.0465
     38 H           9.3161   -2.2534    3.7697 H       1  UNL1        0.0316
     39 H           8.7645   -2.5759    0.7382 H       1  UNL1        0.0269
     40 H          10.3660   -2.7944    1.5558 H       1  UNL1        0.0269
     41 H           8.7519   -0.1368    1.5277 H       1  UNL1        0.0269
     42 H          10.3125   -0.4010    2.3795 H       1  UNL1        0.0269
@<TRIPOS>BOND
     1     1     2    2
     2     2     3    1
     3     3     4    1
     4     4     5    1
     5     5     6    1
     6     6     7    1
     7     7     8   ar
     8     8     9   ar
     9     9    10   ar
    10    10    11   ar
    11    11    12   ar
    12     7    12   ar
    13     2    13   am
    14    13    14    1
    15    14    15   am
    16    15    16    2
    17    15    17   am
    18    17    18    1
    19    18    19    1
    20    19    20    1
    21    20    21    1
    22    19    21    1
    23     3    22    1
    24     3    23    1
    25     4    24    1
    26     4    25    1
    27     5    26    1
    28     5    27    1
    29     8    28    1
    30     9    29    1
    31    10    30    1
    32    11    31    1
    33    12    32    1
    34    13    33    1
    35    14    34    1
    36    17    35    1
    37    18    36    1
    38    18    37    1
    39    19    38    1
    40    20    39    1
    41    20    40    1
    42    21    41    1
    43    21    42    1
