@<TRIPOS>MOLECULE
*****
 69 72 0 0 0
SMALL
GASTEIGER

@<TRIPOS>ATOM
      1 C          -3.3844  -11.8069    2.1716 C.3     1  UNL1        0.0788
      2 O          -4.5483  -11.4840    2.9602 O.3     1  UNL1       -0.4950
      3 C          -4.4098  -10.5927    3.9849 C.ar    1  UNL1        0.1237
      4 C          -5.2491  -10.5755    5.0857 C.ar    1  UNL1       -0.0180
      5 C          -5.1853   -9.5446    6.1435 C.ar    1  UNL1       -0.0335
      6 C          -4.2074   -8.5150    6.2109 C.ar    1  UNL1        0.0749
      7 N          -3.9287   -7.6749    7.4315 N.pl3   1  UNL1       -0.2966
      8 C          -3.0619   -6.4389    7.8909 C.ar    1  UNL1        0.1244
      9 C          -3.5598   -5.2489    7.4953 C.ar    1  UNL1       -0.0089
     10 C          -2.6225   -4.1834    7.5160 C.ar    1  UNL1        0.0491
     11 C          -1.4175   -4.1766    6.6452 C.2     1  UNL1        0.2450
     12 O          -0.4957   -3.3239    6.7663 O.2     1  UNL1       -0.2702
     13 N          -1.2967   -5.1192    5.6881 N.am    1  UNL1       -0.3063
     14 C          -0.2141   -4.9450    4.7488 C.3     1  UNL1        0.0520
     15 C          -0.2160   -6.0286    3.7226 C.3     1  UNL1       -0.0162
     16 N           0.4941   -5.9952    2.4408 N.4     1  UNL1        0.2344
     17 C           1.8154   -5.4180    2.7670 C.3     1  UNL1       -0.0430
     18 C          -0.2702   -5.2325    1.3735 C.3     1  UNL1       -0.0280
     19 C          -1.6101   -5.8529    0.8810 C.3     1  UNL1        0.0127
     20 C          -2.2625   -4.9846   -0.1648 C.ar    1  UNL1       -0.0423
     21 C          -1.9908   -3.6076   -0.1977 C.ar    1  UNL1       -0.0584
     22 C          -2.6308   -2.7680   -1.0881 C.ar    1  UNL1       -0.0615
     23 C          -3.5129   -3.3047   -2.0102 C.ar    1  UNL1       -0.0617
     24 C          -3.8297   -4.6638   -1.9730 C.ar    1  UNL1       -0.0615
     25 C          -3.2291   -5.5038   -1.0338 C.ar    1  UNL1       -0.0584
     26 C          -2.2821   -3.6378    8.7243 C.ar    1  UNL1        0.0126
     27 C          -1.9672   -2.2127    8.7881 C.ar    1  UNL1       -0.0518
     28 C          -1.5628   -1.5592    9.9280 C.ar    1  UNL1       -0.0611
     29 C          -1.5924   -2.3368   11.0548 C.ar    1  UNL1       -0.0597
     30 C          -1.8578   -3.7838   10.9401 C.ar    1  UNL1       -0.0356
     31 C          -2.1871   -4.6070    9.6976 C.ar    1  UNL1        0.0738
     32 N          -2.5016   -6.1131    9.1574 N.ar    1  UNL1       -0.2319
     33 C          -3.4182   -8.6017    5.0729 C.ar    1  UNL1        0.1446
     34 O          -2.5123   -7.6202    4.9336 O.3     1  UNL1       -0.4931
     35 C          -2.4276   -7.3859    3.5651 C.3     1  UNL1        0.0789
     36 C          -3.4974   -9.5951    4.0028 C.ar    1  UNL1        0.0236
     37 H          -3.6903  -12.4514    1.3381 H       1  UNL1        0.0660
     38 H          -2.6663  -12.3633    2.7819 H       1  UNL1        0.0660
     39 H          -2.8887  -10.9443    1.7051 H       1  UNL1        0.0660
     40 H          -5.9394  -11.4133    5.1769 H       1  UNL1        0.0655
     41 H          -5.9661   -9.6192    6.8933 H       1  UNL1        0.0638
     42 H          -4.7879   -7.6248    7.9761 H       1  UNL1        0.1537
     43 H          -4.3725   -5.0619    8.2685 H       1  UNL1        0.0660
     44 H          -1.9246   -5.9325    5.7050 H       1  UNL1        0.1492
     45 H           0.7330   -4.9248    5.2840 H       1  UNL1        0.0515
     46 H          -0.4156   -3.9836    4.2633 H       1  UNL1        0.0515
     47 H          -1.1653   -5.8024    3.3283 H       1  UNL1        0.0830
     48 H          -0.0389   -7.0017    4.1877 H       1  UNL1        0.0830
     49 H           0.6054   -6.9613    2.0940 H       1  UNL1        0.2031
     50 H           1.6313   -4.4091    3.1469 H       1  UNL1        0.0778
     51 H           2.4171   -5.3984    1.8685 H       1  UNL1        0.0778
     52 H           2.2410   -6.0549    3.5492 H       1  UNL1        0.0778
     53 H           0.4041   -5.1102    0.5247 H       1  UNL1        0.0817
     54 H          -0.4725   -4.2678    1.8449 H       1  UNL1        0.0817
     55 H          -2.3698   -5.8703    1.6614 H       1  UNL1        0.0365
     56 H          -1.4777   -6.8818    0.5241 H       1  UNL1        0.0365
     57 H          -1.2742   -3.1313    0.4606 H       1  UNL1        0.0620
     58 H          -2.4260   -1.7022   -1.0522 H       1  UNL1        0.0618
     59 H          -3.9540   -2.6539   -2.7581 H       1  UNL1        0.0618
     60 H          -4.5553   -5.0613   -2.6786 H       1  UNL1        0.0618
     61 H          -3.5244   -6.5520   -1.0011 H       1  UNL1        0.0620
     62 H          -2.0465   -1.6180    7.8770 H       1  UNL1        0.0624
     63 H          -1.2913   -0.4999    9.9154 H       1  UNL1        0.0618
     64 H          -1.4424   -1.8166   12.0097 H       1  UNL1        0.0618
     65 H          -1.8617   -4.2675   11.9198 H       1  UNL1        0.0639
     66 H          -2.6660   -6.3338    3.5661 H       1  UNL1        0.0660
     67 H          -3.1065   -7.6903    2.7644 H       1  UNL1        0.0660
     68 H          -1.4706   -7.8498    3.2845 H       1  UNL1        0.0660
     69 H          -2.8321   -9.5518    3.1444 H       1  UNL1        0.0691
@<TRIPOS>UNITY_ATOM_ATTR
16 1
charge 1
@<TRIPOS>BOND
     1     1     2    1
     2     2     3    1
     3     3     4   ar
     4     4     5   ar
     5     5     6   ar
     6     6     7    1
     7     7     8    1
     8     8     9   ar
     9     9    10   ar
    10    10    11    1
    11    11    12    2
    12    11    13   am
    13    13    14    1
    14    14    15    1
    15    16    18    1
    16    18    19    1
    17    19    20    1
    18    20    21   ar
    19    21    22   ar
    20    22    23   ar
    21    23    24   ar
    22    24    25   ar
    23    20    25   ar
    24    10    26   ar
    25    26    27   ar
    26    27    28   ar
    27    28    29   ar
    28    29    30   ar
    29    30    31   ar
    30    26    31   ar
    31    31    32   ar
    32     8    32   ar
    33     6    33   ar
    34    33    34    1
    35    34    35    1
    36    33    36   ar
    37     3    36   ar
    38    16    17    1
    39    16    15    1
    40     1    37    1
    41     1    38    1
    42     1    39    1
    43     4    40    1
    44     5    41    1
    45     7    42    1
    46     9    43    1
    47    13    44    1
    48    14    45    1
    49    14    46    1
    50    15    47    1
    51    15    48    1
    52    16    49    1
    53    17    50    1
    54    17    51    1
    55    17    52    1
    56    18    53    1
    57    18    54    1
    58    19    55    1
    59    19    56    1
    60    21    57    1
    61    22    58    1
    62    23    59    1
    63    24    60    1
    64    25    61    1
    65    27    62    1
    66    28    63    1
    67    29    64    1
    68    30    65    1
    69    35    66    1
    70    35    67    1
    71    35    68    1
    72    36    69    1
