@<TRIPOS>MOLECULE
*****
 43 44 0 0 0
SMALL
GASTEIGER

@<TRIPOS>ATOM
      1 C           2.4643   -0.0041   -0.0125 C.3     1  UNL1       -0.0397
      2 C           0.9612   -0.0024    0.0023 C.ar    1  UNL1       -0.0504
      3 C           0.2259   -1.1909    0.0039 C.ar    1  UNL1       -0.0581
      4 C          -1.1811   -1.1606   -0.0026 C.ar    1  UNL1       -0.0493
      5 C          -1.8854    0.0590   -0.0117 C.ar    1  UNL1        0.0382
      6 C          -3.3971    0.0432   -0.0412 C.2     1  UNL1        0.2601
      7 O          -4.0079   -1.0277   -0.0535 O.2     1  UNL1       -0.2687
      8 N          -4.0683    1.2609   -0.0592 N.am    1  UNL1       -0.2304
      9 N          -5.4890    1.2941   -0.0803 N.am    1  UNL1       -0.2341
     10 C          -6.1165    2.5283   -0.0763 C.2     1  UNL1        0.2306
     11 O          -5.4683    3.5768   -0.0742 O.2     1  UNL1       -0.2742
     12 C          -7.6468    2.5024   -0.0903 C.3     1  UNL1        0.0409
     13 C          -8.1958    3.9336   -0.0754 C.3     1  UNL1        0.0202
     14 N          -9.6451    4.0325   -0.3176 N.am    1  UNL1       -0.3109
     15 C         -10.3508    5.2333   -0.2759 C.2     1  UNL1        0.2441
     16 O         -11.3768    5.3111    0.4020 O.2     1  UNL1       -0.2702
     17 C          -9.9328    6.3840   -1.1391 C.ar    1  UNL1        0.0368
     18 C         -10.6249    7.6063   -1.1045 C.ar    1  UNL1       -0.0483
     19 C         -10.2617    8.6494   -1.9758 C.ar    1  UNL1       -0.0427
     20 C          -9.1897    8.4875   -2.8540 C.ar    1  UNL1        0.0410
     21 CL         -8.7340    9.7427   -3.9346 Cl      1  UNL1       -0.0835
     22 C          -8.5070    7.2843   -2.9003 C.ar    1  UNL1       -0.0427
     23 C          -8.9229    6.2331   -2.0920 C.ar    1  UNL1       -0.0483
     24 C          -1.1376    1.2433   -0.0005 C.ar    1  UNL1       -0.0493
     25 C           0.2664    1.2110    0.0047 C.ar    1  UNL1       -0.0581
     26 H           2.8711   -1.0208    0.0007 H       1  UNL1        0.0278
     27 H           2.8552    0.5234    0.8642 H       1  UNL1        0.0278
     28 H           2.8335    0.4910   -0.9175 H       1  UNL1        0.0278
     29 H           0.7414   -2.1508    0.0057 H       1  UNL1        0.0620
     30 H          -1.7193   -2.1078   -0.0045 H       1  UNL1        0.0625
     31 H          -3.6174    2.1718   -0.0498 H       1  UNL1        0.1731
     32 H          -5.9662    0.3945   -0.0932 H       1  UNL1        0.1728
     33 H          -8.0216    1.9495    0.7766 H       1  UNL1        0.0374
     34 H          -7.9821    1.9907   -1.0002 H       1  UNL1        0.0374
     35 H          -7.6573    4.4765   -0.8441 H       1  UNL1        0.0467
     36 H          -7.9674    4.4553    0.8606 H       1  UNL1        0.0467
     37 H         -10.2009    3.3067    0.1219 H       1  UNL1        0.1490
     38 H         -11.4751    7.7466   -0.4371 H       1  UNL1        0.0625
     39 H         -10.8237    9.5801   -1.9768 H       1  UNL1        0.0632
     40 H          -7.6769    7.1230   -3.5813 H       1  UNL1        0.0632
     41 H          -8.4606    5.2772   -2.2808 H       1  UNL1        0.0625
     42 H          -1.6081    2.2188    0.0011 H       1  UNL1        0.0625
     43 H           0.8180    2.1497    0.0061 H       1  UNL1        0.0620
@<TRIPOS>BOND
     1     1     2    1
     2     2     3   ar
     3     3     4   ar
     4     4     5   ar
     5     5     6    1
     6     6     7    2
     7     6     8   am
     8     8     9    1
     9     9    10   am
    10    10    11    2
    11    10    12    1
    12    12    13    1
    13    13    14    1
    14    14    15   am
    15    15    16    2
    16    15    17    1
    17    17    18   ar
    18    18    19   ar
    19    19    20   ar
    20    20    21    1
    21    20    22   ar
    22    22    23   ar
    23    17    23   ar
    24     5    24   ar
    25    24    25   ar
    26     2    25   ar
    27     1    26    1
    28     1    27    1
    29     1    28    1
    30     3    29    1
    31     4    30    1
    32     8    31    1
    33     9    32    1
    34    12    33    1
    35    12    34    1
    36    13    35    1
    37    13    36    1
    38    14    37    1
    39    18    38    1
    40    19    39    1
    41    22    40    1
    42    23    41    1
    43    24    42    1
    44    25    43    1
