@<TRIPOS>MOLECULE
*****
 32 33 0 0 0
SMALL
GASTEIGER

@<TRIPOS>ATOM
      1 C           1.1064    0.0578    0.1100 C.3     1  UNL1        0.0004
      2 N           2.5515    0.0669    0.1692 N.am    1  UNL1       -0.3143
      3 C           3.2256    0.4807    1.3034 C.2     1  UNL1        0.2467
      4 O           2.6590    0.8236    2.3394 O.2     1  UNL1       -0.2701
      5 C           4.7117    0.4743    1.2580 C.ar    1  UNL1        0.0735
      6 C           5.4700    0.0187    2.3688 C.ar    1  UNL1       -0.0256
      7 C           6.8805    0.0237    2.3253 C.ar    1  UNL1        0.0346
      8 N           7.6527   -0.4655    3.4245 N.am    1  UNL1       -0.2802
      9 C           9.0566   -0.4808    3.4805 C.2     1  UNL1        0.2666
     10 O           9.8239   -0.1023    2.5965 O.2     1  UNL1       -0.2682
     11 C           9.7013   -1.0150    4.7167 C.ar    1  UNL1        0.1270
     12 C           9.3098   -2.2269    5.2516 C.ar    1  UNL1       -0.0128
     13 C          10.0110   -2.6835    6.3619 C.ar    1  UNL1        0.0446
     14 CL          9.5611   -4.1753    7.0916 Cl      1  UNL1       -0.0834
     15 C          11.0699   -1.9555    6.8936 C.ar    1  UNL1       -0.0252
     16 C          11.4080   -0.7723    6.2707 C.ar    1  UNL1        0.0298
     17 N          10.7466   -0.2879    5.2008 N.ar    1  UNL1       -0.2503
     18 C           7.4914    0.5241    1.1704 C.ar    1  UNL1       -0.0377
     19 C           6.7508    1.0046    0.0921 C.ar    1  UNL1       -0.0239
     20 C           5.3678    0.9734    0.1355 C.ar    1  UNL1        0.1356
     21 F           4.6905    1.4501   -0.9183 F       1  UNL1       -0.2047
     22 H           0.7844   -0.3237   -0.8635 H       1  UNL1        0.0426
     23 H           0.7270    1.0742    0.2490 H       1  UNL1        0.0426
     24 H           0.7141   -0.5844    0.9034 H       1  UNL1        0.0426
     25 H           3.0671   -0.1968   -0.6626 H       1  UNL1        0.1487
     26 H           4.9340   -0.3359    3.2475 H       1  UNL1        0.0644
     27 H           7.1382   -0.7712    4.2430 H       1  UNL1        0.1552
     28 H           8.5194   -2.8140    4.8026 H       1  UNL1        0.0655
     29 H          11.6192   -2.2975    7.7638 H       1  UNL1        0.0647
     30 H          12.2371   -0.1641    6.6247 H       1  UNL1        0.0830
     31 H           8.5678    0.5735    1.0603 H       1  UNL1        0.0637
     32 H           7.2685    1.4057   -0.7732 H       1  UNL1        0.0647
@<TRIPOS>BOND
     1     1     2    1
     2     2     3   am
     3     3     4    2
     4     3     5    1
     5     5     6   ar
     6     6     7   ar
     7     7     8    1
     8     8     9   am
     9     9    10    2
    10     9    11    1
    11    11    12   ar
    12    12    13   ar
    13    13    14    1
    14    13    15   ar
    15    15    16   ar
    16    16    17   ar
    17    11    17   ar
    18     7    18   ar
    19    18    19   ar
    20    19    20   ar
    21     5    20   ar
    22    20    21    1
    23     1    22    1
    24     1    23    1
    25     1    24    1
    26     2    25    1
    27     6    26    1
    28     8    27    1
    29    12    28    1
    30    15    29    1
    31    16    30    1
    32    18    31    1
    33    19    32    1
