@<TRIPOS>MOLECULE
*****
 58 59 0 0 0
SMALL
GASTEIGER

@<TRIPOS>ATOM
      1 C           3.3593   -0.5505    1.0701 C.3     1  UNL1       -0.0190
      2 C           2.5519    0.0277   -0.0736 C.3     1  UNL1        0.1741
      3 O           1.1076   -0.0480    0.0595 O.3     1  UNL1       -0.4784
      4 C           0.3757   -0.3779    1.1725 C.ar    1  UNL1        0.1399
      5 C           0.8851   -0.7959    2.4032 C.ar    1  UNL1       -0.0171
      6 C           0.1085   -1.0884    3.5158 C.ar    1  UNL1       -0.0398
      7 C          -1.2578   -1.0299    3.4159 C.ar    1  UNL1        0.0426
      8 CL         -2.1879   -1.4379    4.7968 Cl      1  UNL1       -0.0835
      9 C          -1.8388   -0.6728    2.2036 C.ar    1  UNL1       -0.0215
     10 C          -1.0305   -0.3383    1.0929 C.ar    1  UNL1        0.0839
     11 CL         -1.8474    0.0866   -0.3736 Cl      1  UNL1       -0.0797
     12 C           3.0324   -0.6681   -1.3873 C.2     1  UNL1        0.2695
     13 O           2.2636   -1.1434   -2.2238 O.2     1  UNL1       -0.2702
     14 N           4.4142   -0.7201   -1.5746 N.am    1  UNL1       -0.2313
     15 N           4.9468   -1.4228   -2.6845 N.am    1  UNL1       -0.2343
     16 C           6.3248   -1.5096   -2.8161 C.2     1  UNL1        0.2291
     17 O           7.0789   -1.0272   -1.9711 O.2     1  UNL1       -0.2743
     18 C           6.8250   -2.2356   -4.0735 C.3     1  UNL1        0.0259
     19 C           8.3627   -2.2713   -4.1365 C.3     1  UNL1       -0.0347
     20 C           8.9509   -2.9795   -5.3708 C.3     1  UNL1        0.0454
     21 C          10.4771   -2.9502   -5.3224 C.2     1  UNL1        0.3071
     22 O          11.1289   -2.4405   -4.4297 O.2     1  UNL1       -0.2509
     23 O          11.0269   -3.5710   -6.4124 O.3     1  UNL1       -0.4646
     24 C          12.4705   -3.5612   -6.4038 C.3     1  UNL1        0.0928
     25 C          12.9935   -4.2697   -7.6464 C.3     1  UNL1       -0.0146
     26 C          14.5244   -4.2971   -7.6843 C.3     1  UNL1       -0.0246
     27 C          15.0277   -5.0219   -8.9078 C.ar    1  UNL1       -0.0472
     28 C          14.7443   -6.3844   -9.0793 C.ar    1  UNL1       -0.0586
     29 C          15.2277   -7.0759  -10.1871 C.ar    1  UNL1       -0.0615
     30 C          15.9465   -6.3983  -11.1678 C.ar    1  UNL1       -0.0617
     31 C          16.2311   -5.0422  -11.0123 C.ar    1  UNL1       -0.0615
     32 C          15.7851   -4.3576   -9.8802 C.ar    1  UNL1       -0.0586
     33 H           4.4376   -0.5947    0.9488 H       1  UNL1        0.0270
     34 H           3.0370   -1.5892    1.2219 H       1  UNL1        0.0270
     35 H           3.2177    0.0871    1.9496 H       1  UNL1        0.0270
     36 H           2.8016    1.0943   -0.1692 H       1  UNL1        0.0829
     37 H           1.9102   -0.9826    2.6383 H       1  UNL1        0.0655
     38 H           0.6191   -1.3806    4.4302 H       1  UNL1        0.0633
     39 H          -2.9212   -0.6633    2.1216 H       1  UNL1        0.0648
     40 H           5.1055   -0.3699   -0.9115 H       1  UNL1        0.1729
     41 H           4.2717   -1.8048   -3.3439 H       1  UNL1        0.1728
     42 H           6.4330   -1.7177   -4.9560 H       1  UNL1        0.0359
     43 H           6.4324   -3.2585   -4.0698 H       1  UNL1        0.0359
     44 H           8.7455   -2.7633   -3.2327 H       1  UNL1        0.0275
     45 H           8.7451   -1.2425   -4.1060 H       1  UNL1        0.0275
     46 H           8.6177   -2.4746   -6.2840 H       1  UNL1        0.0378
     47 H           8.6187   -4.0230   -5.3951 H       1  UNL1        0.0378
     48 H          12.8328   -4.0829   -5.5094 H       1  UNL1        0.0697
     49 H          12.8308   -2.5258   -6.3943 H       1  UNL1        0.0697
     50 H          12.6063   -3.7788   -8.5479 H       1  UNL1        0.0301
     51 H          12.5868   -5.2879   -7.6666 H       1  UNL1        0.0301
     52 H          14.9277   -4.7995   -6.7951 H       1  UNL1        0.0314
     53 H          14.9196   -3.2732   -7.6627 H       1  UNL1        0.0314
     54 H          14.1358   -6.9151   -8.3508 H       1  UNL1        0.0620
     55 H          15.0417   -8.1420  -10.2813 H       1  UNL1        0.0618
     56 H          16.2825   -6.9284  -12.0544 H       1  UNL1        0.0618
     57 H          16.8066   -4.5191  -11.7714 H       1  UNL1        0.0618
     58 H          16.0254   -3.3025   -9.7699 H       1  UNL1        0.0620
@<TRIPOS>BOND
     1     3     4    1
     2     4     5   ar
     3     5     6   ar
     4     6     7   ar
     5     7     8    1
     6     7     9   ar
     7     9    10   ar
     8     4    10   ar
     9    10    11    1
    10     2    12    1
    11    12    13    2
    12    12    14   am
    13    14    15    1
    14    15    16   am
    15    16    17    2
    16    16    18    1
    17    18    19    1
    18    19    20    1
    19    20    21    1
    20    21    22    2
    21    21    23    1
    22    23    24    1
    23    24    25    1
    24    25    26    1
    25    26    27    1
    26    27    28   ar
    27    28    29   ar
    28    29    30   ar
    29    30    31   ar
    30    31    32   ar
    31    27    32   ar
    32     2     3    1
    33     2     1    1
    34     1    33    1
    35     1    34    1
    36     1    35    1
    37     2    36    1
    38     5    37    1
    39     6    38    1
    40     9    39    1
    41    14    40    1
    42    15    41    1
    43    18    42    1
    44    18    43    1
    45    19    44    1
    46    19    45    1
    47    20    46    1
    48    20    47    1
    49    24    48    1
    50    24    49    1
    51    25    50    1
    52    25    51    1
    53    26    52    1
    54    26    53    1
    55    28    54    1
    56    29    55    1
    57    30    56    1
    58    31    57    1
    59    32    58    1
