REMARK  6 active torsions:
REMARK  status: ('A' for Active; 'I' for Inactive)
REMARK    1  A    between atoms: O_2  and  C_3 
REMARK    2  A    between atoms: C_3  and  C_4 
REMARK    3  A    between atoms: C_3  and  C_26 
REMARK       I    between atoms: C_4  and  N_6 
REMARK    4  A    between atoms: N_6  and  C_7 
REMARK    5  A    between atoms: N_11  and  C_12 
REMARK    6  A    between atoms: C_15  and  C_16 
ROOT
ATOM      1  C   UNL d   1       0.474  -2.219  -3.402  0.00  0.00     0.043 A 
ATOM      2  C   UNL d   1      -0.569  -1.421  -3.963  0.00  0.00     0.066 A 
ATOM      3  C   UNL d   1      -0.949  -1.770  -5.291  0.00  0.00     0.111 A 
ATOM      4  N   UNL d   1      -1.805  -1.181  -6.155  0.00  0.00    -0.147 NA
ATOM      5  N   UNL d   1      -1.809  -2.039  -7.214  0.00  0.00    -0.150 N 
ATOM      6  N   UNL d   1      -0.991  -3.110  -7.134  0.00  0.00    -0.147 NA
ATOM      7  C   UNL d   1      -0.370  -2.930  -5.962  0.00  0.00     0.110 A 
ATOM      8  C   UNL d   1       0.640  -3.713  -5.380  0.00  0.00     0.045 A 
ATOM      9  C   UNL d   1       1.042  -3.344  -4.079  0.00  0.00    -0.033 A 
ATOM     10  C   UNL d   1       2.025  -4.251  -3.370  0.00  0.00     0.050 C 
ENDROOT
BRANCH   1  11
ATOM     11  N   UNL d   1       0.967  -1.938  -2.096  0.00  0.00    -0.324 N 
ATOM     12  C   UNL d   1       2.316  -1.602  -1.892  0.00  0.00     0.255 C 
ATOM     13  O   UNL d   1       3.120  -1.528  -2.836  0.00  0.00    -0.270 OA
ATOM     14  H   UNL d   1       0.275  -1.706  -1.398  0.00  0.00     0.169 HD
BRANCH  12  15
ATOM     15  C   UNL d   1       2.773  -1.299  -0.420  0.00  0.00     0.246 C 
BRANCH  15  16
ATOM     16  O   UNL d   1       2.307  -0.026   0.046  0.00  0.00    -0.377 OA
ATOM     17  C   UNL d   1       0.901   0.111   0.083  0.00  0.00     0.203 C 
ENDBRANCH  15  16
BRANCH  15  18
ATOM     18  C   UNL d   1       4.318  -1.303  -0.335  0.00  0.00    -0.020 A 
ATOM     19  C   UNL d   1       5.045  -0.097  -0.347  0.00  0.00     0.012 A 
ATOM     20  C   UNL d   1       6.429  -0.088  -0.553  0.00  0.00     0.024 A 
ATOM     21  C   UNL d   1       7.123  -1.289  -0.640  0.00  0.00     0.034 A 
ATOM     22 CL   UNL d   1       8.813  -1.279  -0.964  0.00  0.00    -0.084 Cl
ATOM     23  C   UNL d   1       6.446  -2.498  -0.495  0.00  0.00     0.024 A 
ATOM     24  C   UNL d   1       5.047  -2.507  -0.389  0.00  0.00     0.012 A 
ENDBRANCH  15  18
ENDBRANCH  12  15
ENDBRANCH   1  11
BRANCH   5  25
ATOM     25  C   UNL d   1      -2.577  -1.831  -8.390  0.00  0.00     0.079 A 
ATOM     26  C   UNL d   1      -3.317  -2.888  -8.939  0.00  0.00     0.034 A 
ATOM     27  C   UNL d   1      -3.915  -2.753 -10.200  0.00  0.00     0.010 A 
ATOM     28  C   UNL d   1      -3.831  -1.546 -10.911  0.00  0.00    -0.055 A 
ATOM     29  C   UNL d   1      -3.167  -0.469 -10.293  0.00  0.00     0.010 A 
ATOM     30  C   UNL d   1      -2.516  -0.612  -9.061  0.00  0.00     0.034 A 
BRANCH  28  31
ATOM     31  C   UNL d   1      -4.398  -1.454 -12.327  0.00  0.00     0.010 C 
ATOM     32  C   UNL d   1      -5.896  -1.774 -12.367  0.00  0.00     0.015 C 
ATOM     33  C   UNL d   1      -4.161  -0.089 -12.987  0.00  0.00     0.015 C 
ENDBRANCH  28  31
ENDBRANCH   5  25
TORSDOF 6
