REMARK  14 active torsions:
REMARK  status: ('A' for Active; 'I' for Inactive)
REMARK    1  A    between atoms: C_2  and  C_3 
REMARK    2  A    between atoms: C_3  and  C_4 
REMARK    3  A    between atoms: C_4  and  C_5 
REMARK    4  A    between atoms: C_5  and  C_6 
REMARK    5  A    between atoms: C_6  and  N_7 
REMARK       I    between atoms: N_7  and  C_8 
REMARK    6  A    between atoms: C_13  and  N_7 
REMARK    7  A    between atoms: C_8  and  C_10 
REMARK    8  A    between atoms: C_10  and  C_11 
REMARK    9  A    between atoms: C_13  and  C_28 
REMARK   10  A    between atoms: C_13  and  C_14 
REMARK       I    between atoms: C_14  and  N_16 
REMARK   11  A    between atoms: N_16  and  C_17 
REMARK   12  A    between atoms: C_17  and  S_18 
REMARK   13  A    between atoms: S_18  and  C_21 
REMARK   14  A    between atoms: C_31  and  N_32 
ROOT
ATOM      1  C   UNL d   1       8.460   2.161   3.980  0.00  0.00     0.212 C 
ENDROOT
BRANCH   1   2
ATOM      2  C   UNL d   1       9.039   0.737   4.175  0.00  0.00    -0.026 C 
ATOM      3  C   UNL d   1      10.385   0.534   4.523  0.00  0.00     0.012 C 
ATOM      4  C   UNL d   1      10.979  -0.727   4.529  0.00  0.00     0.037 C 
ATOM      5  C   UNL d   1      10.185  -1.845   4.314  0.00  0.00     0.102 C 
ATOM      6  C   UNL d   1       8.818  -1.701   4.093  0.00  0.00     0.037 C 
ATOM      7  C   UNL d   1       8.262  -0.425   4.023  0.00  0.00     0.012 C 
BRANCH   5   8
ATOM      8  N   UNL d   1      10.775  -3.178   4.368  0.00  0.00    -0.116 N 
ATOM      9  O   UNL d   1      11.996  -3.261   4.566  0.00  0.00    -0.532 OA
ATOM     10  O   UNL d   1      10.018  -4.147   4.218  0.00  0.00    -0.532 OA
ENDBRANCH   5   8
ENDBRANCH   1   2
BRANCH   1  11
ATOM     11  C   UNL d   1       6.854   2.079   3.800  0.00  0.00     0.246 C 
ATOM     12  O   UNL d   1       6.299   1.362   2.960  0.00  0.00    -0.271 OA
ATOM     13  N   UNL d   1       6.067   2.956   4.504  0.00  0.00    -0.345 N 
ATOM     14  H   UNL d   1       6.471   3.689   5.075  0.00  0.00     0.163 HD
BRANCH  13  15
ATOM     15  C   UNL d   1       4.601   2.958   4.300  0.00  0.00     0.268 C 
BRANCH  15  16
ATOM     16  S   UNL d   1       3.705   4.225   5.208  0.00  0.00     0.192 S 
ATOM     17  O   UNL d   1       3.901   3.972   6.620  0.00  0.00    -0.221 OA
ATOM     18  O   UNL d   1       4.085   5.511   4.639  0.00  0.00    -0.221 OA
BRANCH  16  19
ATOM     19  C   UNL d   1       1.986   3.954   4.847  0.00  0.00     0.060 A 
ATOM     20  C   UNL d   1       1.303   2.942   5.527  0.00  0.00     0.024 A 
ATOM     21  C   UNL d   1      -0.044   2.705   5.242  0.00  0.00     0.008 A 
ATOM     22  C   UNL d   1      -0.724   3.485   4.297  0.00  0.00    -0.062 A 
ATOM     23  C   UNL d   1      -2.160   3.197   3.962  0.00  0.00     0.048 C 
ATOM     24  C   UNL d   1      -0.042   4.534   3.663  0.00  0.00     0.008 A 
ATOM     25  C   UNL d   1       1.308   4.777   3.942  0.00  0.00     0.024 A 
ENDBRANCH  16  19
ENDBRANCH  15  16
ENDBRANCH  13  15
ENDBRANCH   1  11
BRANCH   1  26
ATOM     26  N   UNL d   1       9.096   2.897   2.805  0.00  0.00    -0.335 N 
ATOM     27  C   UNL d   1      10.473   3.232   2.810  0.00  0.00     0.220 C 
ATOM     28  O   UNL d   1      11.198   3.076   3.794  0.00  0.00    -0.273 OA
BRANCH  26  29
ATOM     29  C   UNL d   1       8.101   3.430   1.852  0.00  0.00     0.127 C 
BRANCH  29  30
ATOM     30  C   UNL d   1       8.616   4.193   0.686  0.00  0.00     0.020 C 
BRANCH  30  31
ATOM     31  C   UNL d   1       7.632   4.710  -0.302  0.00  0.00     0.002 C 
BRANCH  31  32
ATOM     32  C   UNL d   1       8.475   5.412  -1.365  0.00  0.00    -0.000 C 
BRANCH  32  33
ATOM     33  C   UNL d   1       7.545   5.966  -2.410  0.00  0.00    -0.005 C 
ATOM     34  C   UNL d   1       8.320   6.676  -3.494  0.00  0.00     0.005 C 
ENDBRANCH  32  33
ENDBRANCH  31  32
ENDBRANCH  30  31
ENDBRANCH  29  30
ENDBRANCH  26  29
BRANCH  27  35
ATOM     35  C   UNL d   1      11.144   3.858   1.589  0.00  0.00     0.103 C 
BRANCH  35  36
ATOM     36  C   UNL d   1      12.656   3.974   1.576  0.00  0.00     0.005 C 
ATOM     37  C   UNL d   1      13.071   4.750   0.326  0.00  0.00     0.005 C 
ENDBRANCH  35  36
ENDBRANCH  27  35
ENDBRANCH   1  26
TORSDOF 14
