REMARK  7 active torsions:
REMARK  status: ('A' for Active; 'I' for Inactive)
REMARK       I    between atoms: N_1  and  C_2 
REMARK    1  A    between atoms: C_2  and  C_4 
REMARK    2  A    between atoms: C_4  and  C_5 
REMARK    3  A    between atoms: C_8  and  O_9 
REMARK    4  A    between atoms: O_9  and  C_10 
REMARK    5  A    between atoms: C_10  and  C_11 
REMARK       I    between atoms: C_11  and  N_13 
REMARK    6  A    between atoms: N_13  and  N_14 
REMARK    7  A    between atoms: N_14  and  C_15 
ROOT
ATOM      1  C   UNL d   1       9.308   1.148   0.141  0.00  0.00     0.280 C 
ENDROOT
BRANCH   1   2
ATOM      2  O   UNL d   1       8.713  -0.157   0.185  0.00  0.00    -0.342 OA
BRANCH   2   3
ATOM      3  C   UNL d   1       7.376  -0.267  -0.101  0.00  0.00     0.069 A 
ATOM      4  C   UNL d   1       6.854  -1.567  -0.177  0.00  0.00     0.037 A 
ATOM      5  C   UNL d   1       5.506  -1.794  -0.508  0.00  0.00     0.010 A 
ATOM      6  C   UNL d   1       4.639  -0.711  -0.682  0.00  0.00    -0.049 A 
ATOM      7  C   UNL d   1       5.179   0.582  -0.640  0.00  0.00     0.010 A 
ATOM      8  C   UNL d   1       6.521   0.804  -0.325  0.00  0.00     0.037 A 
BRANCH   6   9
ATOM      9  C   UNL d   1       3.139  -0.887  -0.834  0.00  0.00     0.141 C 
BRANCH   9  10
ATOM     10  C   UNL d   1       2.336   0.008   0.117  0.00  0.00     0.219 C 
ATOM     11  N   UNL d   1       0.982  -0.036   0.004  0.00  0.00    -0.370 N 
ATOM     12  H   UNL d   1       0.468   0.559   0.642  0.00  0.00     0.159 HD
ATOM     13  H   UNL d   1       0.475  -0.663  -0.602  0.00  0.00     0.159 HD
ATOM     14  O   UNL d   1       2.816   0.774   0.957  0.00  0.00    -0.273 OA
ENDBRANCH   9  10
ENDBRANCH   6   9
ENDBRANCH   2   3
ENDBRANCH   1   2
BRANCH   1  15
ATOM     15  C   UNL d   1      10.839   1.078   0.351  0.00  0.00     0.260 C 
ATOM     16  O   UNL d   1      11.461   0.015   0.412  0.00  0.00    -0.269 OA
ATOM     17  N   UNL d   1      11.487   2.318   0.481  0.00  0.00    -0.268 N 
ATOM     18  H   UNL d   1      11.036   3.171   0.162  0.00  0.00     0.190 HD
BRANCH  17  19
ATOM     19  N   UNL d   1      12.887   2.287   0.262  0.00  0.00    -0.298 N 
ATOM     20  H   UNL d   1      13.321   1.412   0.587  0.00  0.00     0.187 HD
BRANCH  19  21
ATOM     21  C   UNL d   1      13.656   3.442   0.531  0.00  0.00     0.048 A 
ATOM     22  C   UNL d   1      14.935   3.519  -0.057  0.00  0.00     0.034 A 
ATOM     23  C   UNL d   1      15.766   4.631   0.131  0.00  0.00     0.044 A 
ATOM     24  C   UNL d   1      15.305   5.704   0.876  0.00  0.00     0.116 A 
ATOM     25  F   UNL d   1      16.068   6.798   1.005  0.00  0.00    -0.206 F 
ATOM     26  C   UNL d   1      14.053   5.657   1.478  0.00  0.00     0.044 A 
ATOM     27  C   UNL d   1      13.234   4.526   1.313  0.00  0.00     0.034 A 
ENDBRANCH  19  21
ENDBRANCH  17  19
ENDBRANCH   1  15
TORSDOF 7
