@<TRIPOS>MOLECULE
*****
 56 58 0 0 0
SMALL
GASTEIGER

@<TRIPOS>ATOM
      1 C           1.2434   -0.6029    0.1205 C.3     1  UNL1        0.0790
      2 O           2.6125   -0.2037    0.0107 O.3     1  UNL1       -0.4915
      3 C           3.0640    0.4532   -1.1148 C.ar    1  UNL1        0.1615
      4 C           4.1952   -0.1482   -1.7130 C.ar    1  UNL1       -0.0157
      5 C           4.9218    0.4818   -2.7536 C.ar    1  UNL1       -0.0509
      6 C           4.4885    1.7018   -3.2850 C.ar    1  UNL1       -0.0212
      7 C           5.1051    2.3358   -4.4735 C.2     1  UNL1       -0.0496
      8 C           4.6835    3.4719   -5.0902 C.2     1  UNL1        0.0011
      9 C           5.3940    3.9185   -6.3262 C.2     1  UNL1        0.2424
     10 O           6.2950    3.1810   -6.7169 O.2     1  UNL1       -0.2704
     11 N           4.9795    5.1110   -6.9592 N.am    1  UNL1       -0.2640
     12 C           5.6572    5.6982   -8.0598 C.2     1  UNL1        0.1411
     13 S           7.1146    5.0619   -8.6629 S.2     1  UNL1       -0.0182
     14 N           5.0795    6.9012   -8.5744 N.am    1  UNL1       -0.2965
     15 C           5.5556    7.5241   -9.7918 C.ar    1  UNL1        0.0344
     16 C           5.8515    8.8690   -9.9529 C.ar    1  UNL1       -0.0401
     17 C           6.4048    9.3177  -11.1809 C.ar    1  UNL1       -0.0553
     18 C           6.7190    8.4269  -12.2421 C.ar    1  UNL1       -0.0291
     19 C           7.4781    8.9398  -13.4379 C.3     1  UNL1       -0.0380
     20 C           6.3467    7.0831  -12.1045 C.ar    1  UNL1        0.0381
     21 N           6.5590    6.1037  -13.1224 N.am    1  UNL1       -0.2850
     22 C           6.1922    4.7572  -12.9907 C.2     1  UNL1        0.2203
     23 O           5.6646    4.2274  -12.0384 O.2     1  UNL1       -0.2752
     24 C           6.4470    3.8651  -14.1591 C.3     1  UNL1        0.0359
     25 C           6.8686    2.4339  -13.8617 C.3     1  UNL1       -0.0412
     26 C           5.4785    2.7042  -14.3583 C.3     1  UNL1       -0.0412
     27 C           5.7400    6.7076  -10.9020 C.ar    1  UNL1       -0.0190
     28 C           3.4015    2.3021   -2.6610 C.ar    1  UNL1       -0.0092
     29 C           2.7005    1.7270   -1.5864 C.ar    1  UNL1        0.1620
     30 O           1.7706    2.6458   -1.1628 O.3     1  UNL1       -0.4914
     31 C           0.8528    2.1695   -0.2289 C.3     1  UNL1        0.0790
     32 H           1.1439   -1.4044    0.8565 H       1  UNL1        0.0660
     33 H           0.7978   -0.8850   -0.8367 H       1  UNL1        0.0660
     34 H           0.6290    0.1420    0.6231 H       1  UNL1        0.0660
     35 H           4.5346   -1.1238   -1.3623 H       1  UNL1        0.0655
     36 H           5.8270    0.0015   -3.1278 H       1  UNL1        0.0625
     37 H           5.9468    1.7747   -4.8909 H       1  UNL1        0.0625
     38 H           3.8485    4.0562   -4.7431 H       1  UNL1        0.0670
     39 H           4.1828    5.5981   -6.5749 H       1  UNL1        0.1568
     40 H           4.3935    7.4326   -8.0548 H       1  UNL1        0.1538
     41 H           5.7601    9.5722   -9.1314 H       1  UNL1        0.0636
     42 H           6.6216   10.3806  -11.2975 H       1  UNL1        0.0621
     43 H           7.6785   10.0156  -13.3654 H       1  UNL1        0.0278
     44 H           6.9176    8.7694  -14.3618 H       1  UNL1        0.0278
     45 H           8.4515    8.4399  -13.5095 H       1  UNL1        0.0278
     46 H           6.9879    6.4070  -13.9833 H       1  UNL1        0.1548
     47 H           6.8458    4.3287  -15.0505 H       1  UNL1        0.0394
     48 H           6.9705    2.1340  -12.8195 H       1  UNL1        0.0273
     49 H           7.5766    1.9451  -14.5159 H       1  UNL1        0.0273
     50 H           4.6676    2.5768  -13.6419 H       1  UNL1        0.0273
     51 H           5.2068    2.4056  -15.3607 H       1  UNL1        0.0273
     52 H           5.4015    5.6975  -10.7555 H       1  UNL1        0.0655
     53 H           3.0645    3.2815   -2.9826 H       1  UNL1        0.0661
     54 H           0.1196    2.9073    0.0933 H       1  UNL1        0.0660
     55 H           1.4105    1.8872    0.6694 H       1  UNL1        0.0660
     56 H           0.2665    1.3995   -0.7392 H       1  UNL1        0.0660
@<TRIPOS>BOND
     1     1     2    1
     2     2     3    1
     3     3     4   ar
     4     4     5   ar
     5     5     6   ar
     6     6     7    1
     7     7     8    2
     8     8     9    1
     9     9    10    2
    10     9    11   am
    11    11    12    1
    12    12    13    2
    13    12    14    1
    14    14    15    1
    15    15    16   ar
    16    16    17   ar
    17    17    18   ar
    18    18    19    1
    19    18    20   ar
    20    20    21    1
    21    21    22   am
    22    22    23    2
    23    22    24    1
    24    24    25    1
    25    25    26    1
    26    24    26    1
    27    20    27   ar
    28    15    27   ar
    29     6    28   ar
    30    28    29   ar
    31     3    29   ar
    32    29    30    1
    33    30    31    1
    34     1    32    1
    35     1    33    1
    36     1    34    1
    37     4    35    1
    38     5    36    1
    39     7    37    1
    40     8    38    1
    41    11    39    1
    42    14    40    1
    43    16    41    1
    44    17    42    1
    45    19    43    1
    46    19    44    1
    47    19    45    1
    48    21    46    1
    49    24    47    1
    50    25    48    1
    51    25    49    1
    52    26    50    1
    53    26    51    1
    54    27    52    1
    55    28    53    1
    56    31    54    1
    57    31    55    1
    58    31    56    1
