REMARK  11 active torsions:
REMARK  status: ('A' for Active; 'I' for Inactive)
REMARK    1  A    between atoms: C_2  and  C_3 
REMARK    2  A    between atoms: C_3  and  C_4 
REMARK    3  A    between atoms: C_4  and  C_5 
REMARK    4  A    between atoms: C_5  and  C_6 
REMARK       I    between atoms: C_6  and  N_8 
REMARK    5  A    between atoms: N_8  and  C_9 
REMARK    6  A    between atoms: C_13  and  N_14 
REMARK    7  A    between atoms: N_14  and  C_15 
REMARK    8  A    between atoms: C_15  and  C_16 
REMARK       I    between atoms: C_16  and  N_18 
REMARK    9  A    between atoms: N_18  and  C_19 
REMARK   10  A    between atoms: C_22  and  C_23 
REMARK       I    between atoms: C_23  and  N_25 
REMARK   11  A    between atoms: N_25  and  C_27 
ROOT
ATOM      1  C   UNL d   1      11.612   3.885   0.104  0.00  0.00     0.239 C 
ATOM      2  O   UNL d   1      12.820   3.849   0.358  0.00  0.00    -0.271 OA
ATOM      3  N   UNL d   1      11.047   4.633  -0.931  0.00  0.00    -0.326 N 
ATOM      4  H   UNL d   1      10.043   4.729  -1.025  0.00  0.00     0.169 HD
ENDROOT
BRANCH   1   5
ATOM      5  C   UNL d   1      10.627   3.117   0.972  0.00  0.00     0.223 C 
BRANCH   5   6
ATOM      6  N   UNL d   1      11.349   2.438   2.053  0.00  0.00    -0.381 N 
ATOM      7  H   UNL d   1      12.349   2.624   2.108  0.00  0.00     0.160 HD
BRANCH   6   8
ATOM      8  C   UNL d   1      10.700   1.767   3.066  0.00  0.00     0.030 A 
ATOM      9  C   UNL d   1      11.400   1.218   4.141  0.00  0.00     0.029 A 
ATOM     10  C   UNL d   1      10.719   0.568   5.180  0.00  0.00     0.004 A 
ATOM     11  C   UNL d   1       9.326   0.422   5.136  0.00  0.00     0.029 A 
ATOM     12  C   UNL d   1       8.618   0.939   4.056  0.00  0.00     0.036 A 
ATOM     13  C   UNL d   1       9.317   1.597   3.044  0.00  0.00     0.058 A 
BRANCH  12  14
ATOM     14  N   UNL d   1       7.207   0.861   3.987  0.00  0.00    -0.327 N 
ATOM     15  C   UNL d   1       6.551   0.657   2.777  0.00  0.00     0.222 C 
ATOM     16  O   UNL d   1       7.118   0.448   1.713  0.00  0.00    -0.273 OA
ATOM     17  H   UNL d   1       6.693   0.835   4.856  0.00  0.00     0.169 HD
BRANCH  15  18
ATOM     18  C   UNL d   1       5.032   0.678   2.855  0.00  0.00     0.103 C 
BRANCH  18  19
ATOM     19  C   UNL d   1       4.460   0.369   1.465  0.00  0.00     0.009 C 
BRANCH  19  20
ATOM     20  C   UNL d   1       2.939   0.363   1.441  0.00  0.00     0.000 C 
BRANCH  20  21
ATOM     21  C   UNL d   1       2.420   0.047   0.038  0.00  0.00    -0.005 C 
ATOM     22  C   UNL d   1       0.902   0.043   0.018  0.00  0.00     0.005 C 
ENDBRANCH  20  21
ENDBRANCH  19  20
ENDBRANCH  18  19
ENDBRANCH  15  18
ENDBRANCH  12  14
ENDBRANCH   6   8
ENDBRANCH   5   6
ENDBRANCH   1   5
BRANCH   3  23
ATOM     23  C   UNL d   1      11.868   5.263  -1.883  0.00  0.00     0.034 C 
ATOM     24  C   UNL d   1      11.599   6.504  -2.456  0.00  0.00     0.030 C 
ATOM     25  C   UNL d   1      12.518   7.061  -3.382  0.00  0.00     0.019 C 
ATOM     26  C   UNL d   1      13.684   6.368  -3.775  0.00  0.00     0.032 C 
ATOM     27  C   UNL d   1      13.780   5.062  -3.324  0.00  0.00     0.019 C 
ATOM     28  C   UNL d   1      12.962   4.553  -2.333  0.00  0.00     0.030 C 
BRANCH  26  29
ATOM     29  C   UNL d   1      14.721   7.062  -4.639  0.00  0.00     0.258 C 
ATOM     30  O   UNL d   1      14.401   8.189  -5.021  0.00  0.00    -0.267 OA
ATOM     31  N   UNL d   1      15.968   6.475  -4.993  0.00  0.00    -0.318 N 
ATOM     32  C   UNL d   1      16.547   5.207  -4.531  0.00  0.00     0.159 C 
BRANCH  31  33
ATOM     33  C   UNL d   1      16.918   7.224  -5.776  0.00  0.00     0.037 A 
ATOM     34  C   UNL d   1      17.665   6.583  -6.781  0.00  0.00     0.029 A 
ATOM     35  C   UNL d   1      18.695   7.249  -7.447  0.00  0.00     0.002 A 
ATOM     36  C   UNL d   1      18.964   8.581  -7.148  0.00  0.00     0.000 A 
ATOM     37  C   UNL d   1      18.235   9.228  -6.152  0.00  0.00     0.002 A 
ATOM     38  C   UNL d   1      17.222   8.553  -5.465  0.00  0.00     0.029 A 
ENDBRANCH  31  33
ENDBRANCH  26  29
ENDBRANCH   3  23
TORSDOF 11
