@<TRIPOS>MOLECULE
*****
 68 70 0 0 0
SMALL
GASTEIGER

@<TRIPOS>ATOM
      1 C           0.9365   -0.0679   -0.0545 C.3     1  UNL1       -0.0652
      2 C           2.4534   -0.0751   -0.0460 C.3     1  UNL1       -0.0528
      3 C           2.9853   -0.5838    1.2876 C.3     1  UNL1       -0.0189
      4 C           4.5052   -0.6034    1.2908 C.3     1  UNL1        0.0896
      5 O           4.9273   -1.1842    2.5233 O.3     1  UNL1       -0.4920
      6 C           6.2712   -1.1260    2.7536 C.ar    1  UNL1        0.1205
      7 C           6.8225   -2.1894    3.4671 C.ar    1  UNL1       -0.0196
      8 C           8.1542   -2.1416    3.8776 C.ar    1  UNL1       -0.0536
      9 C           8.9627   -1.0509    3.5257 C.ar    1  UNL1       -0.0301
     10 C          10.4165   -1.0642    3.9134 C.3     1  UNL1        0.0359
     11 N          11.1659   -0.0632    3.1514 N.pl3   1  UNL1       -0.3194
     12 C          12.5424   -0.0349    3.2138 C.ar    1  UNL1        0.2026
     13 N          13.0803    1.1549    3.5546 N.ar    1  UNL1       -0.2143
     14 C          14.4130    1.2094    3.6419 C.ar    1  UNL1        0.1206
     15 N          15.2403    0.1793    3.4264 N.ar    1  UNL1       -0.2143
     16 C          14.6933   -0.9930    3.0240 C.ar    1  UNL1        0.2026
     17 N          15.6663   -1.9166    2.7304 N.pl3   1  UNL1       -0.3194
     18 C          15.3124   -3.2799    2.4570 C.3     1  UNL1        0.0359
     19 C          16.3980   -4.2613    2.2732 C.ar    1  UNL1       -0.0301
     20 C          16.0579   -5.6286    2.2449 C.ar    1  UNL1       -0.0536
     21 C          17.0641   -6.5790    2.2168 C.ar    1  UNL1       -0.0196
     22 C          18.3879   -6.1541    2.1264 C.ar    1  UNL1        0.1205
     23 O          19.3287   -7.1398    2.0240 O.3     1  UNL1       -0.4920
     24 C          20.6450   -6.6412    1.7919 C.3     1  UNL1        0.0896
     25 C          21.5687   -7.8161    1.5813 C.3     1  UNL1       -0.0189
     26 C          23.0021   -7.3380    1.3974 C.3     1  UNL1       -0.0528
     27 C          23.9299   -8.5199    1.2046 C.3     1  UNL1       -0.0652
     28 C          18.6985   -4.7904    2.1132 C.ar    1  UNL1       -0.0196
     29 C          17.7074   -3.8456    2.1610 C.ar    1  UNL1       -0.0536
     30 C          13.3195   -1.1298    2.8860 C.ar    1  UNL1        0.3515
     31 N          12.6147   -2.2523    2.2704 N.pl3   1  UNL1        0.0868
     32 O          12.7631   -3.3937    2.7578 O.2     1  UNL1        0.0417
     33 O          11.8137   -2.0261    1.3642 O.co2   1  UNL1       -0.5759
     34 C           8.3993   -0.0093    2.7810 C.ar    1  UNL1       -0.0536
     35 C           7.0657   -0.0406    2.4070 C.ar    1  UNL1       -0.0196
     36 H           0.5643    0.2882   -1.0192 H       1  UNL1        0.0230
     37 H           0.5466    0.5897    0.7288 H       1  UNL1        0.0230
     38 H           0.5438   -1.0755    0.1148 H       1  UNL1        0.0230
     39 H           2.8247    0.9388   -0.2380 H       1  UNL1        0.0264
     40 H           2.8199   -0.7135   -0.8583 H       1  UNL1        0.0264
     41 H           2.6049   -1.5897    1.4995 H       1  UNL1        0.0298
     42 H           2.6292    0.0542    2.1077 H       1  UNL1        0.0298
     43 H           4.8492    0.4283    1.1661 H       1  UNL1        0.0696
     44 H           4.8850   -1.2172    0.4665 H       1  UNL1        0.0696
     45 H           6.2160   -3.0602    3.7004 H       1  UNL1        0.0654
     46 H           8.5600   -2.9663    4.4608 H       1  UNL1        0.0622
     47 H          10.7473   -2.0815    3.6843 H       1  UNL1        0.0511
     48 H          10.5523   -0.9522    4.9954 H       1  UNL1        0.0511
     49 H          10.7968    0.8767    3.1380 H       1  UNL1        0.1480
     50 H          14.8617    2.1632    3.9098 H       1  UNL1        0.1048
     51 H          16.5836   -1.6609    3.0766 H       1  UNL1        0.1480
     52 H          14.7654   -3.2883    1.5102 H       1  UNL1        0.0511
     53 H          14.7837   -3.6619    3.3331 H       1  UNL1        0.0511
     54 H          15.0127   -5.9453    2.2616 H       1  UNL1        0.0622
     55 H          16.8168   -7.6357    2.2713 H       1  UNL1        0.0654
     56 H          20.9787   -6.0698    2.6679 H       1  UNL1        0.0696
     57 H          20.6672   -6.0051    0.8950 H       1  UNL1        0.0696
     58 H          21.2333   -8.3863    0.7069 H       1  UNL1        0.0298
     59 H          21.4900   -8.4903    2.4415 H       1  UNL1        0.0298
     60 H          23.3205   -6.7604    2.2739 H       1  UNL1        0.0264
     61 H          23.0700   -6.6698    0.5302 H       1  UNL1        0.0264
     62 H          23.8911   -9.1855    2.0727 H       1  UNL1        0.0230
     63 H          24.9602   -8.1777    1.0777 H       1  UNL1        0.0230
     64 H          23.6438   -9.0938    0.3176 H       1  UNL1        0.0230
     65 H          19.7086   -4.4071    2.0724 H       1  UNL1        0.0654
     66 H          17.9675   -2.7957    2.1186 H       1  UNL1        0.0622
     67 H           8.9747    0.8526    2.4626 H       1  UNL1        0.0622
     68 H           6.6878    0.8175    1.8669 H       1  UNL1        0.0654
@<TRIPOS>UNITY_ATOM_ATTR
31 1
charge 1
33 1
charge -1
@<TRIPOS>BOND
     1     1     2    1
     2     2     3    1
     3     3     4    1
     4     4     5    1
     5     5     6    1
     6     6     7   ar
     7     7     8   ar
     8     8     9   ar
     9     9    10    1
    10    10    11    1
    11    11    12    1
    12    12    13   ar
    13    13    14   ar
    14    14    15   ar
    15    15    16   ar
    16    16    17    1
    17    17    18    1
    18    18    19    1
    19    19    20   ar
    20    20    21   ar
    21    21    22   ar
    22    22    23    1
    23    23    24    1
    24    24    25    1
    25    25    26    1
    26    26    27    1
    27    22    28   ar
    28    28    29   ar
    29    19    29   ar
    30    16    30   ar
    31    12    30   ar
    32    30    31    1
    33    31    32    2
    34    31    33    1
    35     9    34   ar
    36    34    35   ar
    37     6    35   ar
    38     1    36    1
    39     1    37    1
    40     1    38    1
    41     2    39    1
    42     2    40    1
    43     3    41    1
    44     3    42    1
    45     4    43    1
    46     4    44    1
    47     7    45    1
    48     8    46    1
    49    10    47    1
    50    10    48    1
    51    11    49    1
    52    14    50    1
    53    17    51    1
    54    18    52    1
    55    18    53    1
    56    20    54    1
    57    21    55    1
    58    24    56    1
    59    24    57    1
    60    25    58    1
    61    25    59    1
    62    26    60    1
    63    26    61    1
    64    27    62    1
    65    27    63    1
    66    27    64    1
    67    28    65    1
    68    29    66    1
    69    34    67    1
    70    35    68    1
