@<TRIPOS>MOLECULE
*****
 68 69 0 0 0
SMALL
GASTEIGER

@<TRIPOS>ATOM
      1 C           0.8002   -0.5973    0.0646 C.3     1  UNL1       -0.0653
      2 C           2.2888   -0.9764   -0.0408 C.3     1  UNL1       -0.0559
      3 C           2.9990   -1.1266    1.3661 C.3     1  UNL1       -0.0532
      4 C           4.5393   -0.9789    1.5171 C.3     1  UNL1       -0.0500
      5 C           5.0857   -1.0213    2.9426 C.3     1  UNL1       -0.0186
      6 C           6.6171   -1.0479    2.8880 C.3     1  UNL1        0.0896
      7 O           7.0421   -0.7604    4.2168 O.3     1  UNL1       -0.4912
      8 C           8.3860   -0.6320    4.3959 C.ar    1  UNL1        0.1326
      9 C           8.9450   -1.5486    5.3180 C.ar    1  UNL1       -0.0192
     10 C          10.2817   -1.4657    5.7143 C.ar    1  UNL1       -0.0583
     11 C          11.0975   -0.5131    5.1290 C.ar    1  UNL1       -0.0608
     12 C          10.5449    0.3981    4.2187 C.ar    1  UNL1       -0.0461
     13 C           9.1661    0.3976    3.8654 C.ar    1  UNL1        0.0786
     14 C           8.7337    1.4939    2.9157 C.2     1  UNL1        0.2530
     15 O           9.6691    2.0794    2.3688 O.2     1  UNL1       -0.2697
     16 N           7.3715    1.8320    2.6796 N.am    1  UNL1       -0.2635
     17 C           6.8931    2.4820    1.5147 C.2     1  UNL1        0.1401
     18 S           7.8739    3.3904    0.4795 S.2     1  UNL1       -0.0183
     19 N           5.5419    2.2774    1.1580 N.am    1  UNL1       -0.2988
     20 C           5.1341    2.3644   -0.2808 C.3     1  UNL1        0.0301
     21 C           4.1167    1.3246   -0.6070 C.3     1  UNL1        0.0274
     22 N           2.9749    1.6151    0.2668 N.am    1  UNL1       -0.3123
     23 C           3.0893    1.7037    1.6171 C.2     1  UNL1        0.2341
     24 O           2.0791    1.5842    2.3378 O.2     1  UNL1       -0.2738
     25 C           4.3957    2.2954    2.1149 C.3     1  UNL1        0.1113
     26 C           3.8067    3.6799    2.3779 C.3     1  UNL1        0.0720
     27 C           3.2884    3.5524    3.7868 C.2     1  UNL1        0.3096
     28 O           3.8586    2.9025    4.6373 O.2     1  UNL1       -0.2508
     29 O           2.1145    4.2246    3.9598 O.3     1  UNL1       -0.4616
     30 C           1.6772    4.2330    5.3320 C.3     1  UNL1        0.1000
     31 C           2.7426    4.9567    6.1615 C.3     1  UNL1       -0.0277
     32 C           0.3438    4.9892    5.3944 C.3     1  UNL1       -0.0188
     33 C          -0.1600    5.1422    6.8223 C.3     1  UNL1       -0.0619
     34 H           0.4094   -0.3040   -0.9222 H       1  UNL1        0.0230
     35 H           0.6106    0.2843    0.6952 H       1  UNL1        0.0230
     36 H           0.2222   -1.4188    0.4708 H       1  UNL1        0.0230
     37 H           2.6214   -0.2347   -0.7554 H       1  UNL1        0.0263
     38 H           2.5178   -1.8400   -0.6641 H       1  UNL1        0.0263
     39 H           2.7184   -2.1049    1.7469 H       1  UNL1        0.0265
     40 H           2.5425   -0.4830    2.1139 H       1  UNL1        0.0265
     41 H           4.9024   -0.0074    1.2246 H       1  UNL1        0.0266
     42 H           5.0689   -1.6750    0.8668 H       1  UNL1        0.0266
     43 H           4.6999   -1.8686    3.5052 H       1  UNL1        0.0298
     44 H           4.7756   -0.1427    3.5299 H       1  UNL1        0.0298
     45 H           6.9808   -0.3149    2.1659 H       1  UNL1        0.0696
     46 H           6.9892   -2.0069    2.5225 H       1  UNL1        0.0696
     47 H           8.3274   -2.3367    5.7460 H       1  UNL1        0.0654
     48 H          10.6807   -2.1318    6.4776 H       1  UNL1        0.0619
     49 H          12.1552   -0.4645    5.3836 H       1  UNL1        0.0618
     50 H          11.2189    1.1426    3.7925 H       1  UNL1        0.0626
     51 H           6.7082    1.3762    3.2925 H       1  UNL1        0.1568
     52 H           5.9600    2.2377   -0.9790 H       1  UNL1        0.0480
     53 H           4.6290    3.3187   -0.4380 H       1  UNL1        0.0480
     54 H           4.5542    0.3200   -0.4979 H       1  UNL1        0.0477
     55 H           3.7811    1.3173   -1.6458 H       1  UNL1        0.0477
     56 H           2.0284    1.4213   -0.0177 H       1  UNL1        0.1488
     57 H           4.7214    1.7653    3.0070 H       1  UNL1        0.0602
     58 H           4.5288    4.4752    2.2490 H       1  UNL1        0.0401
     59 H           2.9543    3.9004    1.7070 H       1  UNL1        0.0401
     60 H           1.5173    3.2012    5.6790 H       1  UNL1        0.0731
     61 H           2.9228    5.9471    5.7317 H       1  UNL1        0.0265
     62 H           3.7083    4.4487    6.1545 H       1  UNL1        0.0265
     63 H           2.4728    5.0372    7.2115 H       1  UNL1        0.0265
     64 H          -0.4125    4.4714    4.7900 H       1  UNL1        0.0298
     65 H           0.4636    5.9773    4.9331 H       1  UNL1        0.0298
     66 H          -0.3072    4.1618    7.2863 H       1  UNL1        0.0231
     67 H          -1.1042    5.6902    6.8453 H       1  UNL1        0.0231
     68 H           0.5440    5.7077    7.4395 H       1  UNL1        0.0231
@<TRIPOS>BOND
     1     1     2    1
     2     2     3    1
     3     3     4    1
     4     4     5    1
     5     5     6    1
     6     6     7    1
     7     7     8    1
     8     8     9   ar
     9     9    10   ar
    10    10    11   ar
    11    11    12   ar
    12    12    13   ar
    13     8    13   ar
    14    13    14    1
    15    14    15    2
    16    14    16   am
    17    16    17    1
    18    17    18    2
    19    17    19    1
    20    19    20    1
    21    20    21    1
    22    21    22    1
    23    22    23   am
    24    23    24    2
    25    23    25    1
    26    19    25    1
    27    26    27    1
    28    27    28    2
    29    27    29    1
    30    29    30    1
    31    30    31    1
    32    30    32    1
    33    32    33    1
    34    25    26    1
    35     1    34    1
    36     1    35    1
    37     1    36    1
    38     2    37    1
    39     2    38    1
    40     3    39    1
    41     3    40    1
    42     4    41    1
    43     4    42    1
    44     5    43    1
    45     5    44    1
    46     6    45    1
    47     6    46    1
    48     9    47    1
    49    10    48    1
    50    11    49    1
    51    12    50    1
    52    16    51    1
    53    20    52    1
    54    20    53    1
    55    21    54    1
    56    21    55    1
    57    22    56    1
    58    25    57    1
    59    26    58    1
    60    26    59    1
    61    30    60    1
    62    31    61    1
    63    31    62    1
    64    31    63    1
    65    32    64    1
    66    32    65    1
    67    33    66    1
    68    33    67    1
    69    33    68    1
