@<TRIPOS>MOLECULE
*****
 40 41 0 0 0
SMALL
GASTEIGER

@<TRIPOS>ATOM
      1 C           0.6822   -0.2122    0.0839 C.3     1  UNL1       -0.0134
      2 S           2.4327   -0.1378    0.2265 S.3     1  UNL1       -0.1268
      3 C           3.2723   -1.6918    0.0579 C.ar    1  UNL1        0.0288
      4 C           2.5314   -2.8498   -0.2208 C.ar    1  UNL1       -0.0465
      5 C           3.0900   -4.1162   -0.0708 C.ar    1  UNL1       -0.0606
      6 C           4.4346   -4.2378    0.2611 C.ar    1  UNL1       -0.0599
      7 C           5.2240   -3.0854    0.4541 C.ar    1  UNL1       -0.0394
      8 C           4.6713   -1.7822    0.3418 C.ar    1  UNL1        0.0469
      9 N           5.5625   -0.6454    0.5703 N.am    1  UNL1       -0.2830
     10 C           5.3225    0.7045    0.2866 C.2     1  UNL1        0.2373
     11 O           4.4264    1.1705   -0.4302 O.2     1  UNL1       -0.2734
     12 C           6.3396    1.7764    0.6654 C.3     1  UNL1        0.0972
     13 C           7.3982    1.6491   -0.4198 C.3     1  UNL1       -0.0381
     14 N           5.5903    3.0669    0.5555 N.am    1  UNL1       -0.3003
     15 C           6.1801    4.3004    0.5797 C.2     1  UNL1        0.2447
     16 O           7.3851    4.4525    0.8050 O.2     1  UNL1       -0.2702
     17 C           5.3411    5.5060    0.3273 C.ar    1  UNL1        0.0367
     18 C           5.9168    6.5815   -0.3676 C.ar    1  UNL1       -0.0496
     19 C           5.2823    7.8263   -0.4025 C.ar    1  UNL1       -0.0610
     20 C           4.0352    7.9865    0.1976 C.ar    1  UNL1       -0.0617
     21 C           3.4354    6.9093    0.8540 C.ar    1  UNL1       -0.0610
     22 C           4.0851    5.6684    0.9231 C.ar    1  UNL1       -0.0496
     23 H           0.3937    0.8458    0.1032 H       1  UNL1        0.0344
     24 H           0.2922   -0.6980    0.9730 H       1  UNL1        0.0344
     25 H           0.3380   -0.6467   -0.8513 H       1  UNL1        0.0344
     26 H           1.4959   -2.7734   -0.5353 H       1  UNL1        0.0629
     27 H           2.4611   -4.9969   -0.1893 H       1  UNL1        0.0618
     28 H           4.8621   -5.2363    0.3583 H       1  UNL1        0.0618
     29 H           6.2705   -3.2480    0.7104 H       1  UNL1        0.0636
     30 H           6.5149   -0.8935    0.8178 H       1  UNL1        0.1549
     31 H           6.7100    1.6832    1.6887 H       1  UNL1        0.0592
     32 H           6.9285    1.6815   -1.4141 H       1  UNL1        0.0252
     33 H           7.9174    0.6898   -0.3403 H       1  UNL1        0.0252
     34 H           8.1311    2.4523   -0.3789 H       1  UNL1        0.0252
     35 H           4.6390    2.9697    0.1906 H       1  UNL1        0.1498
     36 H           6.8818    6.4584   -0.8552 H       1  UNL1        0.0625
     37 H           5.7762    8.6768   -0.8671 H       1  UNL1        0.0618
     38 H           3.5375    8.9535    0.1629 H       1  UNL1        0.0618
     39 H           2.4774    7.0519    1.3493 H       1  UNL1        0.0618
     40 H           3.6317    4.8623    1.4914 H       1  UNL1        0.0625
@<TRIPOS>BOND
     1     1     2    1
     2     2     3    1
     3     3     4   ar
     4     4     5   ar
     5     5     6   ar
     6     6     7   ar
     7     7     8   ar
     8     3     8   ar
     9     8     9    1
    10     9    10   am
    11    10    11    2
    12    10    12    1
    13    12    13    1
    14    12    14    1
    15    14    15   am
    16    15    16    2
    17    15    17    1
    18    17    18   ar
    19    18    19   ar
    20    19    20   ar
    21    20    21   ar
    22    21    22   ar
    23    17    22   ar
    24     1    23    1
    25     1    24    1
    26     1    25    1
    27     4    26    1
    28     5    27    1
    29     6    28    1
    30     7    29    1
    31     9    30    1
    32    12    31    1
    33    13    32    1
    34    13    33    1
    35    13    34    1
    36    14    35    1
    37    18    36    1
    38    19    37    1
    39    20    38    1
    40    21    39    1
    41    22    40    1
