REMARK  7 active torsions:
REMARK  status: ('A' for Active; 'I' for Inactive)
REMARK    1  A    between atoms: C_2  and  O_3 
REMARK    2  A    between atoms: C_2  and  C_13 
REMARK    3  A    between atoms: O_3  and  C_4 
REMARK       I    between atoms: C_13  and  N_15 
REMARK    4  A    between atoms: N_15  and  N_16 
REMARK    5  A    between atoms: N_16  and  C_17 
REMARK    6  A    between atoms: C_17  and  N_19 
REMARK    7  A    between atoms: N_19  and  C_20 
ROOT
ATOM      1  C   UNL d   1       3.143  -1.458  -0.164  0.00  0.00     0.265 C 
ATOM      2  O   UNL d   1       2.381  -2.425  -0.323  0.00  0.00    -0.269 OA
ATOM      3  N   UNL d   1       4.508  -1.637  -0.210  0.00  0.00    -0.266 N 
ATOM      4  H   UNL d   1       5.168  -0.872  -0.081  0.00  0.00     0.190 HD
ENDROOT
BRANCH   3   5
ATOM      5  N   UNL d   1       5.087  -2.950  -0.380  0.00  0.00    -0.273 N 
ATOM      6  H   UNL d   1       4.419  -3.718  -0.446  0.00  0.00     0.189 HD
BRANCH   5   7
ATOM      7  C   UNL d   1       6.470  -3.068  -0.562  0.00  0.00     0.191 C 
ATOM      8  S   UNL d   1       7.416  -1.677  -0.758  0.00  0.00    -0.039 SA
BRANCH   7   9
ATOM      9  N   UNL d   1       6.947  -4.395  -0.579  0.00  0.00    -0.331 N 
ATOM     10  H   UNL d   1       6.307  -5.107  -0.913  0.00  0.00     0.168 HD
BRANCH   9  11
ATOM     11  C   UNL d   1       8.345  -4.751  -0.580  0.00  0.00     0.056 A 
ATOM     12  C   UNL d   1       8.851  -5.634  -1.556  0.00  0.00     0.032 A 
ATOM     13  C   UNL d   1      10.236  -5.898  -1.641  0.00  0.00     0.021 A 
ATOM     14  C   UNL d   1      11.117  -5.301  -0.742  0.00  0.00     0.012 A 
ATOM     15 BR   UNL d   1      12.979  -5.623  -0.838  0.00  0.00    -0.051 Br
ATOM     16  C   UNL d   1      10.629  -4.488   0.271  0.00  0.00     0.045 A 
ATOM     17  C   UNL d   1       9.254  -4.253   0.378  0.00  0.00     0.062 A 
ATOM     18 CL   UNL d   1       8.736  -3.490   1.849  0.00  0.00    -0.082 Cl
ENDBRANCH   9  11
ENDBRANCH   7   9
ENDBRANCH   5   7
ENDBRANCH   3   5
BRANCH   1  19
ATOM     19  C   UNL d   1       2.627   0.020   0.026  0.00  0.00     0.218 C 
ATOM     20  C   UNL d   1       1.102  -0.051  -0.152  0.00  0.00     0.050 C 
BRANCH  19  21
ATOM     21  O   UNL d   1       3.072   0.583   1.290  0.00  0.00    -0.337 OA
BRANCH  21  22
ATOM     22  C   UNL d   1       2.697   1.875   1.606  0.00  0.00     0.072 C 
ATOM     23  C   UNL d   1       1.352   2.286   1.632  0.00  0.00     0.040 C 
ATOM     24  C   UNL d   1       0.967   3.601   1.897  0.00  0.00     0.042 C 
ATOM     25  C   UNL d   1       1.945   4.469   2.292  0.00  0.00     0.105 A 
ATOM     26  C   UNL d   1       3.256   4.069   2.402  0.00  0.00     0.107 A 
ATOM     27  O   UNL d   1       1.736   5.756   2.666  0.00  0.00    -0.323 OA
ATOM     28  C   UNL d   1       3.667   2.781   2.064  0.00  0.00     0.076 C 
ATOM     29  O   UNL d   1       4.040   5.079   2.880  0.00  0.00    -0.323 OA
ATOM     30  C   UNL d   1       3.083   6.163   2.960  0.00  0.00     0.352 A 
ENDBRANCH  21  22
ENDBRANCH  19  21
ENDBRANCH   1  19
TORSDOF 7
