@<TRIPOS>MOLECULE
*****
 60 63 0 0 0
SMALL
GASTEIGER

@<TRIPOS>ATOM
      1 O           0.9000    0.2240   -0.1969 O.2     1  UNL1       -0.2522
      2 C           2.1025    0.0731    0.0489 C.2     1  UNL1        0.3082
      3 N           2.6292   -1.0328    0.6477 N.am    1  UNL1       -0.2692
      4 C           2.0264   -2.2943    0.8545 C.ar    1  UNL1        0.0362
      5 C           1.0121   -2.7952    0.0305 C.ar    1  UNL1       -0.0403
      6 C           0.4518   -4.0530    0.2775 C.ar    1  UNL1       -0.0586
      7 C           0.8858   -4.8038    1.3677 C.ar    1  UNL1       -0.0433
      8 C           1.9572   -4.3463    2.1306 C.ar    1  UNL1        0.0427
      9 CL          2.4930   -5.2637    3.4847 Cl      1  UNL1       -0.0835
     10 C           2.5695   -3.1273    1.8390 C.ar    1  UNL1       -0.0221
     11 N           2.9842    1.1096   -0.1914 N.am    1  UNL1       -0.2675
     12 C           4.3957    1.0949   -0.4054 C.ar    1  UNL1        0.0576
     13 C           5.1463    2.2369    0.0167 C.ar    1  UNL1       -0.0174
     14 C           6.5464    2.3029   -0.1662 C.ar    1  UNL1        0.0355
     15 N           7.3037    3.4850    0.1083 N.am    1  UNL1       -0.2814
     16 C           8.6458    3.6543   -0.2592 C.2     1  UNL1        0.2483
     17 O           9.3791    2.8226   -0.7947 O.2     1  UNL1       -0.2699
     18 C           9.3022    4.9526    0.0018 C.ar    1  UNL1        0.0370
     19 C          10.2792    5.4005   -0.9083 C.ar    1  UNL1       -0.0496
     20 C          11.0951    6.4846   -0.5886 C.ar    1  UNL1       -0.0610
     21 C          10.8955    7.1617    0.6118 C.ar    1  UNL1       -0.0617
     22 C           9.9175    6.7260    1.5106 C.ar    1  UNL1       -0.0610
     23 C           9.1261    5.6136    1.2151 C.ar    1  UNL1       -0.0496
     24 C           7.1771    1.1773   -0.6763 C.ar    1  UNL1       -0.0386
     25 C           6.4559    0.0939   -1.1430 C.ar    1  UNL1       -0.0371
     26 C           5.0656    0.0257   -1.0409 C.ar    1  UNL1        0.0514
     27 N           4.4939   -1.1259   -1.5734 N.pl3   1  UNL1       -0.3285
     28 C           4.6970   -2.3243   -0.7646 C.3     1  UNL1        0.0122
     29 C           5.5659   -3.3646   -1.4057 C.3     1  UNL1       -0.0372
     30 C           4.8027   -4.1157   -2.4876 C.3     1  UNL1       -0.0516
     31 C           4.2074   -3.2228   -3.5808 C.3     1  UNL1       -0.0516
     32 C           3.0127   -2.3821   -3.1315 C.3     1  UNL1       -0.0372
     33 C           3.4134   -1.0272   -2.5539 C.3     1  UNL1        0.0122
     34 H           3.5935   -0.9178    0.9212 H       1  UNL1        0.1564
     35 H           0.6953   -2.2485   -0.8548 H       1  UNL1        0.0636
     36 H          -0.3368   -4.4338   -0.3675 H       1  UNL1        0.0619
     37 H           0.3883   -5.7376    1.6157 H       1  UNL1        0.0632
     38 H           3.4430   -2.8170    2.4057 H       1  UNL1        0.0651
     39 H           2.5102    1.9666   -0.4478 H       1  UNL1        0.1564
     40 H           4.6328    3.0423    0.5387 H       1  UNL1        0.0655
     41 H           6.7964    4.2967    0.4386 H       1  UNL1        0.1551
     42 H          10.4351    4.8757   -1.8510 H       1  UNL1        0.0625
     43 H          11.9015    6.7791   -1.2570 H       1  UNL1        0.0618
     44 H          11.5162    8.0205    0.8560 H       1  UNL1        0.0618
     45 H           9.8016    7.2319    2.4653 H       1  UNL1        0.0618
     46 H           8.4317    5.2350    1.9574 H       1  UNL1        0.0625
     47 H           8.2513    1.0896   -0.7631 H       1  UNL1        0.0637
     48 H           7.0083   -0.7015   -1.6355 H       1  UNL1        0.0637
     49 H           3.7492   -2.8200   -0.6060 H       1  UNL1        0.0464
     50 H           5.1195   -2.0811    0.2198 H       1  UNL1        0.0464
     51 H           5.8399   -4.0809   -0.6191 H       1  UNL1        0.0280
     52 H           6.4885   -2.9269   -1.7898 H       1  UNL1        0.0280
     53 H           4.0028   -4.7109   -2.0239 H       1  UNL1        0.0266
     54 H           5.4983   -4.8260   -2.9418 H       1  UNL1        0.0266
     55 H           3.8635   -3.8792   -4.3850 H       1  UNL1        0.0266
     56 H           4.9861   -2.5727   -3.9934 H       1  UNL1        0.0266
     57 H           2.4006   -2.9421   -2.4165 H       1  UNL1        0.0280
     58 H           2.3555   -2.1913   -3.9889 H       1  UNL1        0.0280
     59 H           2.5049   -0.5731   -2.1596 H       1  UNL1        0.0464
     60 H           3.7289   -0.3682   -3.3727 H       1  UNL1        0.0464
@<TRIPOS>BOND
     1     1     2    2
     2     2     3   am
     3     3     4    1
     4     4     5   ar
     5     5     6   ar
     6     6     7   ar
     7     7     8   ar
     8     8     9    1
     9     8    10   ar
    10     4    10   ar
    11     2    11   am
    12    11    12    1
    13    12    13   ar
    14    13    14   ar
    15    14    15    1
    16    15    16   am
    17    16    17    2
    18    16    18    1
    19    18    19   ar
    20    19    20   ar
    21    20    21   ar
    22    21    22   ar
    23    22    23   ar
    24    18    23   ar
    25    14    24   ar
    26    24    25   ar
    27    25    26   ar
    28    12    26   ar
    29    26    27    1
    30    27    28    1
    31    28    29    1
    32    29    30    1
    33    30    31    1
    34    31    32    1
    35    32    33    1
    36    27    33    1
    37     3    34    1
    38     5    35    1
    39     6    36    1
    40     7    37    1
    41    10    38    1
    42    11    39    1
    43    13    40    1
    44    15    41    1
    45    19    42    1
    46    20    43    1
    47    21    44    1
    48    22    45    1
    49    23    46    1
    50    24    47    1
    51    25    48    1
    52    28    49    1
    53    28    50    1
    54    29    51    1
    55    29    52    1
    56    30    53    1
    57    30    54    1
    58    31    55    1
    59    31    56    1
    60    32    57    1
    61    32    58    1
    62    33    59    1
    63    33    60    1
