REMARK  7 active torsions:
REMARK  status: ('A' for Active; 'I' for Inactive)
REMARK       I    between atoms: C_2  and  N_3 
REMARK       I    between atoms: C_2  and  N_12 
REMARK    1  A    between atoms: N_3  and  C_4 
REMARK    2  A    between atoms: C_4  and  C_5 
REMARK    3  A    between atoms: C_5  and  C_6 
REMARK    4  A    between atoms: C_6  and  N_7 
REMARK    5  A    between atoms: N_12  and  N_13 
REMARK       I    between atoms: N_13  and  C_14 
REMARK    6  A    between atoms: C_14  and  C_16 
REMARK    7  A    between atoms: C_18  and  C_19 
ROOT
ATOM      1  N   UNL d   1       4.513  -0.603  -1.188  0.00  0.00    -0.262 N 
ATOM      2  C   UNL d   1       5.144  -1.257  -2.246  0.00  0.00     0.271 C 
ATOM      3  O   UNL d   1       4.536  -1.764  -3.188  0.00  0.00    -0.266 OA
ATOM      4  H   UNL d   1       5.055  -0.156  -0.467  0.00  0.00     0.190 HD
ENDROOT
BRANCH   1   5
ATOM      5  N   UNL d   1       3.108  -0.624  -1.077  0.00  0.00    -0.249 N 
ATOM      6  C   UNL d   1       2.355  -0.067  -0.067  0.00  0.00     0.334 C 
ATOM      7  O   UNL d   1       1.127  -0.096  -0.094  0.00  0.00    -0.246 OA
ATOM      8  N   UNL d   1       3.038   0.516   0.974  0.00  0.00    -0.342 N 
ATOM      9  H   UNL d   1       4.040   0.513   0.955  0.00  0.00     0.164 HD
ATOM     10  H   UNL d   1       2.599  -1.061  -1.849  0.00  0.00     0.192 HD
BRANCH   8  11
ATOM     11  C   UNL d   1       2.335   1.142   2.088  0.00  0.00     0.126 C 
BRANCH  11  12
ATOM     12  C   UNL d   1       3.292   1.726   3.127  0.00  0.00     0.040 C 
BRANCH  12  13
ATOM     13  C   UNL d   1       2.552   2.375   4.297  0.00  0.00     0.130 C 
BRANCH  13  14
ATOM     14  N   UNL d   1       3.487   2.934   5.293  0.00  0.00    -0.352 N 
ATOM     15  C   UNL d   1       4.369   2.209   6.091  0.00  0.00     0.108 A 
ATOM     16  C   UNL d   1       5.021   3.110   6.886  0.00  0.00     0.106 A 
ATOM     17  N   UNL d   1       4.513   4.345   6.563  0.00  0.00    -0.361 N 
ATOM     18  C   UNL d   1       3.584   4.238   5.607  0.00  0.00     0.182 A 
ATOM     19  H   UNL d   1       4.792   5.225   6.993  0.00  0.00     0.166 HD
ENDBRANCH  13  14
ENDBRANCH  12  13
ENDBRANCH  11  12
ENDBRANCH   8  11
ENDBRANCH   1   5
BRANCH   2  20
ATOM     20  C   UNL d   1       6.646  -1.302  -2.209  0.00  0.00     0.048 A 
ATOM     21  C   UNL d   1       7.347  -1.020  -3.390  0.00  0.00     0.045 A 
ATOM     22  C   UNL d   1       8.743  -1.034  -3.391  0.00  0.00     0.040 A 
ATOM     23  N   UNL d   1       9.427  -1.337  -2.262  0.00  0.00    -0.252 NA
ATOM     24  C   UNL d   1       8.775  -1.645  -1.138  0.00  0.00     0.068 A 
ATOM     25  C   UNL d   1       9.534  -1.978  -0.024  0.00  0.00     0.032 A 
ATOM     26  C   UNL d   1       7.368  -1.648  -1.045  0.00  0.00     0.008 A 
ATOM     27  C   UNL d   1       8.938  -2.303   1.194  0.00  0.00     0.002 A 
ATOM     28  C   UNL d   1       7.557  -2.319   1.297  0.00  0.00     0.001 A 
ATOM     29  C   UNL d   1       6.781  -2.022   0.183  0.00  0.00     0.015 A 
BRANCH  22  30
ATOM     30  C   UNL d   1       9.537  -0.692  -4.638  0.00  0.00     0.038 A 
ATOM     31  C   UNL d   1      11.038  -0.491  -4.569  0.00  0.00     0.011 A 
ATOM     32  C   UNL d   1      10.479  -1.717  -5.230  0.00  0.00     0.011 A 
ENDBRANCH  22  30
ENDBRANCH   2  20
TORSDOF 7
