REMARK  14 active torsions:
REMARK  status: ('A' for Active; 'I' for Inactive)
REMARK    1  A    between atoms: C_2  and  C_4 
REMARK    2  A    between atoms: C_4  and  C_5 
REMARK    3  A    between atoms: C_5  and  O_6 
REMARK    4  A    between atoms: O_6  and  C_7 
REMARK    5  A    between atoms: C_11  and  C_12 
REMARK       I    between atoms: C_12  and  N_14 
REMARK    6  A    between atoms: N_14  and  C_15 
REMARK    7  A    between atoms: C_15  and  N_17 
REMARK    8  A    between atoms: C_23  and  C_24 
REMARK    9  A    between atoms: C_24  and  C_25 
REMARK   10  A    between atoms: C_25  and  O_27 
REMARK   11  A    between atoms: O_27  and  C_28 
REMARK   12  A    between atoms: C_28  and  C_29 
REMARK   13  A    between atoms: C_29  and  C_30 
REMARK   14  A    between atoms: C_30  and  C_31 
ROOT
ATOM      1  N   UNL d   1       9.055   3.351   3.124  0.00  0.00    -0.343 N 
ATOM      2  C   UNL d   1       9.984   4.480   2.864  0.00  0.00     0.146 C 
ATOM      3  C   UNL d   1       9.369   5.413   1.846  0.00  0.00     0.142 C 
ATOM      4  N   UNL d   1       8.173   5.990   2.373  0.00  0.00    -0.358 N 
ATOM      5  C   UNL d   1       7.299   5.286   3.145  0.00  0.00     0.241 C 
ATOM      6  O   UNL d   1       6.230   5.849   3.369  0.00  0.00    -0.271 OA
ATOM      7  C   UNL d   1       7.752   3.874   3.746  0.00  0.00     0.188 C 
ATOM      8  H   UNL d   1       7.807   6.861   2.008  0.00  0.00     0.162 HD
ENDROOT
BRANCH   1   9
ATOM      9  C   UNL d   1       9.681   2.086   3.354  0.00  0.00     0.177 C 
ATOM     10  S   UNL d   1      11.287   1.981   3.891  0.00  0.00    -0.041 SA
BRANCH   9  11
ATOM     11  N   UNL d   1       8.936   0.954   2.960  0.00  0.00    -0.299 N 
ATOM     12  C   UNL d   1       9.412  -0.381   2.856  0.00  0.00     0.257 C 
ATOM     13  O   UNL d   1      10.573  -0.723   3.069  0.00  0.00    -0.267 OA
ATOM     14  H   UNL d   1       8.005   1.130   2.632  0.00  0.00     0.171 HD
BRANCH  12  15
ATOM     15  C   UNL d   1       8.502  -1.503   2.453  0.00  0.00     0.035 A 
ATOM     16  C   UNL d   1       9.038  -2.812   2.441  0.00  0.00     0.017 A 
ATOM     17  C   UNL d   1       8.240  -3.924   2.167  0.00  0.00     0.004 A 
ATOM     18  C   UNL d   1       6.902  -3.740   1.844  0.00  0.00     0.037 A 
ATOM     19  C   UNL d   1       6.357  -2.456   1.849  0.00  0.00     0.069 A 
ATOM     20  C   UNL d   1       7.153  -1.340   2.154  0.00  0.00     0.053 A 
BRANCH  19  21
ATOM     21  O   UNL d   1       5.002  -2.399   1.647  0.00  0.00    -0.351 OA
BRANCH  21  22
ATOM     22  C   UNL d   1       4.563  -1.254   0.925  0.00  0.00     0.176 C 
BRANCH  22  23
ATOM     23  C   UNL d   1       3.040  -1.210   0.925  0.00  0.00     0.030 C 
BRANCH  23  24
ATOM     24  C   UNL d   1       2.508  -0.037   0.087  0.00  0.00    -0.021 C 
ATOM     25  C   UNL d   1       0.981  -0.049   0.083  0.00  0.00     0.009 C 
ATOM     26  C   UNL d   1       3.009   1.310   0.609  0.00  0.00     0.009 C 
ENDBRANCH  23  24
ENDBRANCH  22  23
ENDBRANCH  21  22
ENDBRANCH  19  21
ENDBRANCH  12  15
ENDBRANCH   9  11
ENDBRANCH   1   9
BRANCH   7  27
ATOM     27  C   UNL d   1       6.574   2.906   3.667  0.00  0.00     0.146 C 
BRANCH  27  28
ATOM     28  C   UNL d   1       5.327   3.427   4.345  0.00  0.00     0.261 C 
ATOM     29  O   UNL d   1       5.298   4.324   5.183  0.00  0.00    -0.265 OA
BRANCH  28  30
ATOM     30  O   UNL d   1       4.237   2.699   3.977  0.00  0.00    -0.321 OA
BRANCH  30  31
ATOM     31  C   UNL d   1       3.026   3.215   4.556  0.00  0.00     0.179 C 
BRANCH  31  32
ATOM     32  C   UNL d   1       1.935   2.187   4.388  0.00  0.00     0.031 C 
BRANCH  32  33
ATOM     33  C   UNL d   1       0.581   2.666   4.906  0.00  0.00     0.041 C 
BRANCH  33  34
ATOM     34  C   UNL d   1      -0.503   1.626   4.726  0.00  0.00    -0.058 A 
ATOM     35  C   UNL d   1      -1.846   2.014   4.656  0.00  0.00     0.007 A 
ATOM     36  C   UNL d   1      -2.855   1.047   4.643  0.00  0.00     0.001 A 
ATOM     37  C   UNL d   1      -2.532  -0.310   4.620  0.00  0.00     0.000 A 
ATOM     38  C   UNL d   1      -1.203  -0.706   4.653  0.00  0.00     0.001 A 
ATOM     39  C   UNL d   1      -0.202   0.254   4.721  0.00  0.00     0.007 A 
ENDBRANCH  33  34
ENDBRANCH  32  33
ENDBRANCH  31  32
ENDBRANCH  30  31
ENDBRANCH  28  30
ENDBRANCH  27  28
ENDBRANCH   7  27
TORSDOF 14
