@<TRIPOS>MOLECULE
*****
 75 77 0 0 0
SMALL
GASTEIGER

@<TRIPOS>ATOM
      1 C           4.5614   -6.8410    1.1292 C.3     1  UNL1       -0.0639
      2 C           4.0952   -5.4715    1.5490 C.3     1  UNL1       -0.0400
      3 C           5.1143   -4.3354    1.6343 C.3     1  UNL1        0.0155
      4 N           4.7524   -3.0105    2.3330 N.am    1  UNL1       -0.2854
      5 C           3.4511   -2.7040    2.7871 C.2     1  UNL1        0.2208
      6 O           3.1951   -1.5990    3.3056 O.2     1  UNL1       -0.2752
      7 C           2.3558   -3.6871    2.5884 C.3     1  UNL1        0.0494
      8 C           1.0187   -3.2053    2.9875 C.ar    1  UNL1       -0.0349
      9 C           0.4236   -2.1517    2.2676 C.ar    1  UNL1       -0.0544
     10 C          -0.8291   -1.7057    2.6362 C.ar    1  UNL1       -0.0159
     11 C          -1.4265   -2.3454    3.7019 C.ar    1  UNL1        0.1662
     12 C          -0.8265   -3.3776    4.3915 C.ar    1  UNL1        0.1665
     13 C           0.4032   -3.8402    4.0600 C.ar    1  UNL1       -0.0125
     14 O          -1.5769   -3.8638    5.4054 O.3     1  UNL1       -0.4526
     15 C          -2.6912   -2.9622    5.3334 C.3     1  UNL1        0.2332
     16 O          -2.6531   -2.0595    4.2079 O.3     1  UNL1       -0.4526
     17 C           5.4837   -1.6536    2.1910 C.3     1  UNL1        0.1341
     18 C           4.6648   -0.9219    1.0852 C.2     1  UNL1        0.2387
     19 O           4.0972   -1.5728    0.2133 O.2     1  UNL1       -0.2734
     20 N           4.6044    0.4743    1.1616 N.am    1  UNL1       -0.3085
     21 C           4.0151    1.2608    0.0752 C.3     1  UNL1        0.0295
     22 C           4.7283    0.8033   -1.2094 C.3     1  UNL1       -0.0440
     23 C           2.5221    0.9160    0.0964 C.3     1  UNL1       -0.0440
     24 C           4.2357    2.8213    0.2757 C.3     1  UNL1       -0.0272
     25 C           3.6564    3.8123   -0.8150 C.3     1  UNL1       -0.0358
     26 C           4.2768    3.6088   -2.2068 C.3     1  UNL1       -0.0600
     27 C           2.1260    3.7415   -0.9251 C.3     1  UNL1       -0.0600
     28 C           3.9736    5.2735   -0.4400 C.3     1  UNL1       -0.0600
     29 C           6.9745   -1.4572    1.9667 C.ar    1  UNL1        0.0648
     30 C           7.8911   -2.4908    1.8495 C.ar    1  UNL1        0.1292
     31 O           7.5950   -3.7529    2.2226 O.3     1  UNL1       -0.5062
     32 C           9.2264   -2.3097    1.5432 C.ar    1  UNL1        0.0219
     33 C           9.7119   -1.0271    1.4254 C.ar    1  UNL1        0.1238
     34 O          11.0310   -0.8113    1.1839 O.3     1  UNL1       -0.5065
     35 C           8.8821    0.0606    1.6232 C.ar    1  UNL1        0.0219
     36 C           7.5379   -0.1578    1.9245 C.ar    1  UNL1        0.1292
     37 O           6.7909    0.9428    2.2674 O.3     1  UNL1       -0.5062
     38 H           3.6855   -7.5038    1.1652 H       1  UNL1        0.0230
     39 H           5.3040   -7.2357    1.8263 H       1  UNL1        0.0230
     40 H           4.9509   -6.8238    0.1138 H       1  UNL1        0.0230
     41 H           3.7405   -5.6685    2.5601 H       1  UNL1        0.0278
     42 H           3.3114   -5.2097    0.8443 H       1  UNL1        0.0278
     43 H           5.5699   -4.1412    0.6583 H       1  UNL1        0.0465
     44 H           5.8230   -4.8455    2.2864 H       1  UNL1        0.0465
     45 H           2.5699   -4.5297    3.2393 H       1  UNL1        0.0407
     46 H           2.2290   -3.9377    1.5369 H       1  UNL1        0.0407
     47 H           0.9664   -1.6835    1.4462 H       1  UNL1        0.0622
     48 H          -1.2976   -0.8861    2.1095 H       1  UNL1        0.0655
     49 H           0.8760   -4.6504    4.6048 H       1  UNL1        0.0658
     50 H          -2.6977   -2.3652    6.2500 H       1  UNL1        0.1166
     51 H          -3.6029   -3.5608    5.2706 H       1  UNL1        0.1166
     52 H           5.3055   -1.1376    3.1447 H       1  UNL1        0.0650
     53 H           5.1240    0.9341    1.9052 H       1  UNL1        0.1493
     54 H           4.8033   -0.2743   -1.3301 H       1  UNL1        0.0250
     55 H           5.7600    1.1761   -1.2365 H       1  UNL1        0.0250
     56 H           4.1866    1.0747   -2.1015 H       1  UNL1        0.0250
     57 H           2.3265   -0.1522    0.1721 H       1  UNL1        0.0250
     58 H           2.0198    1.1804   -0.8226 H       1  UNL1        0.0250
     59 H           2.0286    1.3815    0.9595 H       1  UNL1        0.0250
     60 H           5.3180    3.0147    0.3707 H       1  UNL1        0.0291
     61 H           3.8338    3.1160    1.2593 H       1  UNL1        0.0291
     62 H           3.9102    2.7181   -2.7050 H       1  UNL1        0.0235
     63 H           5.3711    3.5763   -2.1525 H       1  UNL1        0.0235
     64 H           3.9882    4.4040   -2.8991 H       1  UNL1        0.0235
     65 H           1.7843    2.8456   -1.4319 H       1  UNL1        0.0235
     66 H           1.7278    4.5428   -1.5527 H       1  UNL1        0.0235
     67 H           1.6556    3.8070    0.0626 H       1  UNL1        0.0235
     68 H           5.0510    5.4567   -0.3971 H       1  UNL1        0.0235
     69 H           3.5231    5.5537    0.5161 H       1  UNL1        0.0235
     70 H           3.5599    5.9471   -1.2044 H       1  UNL1        0.0235
     71 H           6.8623   -3.6065    2.8492 H       1  UNL1        0.2922
     72 H           9.8574   -3.1885    1.4753 H       1  UNL1        0.0691
     73 H          11.4566   -1.6835    1.1152 H       1  UNL1        0.2921
     74 H           9.2963    1.0610    1.5734 H       1  UNL1        0.0691
     75 H           7.2907    1.7498    2.0413 H       1  UNL1        0.2922
@<TRIPOS>BOND
     1     1     2    1
     2     2     3    1
     3     3     4    1
     4     4     5   am
     5     5     6    2
     6     5     7    1
     7     7     8    1
     8     8     9   ar
     9     9    10   ar
    10    10    11   ar
    11    11    12   ar
    12    12    13   ar
    13     8    13   ar
    14    12    14    1
    15    14    15    1
    16    15    16    1
    17    11    16    1
    18    18    19    2
    19    18    20   am
    20    20    21    1
    21    21    22    1
    22    21    23    1
    23    21    24    1
    24    24    25    1
    25    25    26    1
    26    25    27    1
    27    25    28    1
    28    17    29    1
    29    29    30   ar
    30    30    31    1
    31    30    32   ar
    32    32    33   ar
    33    33    34    1
    34    33    35   ar
    35    35    36   ar
    36    29    36   ar
    37    36    37    1
    38    17    18    1
    39    17     4    1
    40     1    38    1
    41     1    39    1
    42     1    40    1
    43     2    41    1
    44     2    42    1
    45     3    43    1
    46     3    44    1
    47     7    45    1
    48     7    46    1
    49     9    47    1
    50    10    48    1
    51    13    49    1
    52    15    50    1
    53    15    51    1
    54    17    52    1
    55    20    53    1
    56    22    54    1
    57    22    55    1
    58    22    56    1
    59    23    57    1
    60    23    58    1
    61    23    59    1
    62    24    60    1
    63    24    61    1
    64    26    62    1
    65    26    63    1
    66    26    64    1
    67    27    65    1
    68    27    66    1
    69    27    67    1
    70    28    68    1
    71    28    69    1
    72    28    70    1
    73    31    71    1
    74    32    72    1
    75    34    73    1
    76    35    74    1
    77    37    75    1
