@<TRIPOS>MOLECULE
*****
 47 47 0 0 0
SMALL
GASTEIGER

@<TRIPOS>ATOM
      1 C          -2.4844   -0.6110    0.0013 C.3     1  UNL1       -0.0203
      2 C          -1.0402   -0.2487    0.0043 C.ar    1  UNL1        0.0646
      3 N          -0.7104    1.0485    0.0046 N.ar    1  UNL1       -0.1786
      4 N           0.6231    1.0480    0.0125 N.ar    1  UNL1       -0.2813
      5 C           1.1747   -0.2018    0.0018 C.ar    1  UNL1        0.0379
      6 C           2.6410   -0.3800   -0.0196 C.3     1  UNL1       -0.0226
      7 C           0.1198   -1.1055    0.0072 C.ar    1  UNL1        0.0127
      8 C           0.1186   -2.6170    0.0062 C.3     1  UNL1        0.0417
      9 N           1.4536   -3.2176    0.0268 N.am    1  UNL1       -0.2952
     10 C           1.6643   -4.5691    0.0250 C.2     1  UNL1        0.2999
     11 O           0.7517   -5.3847    0.0124 O.2     1  UNL1       -0.2529
     12 N           3.0002   -4.9305    0.0405 N.am    1  UNL1       -0.2979
     13 C           3.3817   -6.3500    0.0449 C.3     1  UNL1        0.0287
     14 C           4.8949   -6.6423    0.0645 C.3     1  UNL1        0.0303
     15 N           5.2623   -8.0649    0.0679 N.am    1  UNL1       -0.2796
     16 C           6.5891   -8.4318    0.0849 C.2     1  UNL1        0.4008
     17 O           7.4860   -7.5927    0.0974 O.2     1  UNL1       -0.2265
     18 O           6.7860   -9.7890    0.0861 O.3     1  UNL1       -0.4447
     19 C           8.1679  -10.2947    0.1036 C.3     1  UNL1        0.1068
     20 C           8.9339   -9.8532   -1.1527 C.3     1  UNL1       -0.0253
     21 C           8.9009   -9.8557    1.3803 C.3     1  UNL1       -0.0253
     22 C           8.1561  -11.8418    0.1019 C.3     1  UNL1       -0.0253
     23 H          -3.1259    0.2804   -0.0158 H       1  UNL1        0.0293
     24 H          -2.7388   -1.1804    0.8995 H       1  UNL1        0.0293
     25 H          -2.7312   -1.2087   -0.8807 H       1  UNL1        0.0293
     26 H           1.1014    1.9433    0.0204 H       1  UNL1        0.1885
     27 H           3.1836    0.5667   -0.0031 H       1  UNL1        0.0292
     28 H           2.9281   -0.9166   -0.9307 H       1  UNL1        0.0292
     29 H           2.9583   -0.9567    0.8557 H       1  UNL1        0.0292
     30 H          -0.4019   -2.9791   -0.8878 H       1  UNL1        0.0513
     31 H          -0.4270   -2.9804    0.8846 H       1  UNL1        0.0513
     32 H           2.2576   -2.6285    0.0172 H       1  UNL1        0.1506
     33 H           3.7192   -4.2213    0.0535 H       1  UNL1        0.1503
     34 H           2.9335   -6.8081   -0.8434 H       1  UNL1        0.0478
     35 H           2.9105   -6.8093    0.9207 H       1  UNL1        0.0478
     36 H           5.3530   -6.1840    0.9502 H       1  UNL1        0.0478
     37 H           5.3760   -6.1823   -0.8079 H       1  UNL1        0.0478
     38 H           4.5635   -8.7968    0.0581 H       1  UNL1        0.1521
     39 H           9.0016   -8.7670   -1.2365 H       1  UNL1        0.0268
     40 H           8.4316  -10.2089   -2.0588 H       1  UNL1        0.0268
     41 H           9.9595  -10.2395   -1.1497 H       1  UNL1        0.0268
     42 H           8.9663   -8.7697    1.4680 H       1  UNL1        0.0268
     43 H           9.9262  -10.2420    1.4033 H       1  UNL1        0.0268
     44 H           8.3751  -10.2133    2.2723 H       1  UNL1        0.0268
     45 H           7.6586  -12.2455   -0.7863 H       1  UNL1        0.0268
     46 H           7.6356  -12.2472    0.9760 H       1  UNL1        0.0268
     47 H           9.1812  -12.2415    0.1149 H       1  UNL1        0.0268
@<TRIPOS>BOND
     1     1     2    1
     2     2     3   ar
     3     3     4   ar
     4     4     5   ar
     5     5     6    1
     6     5     7   ar
     7     2     7   ar
     8     7     8    1
     9     8     9    1
    10     9    10   am
    11    10    11    2
    12    10    12   am
    13    12    13    1
    14    13    14    1
    15    14    15    1
    16    15    16   am
    17    16    17    2
    18    16    18    1
    19    18    19    1
    20    19    20    1
    21    19    21    1
    22    19    22    1
    23     1    23    1
    24     1    24    1
    25     1    25    1
    26     4    26    1
    27     6    27    1
    28     6    28    1
    29     6    29    1
    30     8    30    1
    31     8    31    1
    32     9    32    1
    33    12    33    1
    34    13    34    1
    35    13    35    1
    36    14    36    1
    37    14    37    1
    38    15    38    1
    39    20    39    1
    40    20    40    1
    41    20    41    1
    42    21    42    1
    43    21    43    1
    44    21    44    1
    45    22    45    1
    46    22    46    1
    47    22    47    1
