REMARK  9 active torsions:
REMARK  status: ('A' for Active; 'I' for Inactive)
REMARK    1  A    between atoms: O_2  and  C_3 
REMARK    2  A    between atoms: C_6  and  C_7 
REMARK    3  A    between atoms: C_7  and  C_8 
REMARK    4  A    between atoms: C_8  and  N_9 
REMARK       I    between atoms: N_9  and  C_10 
REMARK       I    between atoms: C_10  and  N_12 
REMARK    5  A    between atoms: N_12  and  C_13 
REMARK    6  A    between atoms: C_16  and  N_17 
REMARK    7  A    between atoms: C_20  and  C_21 
REMARK       I    between atoms: C_21  and  N_23 
REMARK    8  A    between atoms: N_23  and  C_24 
REMARK    9  A    between atoms: C_24  and  C_25 
ROOT
ATOM      1  C   UNL d   1       5.159   3.261 -10.386  0.00  0.00     0.036 A 
ATOM      2  C   UNL d   1       5.084   2.736 -11.685  0.00  0.00     0.032 A 
ATOM      3  C   UNL d   1       4.610   3.519 -12.778  0.00  0.00     0.035 A 
ATOM      4  C   UNL d   1       4.241   4.862 -12.595  0.00  0.00     0.075 A 
ATOM      5  C   UNL d   1       4.383   5.407 -11.311  0.00  0.00     0.035 A 
ATOM      6  C   UNL d   1       4.806   4.606 -10.222  0.00  0.00     0.032 A 
ENDROOT
BRANCH   1   7
ATOM      7  N   UNL d   1       5.612   2.463  -9.282  0.00  0.00    -0.309 N 
ATOM      8  C   UNL d   1       4.944   2.440  -8.064  0.00  0.00     0.320 C 
ATOM      9  N   UNL d   1       5.464   1.554  -7.127  0.00  0.00    -0.343 N 
ATOM     10  O   UNL d   1       3.947   3.112  -7.812  0.00  0.00    -0.247 OA
ATOM     11  H   UNL d   1       6.278   0.990  -7.316  0.00  0.00     0.164 HD
ATOM     12  H   UNL d   1       6.224   1.687  -9.482  0.00  0.00     0.170 HD
BRANCH   9  13
ATOM     13  C   UNL d   1       4.795   1.444  -5.832  0.00  0.00     0.129 C 
BRANCH  13  14
ATOM     14  C   UNL d   1       5.409   0.477  -4.800  0.00  0.00     0.058 C 
BRANCH  14  15
ATOM     15  C   UNL d   1       4.643   0.395  -3.483  0.00  0.00    -0.057 A 
ATOM     16  C   UNL d   1       5.057  -0.496  -2.480  0.00  0.00     0.010 A 
ATOM     17  C   UNL d   1       4.282  -0.682  -1.323  0.00  0.00     0.037 A 
ATOM     18  C   UNL d   1       3.123   0.067  -1.114  0.00  0.00     0.068 A 
ATOM     19  C   UNL d   1       2.738   0.995  -2.072  0.00  0.00     0.037 A 
ATOM     20  C   UNL d   1       3.487   1.152  -3.241  0.00  0.00     0.010 A 
BRANCH  18  21
ATOM     21  O   UNL d   1       2.493  -0.102   0.088  0.00  0.00    -0.356 OA
ATOM     22  C   UNL d   1       1.073   0.013   0.058  0.00  0.00     0.210 C 
ENDBRANCH  18  21
ENDBRANCH  14  15
ENDBRANCH  13  14
ENDBRANCH   9  13
ENDBRANCH   1   7
BRANCH   4  23
ATOM     23  N   UNL d   1       3.771   5.680 -13.675  0.00  0.00    -0.154 N 
ATOM     24  N   UNL d   1       2.890   5.265 -14.623  0.00  0.00     0.030 NA
ATOM     25  N   UNL d   1       2.753   6.288 -15.467  0.00  0.00    -0.130 NA
ATOM     26  C   UNL d   1       3.622   7.269 -15.051  0.00  0.00     0.255 A 
ATOM     27  N   UNL d   1       4.228   6.953 -13.879  0.00  0.00    -0.126 NA
BRANCH  26  28
ATOM     28  C   UNL d   1       3.922   8.515 -15.809  0.00  0.00     0.292 C 
ATOM     29  O   UNL d   1       3.336   8.861 -16.840  0.00  0.00    -0.264 OA
ATOM     30  N   UNL d   1       4.952   9.269 -15.275  0.00  0.00    -0.346 N 
ATOM     31  H   UNL d   1       5.389   8.899 -14.433  0.00  0.00     0.163 HD
BRANCH  30  32
ATOM     32  C   UNL d   1       5.429  10.541 -15.841  0.00  0.00     0.240 C 
BRANCH  32  33
ATOM     33  C   UNL d   1       6.575  11.189 -15.059  0.00  0.00     0.403 C 
ATOM     34  F   UNL d   1       6.206  11.447 -13.783  0.00  0.00    -0.169 F 
ATOM     35  F   UNL d   1       7.653  10.372 -15.012  0.00  0.00    -0.169 F 
ATOM     36  F   UNL d   1       6.968  12.355 -15.616  0.00  0.00    -0.169 F 
ENDBRANCH  32  33
ENDBRANCH  30  32
ENDBRANCH  26  28
ENDBRANCH   4  23
TORSDOF 9
