@<TRIPOS>MOLECULE
*****
 35 35 0 0 0
SMALL
GASTEIGER

@<TRIPOS>ATOM
      1 C           0.9735    0.1051   -0.0170 C.3     1  UNL1       -0.0648
      2 C           2.4968    0.1148   -0.0283 C.3     1  UNL1       -0.0476
      3 C           3.0886    1.0279   -1.1156 C.3     1  UNL1        0.0252
      4 C           4.6215    1.0129   -1.1009 C.2     1  UNL1        0.2291
      5 O           5.2758    0.3410   -0.2997 O.2     1  UNL1       -0.2743
      6 N           5.2409    1.8072   -2.0530 N.am    1  UNL1       -0.2344
      7 N           6.6666    1.8216   -2.1221 N.am    1  UNL1       -0.2342
      8 C           7.2958    2.6487   -3.0396 C.2     1  UNL1        0.2322
      9 O           6.6484    3.3281   -3.8405 O.2     1  UNL1       -0.2740
     10 C           8.8413    2.6348   -3.0313 C.3     1  UNL1        0.0370
     11 C           9.3805    1.7870   -4.1990 C.3     1  UNL1       -0.0419
     12 C          10.9073    1.8542   -4.3316 C.3     1  UNL1       -0.0524
     13 C          11.4077    3.2901   -4.4443 C.3     1  UNL1       -0.0530
     14 C          10.9146    4.1197   -3.2653 C.3     1  UNL1       -0.0524
     15 C           9.3891    4.0722   -3.1450 C.3     1  UNL1       -0.0419
     16 H           0.6035   -0.5587    0.7736 H       1  UNL1        0.0230
     17 H           0.5724   -0.2554   -0.9692 H       1  UNL1        0.0230
     18 H           0.5723    1.1053    0.1732 H       1  UNL1        0.0230
     19 H           2.8526   -0.9128   -0.1722 H       1  UNL1        0.0267
     20 H           2.8526    0.4342    0.9589 H       1  UNL1        0.0267
     21 H           2.7379    2.0545   -0.9579 H       1  UNL1        0.0359
     22 H           2.7369    0.6950   -2.0992 H       1  UNL1        0.0359
     23 H           4.7471    2.3812   -2.7354 H       1  UNL1        0.1728
     24 H           7.1520    1.2749   -1.4119 H       1  UNL1        0.1728
     25 H           9.1940    2.2017   -2.0861 H       1  UNL1        0.0395
     26 H           8.9350    2.1349   -5.1405 H       1  UNL1        0.0272
     27 H           9.0748    0.7419   -4.0782 H       1  UNL1        0.0272
     28 H          11.2306    1.2876   -5.2129 H       1  UNL1        0.0265
     29 H          11.3735    1.3791   -3.4597 H       1  UNL1        0.0265
     30 H          11.0583    3.7343   -5.3850 H       1  UNL1        0.0265
     31 H          12.5041    3.3037   -4.4779 H       1  UNL1        0.0265
     32 H          11.2472    5.1576   -3.3844 H       1  UNL1        0.0265
     33 H          11.3700    3.7428   -2.3413 H       1  UNL1        0.0265
     34 H           8.9571    4.5685   -4.0238 H       1  UNL1        0.0272
     35 H           9.0777    4.6583   -2.2730 H       1  UNL1        0.0272
@<TRIPOS>BOND
     1     1     2    1
     2     2     3    1
     3     3     4    1
     4     4     5    2
     5     4     6   am
     6     6     7    1
     7     7     8   am
     8     8     9    2
     9     8    10    1
    10    10    11    1
    11    11    12    1
    12    12    13    1
    13    13    14    1
    14    14    15    1
    15    10    15    1
    16     1    16    1
    17     1    17    1
    18     1    18    1
    19     2    19    1
    20     2    20    1
    21     3    21    1
    22     3    22    1
    23     6    23    1
    24     7    24    1
    25    10    25    1
    26    11    26    1
    27    11    27    1
    28    12    28    1
    29    12    29    1
    30    13    30    1
    31    13    31    1
    32    14    32    1
    33    14    33    1
    34    15    34    1
    35    15    35    1
