@<TRIPOS>MOLECULE
*****
 60 63 0 0 0
SMALL
GASTEIGER

@<TRIPOS>ATOM
      1 C          21.3007    4.2726  -11.7146 C.3     1  UNL1        0.0788
      2 O          21.2076    2.9385  -11.2129 O.3     1  UNL1       -0.4951
      3 C          20.5354    2.0469  -12.0201 C.ar    1  UNL1        0.1211
      4 C          20.9746    1.8842  -13.4050 C.ar    1  UNL1       -0.0137
      5 C          20.4040    1.0246  -14.2743 C.ar    1  UNL1        0.0133
      6 C          19.3024    0.1902  -13.7730 C.ar    1  UNL1        0.2088
      7 C          18.9118    0.3312  -12.3595 C.ar    1  UNL1        0.0544
      8 C          19.5684    1.2691  -11.5058 C.ar    1  UNL1       -0.0064
      9 C          17.9102   -0.5402  -12.1859 C.2     1  UNL1        0.0092
     10 C          17.1530   -0.7758  -10.9144 C.3     1  UNL1       -0.0092
     11 C          16.0551   -1.8262  -11.0471 C.3     1  UNL1        0.0155
     12 N          15.3049   -2.0253   -9.8365 N.am    1  UNL1       -0.3150
     13 C          14.2837   -2.9515   -9.8318 C.2     1  UNL1        0.2131
     14 O          13.9902   -3.5938  -10.8385 O.2     1  UNL1       -0.2758
     15 C          13.5477   -3.0560   -8.5124 C.3     1  UNL1        0.0262
     16 C          12.5066   -4.1731   -8.5899 C.3     1  UNL1       -0.0187
     17 C          11.6923   -4.4448   -7.3122 C.3     1  UNL1        0.0700
     18 N          11.0739   -5.7793   -7.4305 N.3     1  UNL1       -0.2422
     19 N          11.9130   -6.8057   -6.7651 N.3     1  UNL1       -0.2341
     20 C          13.0360   -6.2024   -6.0174 C.3     1  UNL1        0.1456
     21 C          14.3673   -6.2655   -6.8187 C.2     1  UNL1        0.2457
     22 O          14.9050   -5.2484   -7.2647 O.2     1  UNL1       -0.2728
     23 N          14.9351   -7.5168   -7.0383 N.am    1  UNL1       -0.2835
     24 C          16.1143   -7.6192   -7.8267 C.ar    1  UNL1        0.0335
     25 C          17.1302   -6.6549   -7.7304 C.ar    1  UNL1       -0.0405
     26 C          18.1826   -6.6190   -8.6414 C.ar    1  UNL1       -0.0600
     27 C          18.2934   -7.6226   -9.5934 C.ar    1  UNL1       -0.0616
     28 C          17.3598   -8.6617   -9.6161 C.ar    1  UNL1       -0.0600
     29 C          16.2510   -8.6466   -8.7572 C.ar    1  UNL1       -0.0405
     30 S          12.5815   -4.4678   -5.7449 S.3     1  UNL1       -0.1116
     31 C          17.6042   -1.2702  -13.4658 C.3     1  UNL1        0.1661
     32 N          18.5938   -0.6868  -14.3877 N.2     1  UNL1       -0.2369
     33 H          21.7441    4.8980  -10.9336 H       1  UNL1        0.0660
     34 H          20.3126    4.6768  -11.9593 H       1  UNL1        0.0660
     35 H          21.9614    4.3230  -12.5846 H       1  UNL1        0.0660
     36 H          21.8259    2.4768  -13.7290 H       1  UNL1        0.0656
     37 H          20.7616    0.9396  -15.2935 H       1  UNL1        0.0684
     38 H          19.2739    1.3500  -10.4646 H       1  UNL1        0.0662
     39 H          16.7046    0.1703  -10.5867 H       1  UNL1        0.0327
     40 H          17.8560   -1.0892  -10.1327 H       1  UNL1        0.0327
     41 H          16.4807   -2.7921  -11.3482 H       1  UNL1        0.0465
     42 H          15.3381   -1.5307  -11.8237 H       1  UNL1        0.0465
     43 H          15.5703   -1.5778   -8.9661 H       1  UNL1        0.1487
     44 H          13.0696   -2.1021   -8.2780 H       1  UNL1        0.0359
     45 H          14.2946   -3.2243   -7.7354 H       1  UNL1        0.0359
     46 H          12.9872   -5.0969   -8.9446 H       1  UNL1        0.0293
     47 H          11.7944   -3.9239   -9.3909 H       1  UNL1        0.0293
     48 H          10.9160   -3.6752   -7.2389 H       1  UNL1        0.0589
     49 H          10.9023   -5.9949   -8.4168 H       1  UNL1        0.1418
     50 H          12.2077   -7.5556   -7.3862 H       1  UNL1        0.1424
     51 H          13.1869   -6.6987   -5.0555 H       1  UNL1        0.0686
     52 H          14.3786   -8.3482   -6.8882 H       1  UNL1        0.1549
     53 H          17.1022   -5.9011   -6.9463 H       1  UNL1        0.0636
     54 H          18.9054   -5.8094   -8.5970 H       1  UNL1        0.0618
     55 H          19.1117   -7.6008  -10.3078 H       1  UNL1        0.0618
     56 H          17.4884   -9.4767  -10.3238 H       1  UNL1        0.0618
     57 H          15.4803   -9.4007   -8.8826 H       1  UNL1        0.0636
     58 H          16.6036   -1.0477  -13.8464 H       1  UNL1        0.1077
     59 H          17.7850   -2.3458  -13.3928 H       1  UNL1        0.1077
     60 H          18.7136   -0.9250  -15.3671 H       1  UNL1        0.4459
@<TRIPOS>UNITY_ATOM_ATTR
32 1
charge 1
@<TRIPOS>BOND
     1     1     2    1
     2     2     3    1
     3     3     4   ar
     4     4     5   ar
     5     5     6   ar
     6     6     7   ar
     7     7     8   ar
     8     3     8   ar
     9     7     9    2
    10     9    10    1
    11    10    11    1
    12    11    12    1
    13    12    13   am
    14    13    14    2
    15    13    15    1
    16    15    16    1
    17    17    18    1
    18    18    19    1
    19    19    20    1
    20    20    21    1
    21    21    22    2
    22    21    23   am
    23    23    24    1
    24    24    25   ar
    25    25    26   ar
    26    26    27   ar
    27    27    28   ar
    28    28    29   ar
    29    24    29   ar
    30    20    30    1
    31    17    30    1
    32     9    31    1
    33    31    32    1
    34     6    32    2
    35    17    16    1
    36     1    33    1
    37     1    34    1
    38     1    35    1
    39     4    36    1
    40     5    37    1
    41     8    38    1
    42    10    39    1
    43    10    40    1
    44    11    41    1
    45    11    42    1
    46    12    43    1
    47    15    44    1
    48    15    45    1
    49    16    46    1
    50    16    47    1
    51    17    48    1
    52    18    49    1
    53    19    50    1
    54    20    51    1
    55    23    52    1
    56    25    53    1
    57    26    54    1
    58    27    55    1
    59    28    56    1
    60    29    57    1
    61    31    58    1
    62    31    59    1
    63    32    60    1
