@<TRIPOS>MOLECULE
*****
 46 49 0 0 0
SMALL
GASTEIGER

@<TRIPOS>ATOM
      1 O           1.1124    0.0801    0.0403 O.2     1  UNL1       -0.2702
      2 C           2.3350    0.0474    0.0832 C.2     1  UNL1        0.2443
      3 N           3.0495    0.3899    1.2217 N.am    1  UNL1       -0.3072
      4 C           2.3435    0.8284    2.4230 C.3     1  UNL1        0.0372
      5 C           3.3323    1.1493    3.5304 C.ar    1  UNL1       -0.0293
      6 C           3.5494    2.5302    4.0048 C.ar    1  UNL1       -0.0508
      7 C           4.3564    2.8553    5.0542 C.ar    1  UNL1        0.0101
      8 C           5.0465    1.7458    5.7881 C.ar    1  UNL1        0.2088
      9 C           4.9262    0.4275    5.1650 C.ar    1  UNL1        0.0515
     10 C           3.9940    0.1503    4.1168 C.ar    1  UNL1       -0.0435
     11 C           5.7749   -0.3388    5.7950 C.2     1  UNL1        0.0107
     12 C           6.0108   -1.7802    5.6275 C.3     1  UNL1       -0.0245
     13 C           7.1847   -2.2512    6.5198 C.3     1  UNL1       -0.0489
     14 C           6.4161   -2.5045    7.7665 C.3     1  UNL1       -0.0464
     15 C           6.0544   -0.8245    8.1937 C.3     1  UNL1        0.0135
     16 C           6.3998    0.2729    6.9931 C.3     1  UNL1        0.1759
     17 N           5.7992    1.6747    6.8426 N.2     1  UNL1       -0.2342
     18 C           3.0989   -0.3902   -1.1302 C.ar    1  UNL1        0.0371
     19 C           2.6499    0.0065   -2.4031 C.ar    1  UNL1       -0.0432
     20 C           3.1645   -0.5910   -3.5665 C.ar    1  UNL1        0.0163
     21 C           4.2043   -1.5207   -3.4615 C.ar    1  UNL1        0.2732
     22 N           4.6868   -2.2298   -4.6606 N.pl3   1  UNL1        0.0796
     23 O           4.1329   -1.9823   -5.7405 O.2     1  UNL1        0.0414
     24 O           5.6076   -3.0460   -4.5114 O.co2   1  UNL1       -0.5760
     25 C           4.7519   -1.8191   -2.2046 C.ar    1  UNL1        0.0163
     26 C           4.1611   -1.2981   -1.0395 C.ar    1  UNL1       -0.0432
     27 H           4.0584    0.4092    1.1948 H       1  UNL1        0.1493
     28 H           1.6886    0.0055    2.7450 H       1  UNL1        0.0512
     29 H           1.6949    1.6752    2.1801 H       1  UNL1        0.0512
     30 H           3.0009    3.3061    3.4661 H       1  UNL1        0.0623
     31 H           4.4797    3.8991    5.3318 H       1  UNL1        0.0683
     32 H           3.8412   -0.8880    3.8397 H       1  UNL1        0.0629
     33 H           6.1623   -2.0731    4.5981 H       1  UNL1        0.0312
     34 H           5.0365   -2.2207    5.9228 H       1  UNL1        0.0312
     35 H           7.7477   -1.6270    7.2581 H       1  UNL1        0.0268
     36 H           8.1249   -1.9293    6.0489 H       1  UNL1        0.0268
     37 H           7.0745   -3.1434    8.3888 H       1  UNL1        0.0268
     38 H           5.5998   -3.2076    7.4718 H       1  UNL1        0.0268
     39 H           6.7419   -0.5915    9.0154 H       1  UNL1        0.0333
     40 H           5.0309   -0.7208    8.5672 H       1  UNL1        0.0333
     41 H           7.4822    0.4015    6.8426 H       1  UNL1        0.1114
     42 H           6.1851    2.5283    7.2575 H       1  UNL1        0.4462
     43 H           1.8709    0.7618   -2.4984 H       1  UNL1        0.0627
     44 H           2.7308   -0.3414   -4.5348 H       1  UNL1        0.0685
     45 H           5.6082   -2.4860   -2.1181 H       1  UNL1        0.0685
     46 H           4.4993   -1.6603   -0.0732 H       1  UNL1        0.0627
@<TRIPOS>UNITY_ATOM_ATTR
17 1
charge 1
22 1
charge 1
24 1
charge -1
@<TRIPOS>BOND
     1     1     2    2
     2     2     3   am
     3     3     4    1
     4     4     5    1
     5     5     6   ar
     6     6     7   ar
     7     7     8   ar
     8     8     9   ar
     9     9    10   ar
    10     5    10   ar
    11     9    11    2
    12    11    12    1
    13    12    13    1
    14    13    14    1
    15    14    15    1
    16    15    16    1
    17    11    16    1
    18    16    17    1
    19     8    17    2
    20     2    18    1
    21    18    19   ar
    22    19    20   ar
    23    20    21   ar
    24    21    22    1
    25    22    23    2
    26    22    24    1
    27    21    25   ar
    28    25    26   ar
    29    18    26   ar
    30     3    27    1
    31     4    28    1
    32     4    29    1
    33     6    30    1
    34     7    31    1
    35    10    32    1
    36    12    33    1
    37    12    34    1
    38    13    35    1
    39    13    36    1
    40    14    37    1
    41    14    38    1
    42    15    39    1
    43    15    40    1
    44    16    41    1
    45    17    42    1
    46    19    43    1
    47    20    44    1
    48    25    45    1
    49    26    46    1
