@<TRIPOS>MOLECULE
*****
 52 53 0 0 0
SMALL
GASTEIGER

@<TRIPOS>ATOM
      1 C          -1.4779   -1.4149    2.7989 C.3     1  UNL1       -0.0495
      2 C          -1.1122   -0.0677    2.2020 C.3     1  UNL1        0.0091
      3 N          -0.1455   -0.1696    1.1302 N.am    1  UNL1       -0.3116
      4 C           0.3926    0.9113    0.4467 C.2     1  UNL1        0.2441
      5 O           0.4089    0.8600   -0.7827 O.2     1  UNL1       -0.2702
      6 C           1.1141    2.0395    1.1736 C.ar    1  UNL1        0.0385
      7 C           1.7135    3.0490    0.4365 C.ar    1  UNL1       -0.0493
      8 C           2.5056    4.0111    1.0929 C.ar    1  UNL1       -0.0564
      9 C           2.7775    3.9483    2.4879 C.ar    1  UNL1       -0.0292
     10 C           3.6077    4.9998    3.1500 C.3     1  UNL1       -0.0380
     11 C           2.2146    2.9338    3.2514 C.ar    1  UNL1        0.0374
     12 N           2.5098    2.7417    4.6605 N.am    1  UNL1       -0.2775
     13 C           1.6964    2.0003    5.5241 C.2     1  UNL1        0.3032
     14 O           0.4989    1.7899    5.2835 O.2     1  UNL1       -0.2648
     15 C           2.1743    1.5582    6.9240 C.2     1  UNL1        0.2998
     16 O           2.8410    2.3438    7.5955 O.2     1  UNL1       -0.2652
     17 N           1.7378    0.3437    7.4699 N.am    1  UNL1       -0.3000
     18 C           1.0333   -0.8251    6.8852 C.3     1  UNL1        0.0572
     19 C           1.6600   -1.1430    5.5444 C.ar    1  UNL1        0.0102
     20 C           1.1420   -0.7272    4.3538 C.ar    1  UNL1       -0.0497
     21 C           1.9937   -0.8817    3.2537 C.ar    1  UNL1       -0.0544
     22 C           3.0768   -1.6431    3.5685 C.ar    1  UNL1       -0.0240
     23 S           3.0816   -2.0438    5.2406 S.2     1  UNL1       -0.0997
     24 C          -0.5361   -0.6598    6.8487 C.3     1  UNL1       -0.0236
     25 C          -1.2302   -1.8477    6.1647 C.3     1  UNL1       -0.0607
     26 C          -1.1600   -0.5452    8.2396 C.3     1  UNL1       -0.0607
     27 C           1.3640    2.0624    2.5572 C.ar    1  UNL1       -0.0281
     28 H          -2.0203   -1.2282    3.7284 H       1  UNL1        0.0245
     29 H          -0.6065   -2.0462    3.0164 H       1  UNL1        0.0245
     30 H          -2.1228   -2.0040    2.1505 H       1  UNL1        0.0245
     31 H          -0.7138    0.5700    2.9711 H       1  UNL1        0.0459
     32 H          -1.9909    0.4881    1.8815 H       1  UNL1        0.0459
     33 H          -0.2386   -0.9956    0.5470 H       1  UNL1        0.1490
     34 H           1.5787    3.0894   -0.6441 H       1  UNL1        0.0625
     35 H           2.9206    4.8189    0.4927 H       1  UNL1        0.0621
     36 H           3.9327    5.7653    2.4428 H       1  UNL1        0.0278
     37 H           4.4907    4.5396    3.6030 H       1  UNL1        0.0278
     38 H           3.0092    5.4846    3.9294 H       1  UNL1        0.0278
     39 H           3.1960    3.3459    5.1068 H       1  UNL1        0.1553
     40 H           1.7805    0.3406    8.4808 H       1  UNL1        0.1498
     41 H           1.2370   -1.6755    7.5480 H       1  UNL1        0.0556
     42 H           0.2030   -0.2058    4.3803 H       1  UNL1        0.0626
     43 H           1.8535   -0.4690    2.2691 H       1  UNL1        0.0623
     44 H           3.8316   -1.9255    2.8490 H       1  UNL1        0.0693
     45 H          -0.8208    0.2543    6.3162 H       1  UNL1        0.0317
     46 H          -1.1052   -2.7737    6.7276 H       1  UNL1        0.0233
     47 H          -0.8141   -2.0541    5.1864 H       1  UNL1        0.0233
     48 H          -2.3011   -1.6535    6.0266 H       1  UNL1        0.0233
     49 H          -0.9989   -1.4675    8.8055 H       1  UNL1        0.0233
     50 H          -2.2451   -0.3943    8.1565 H       1  UNL1        0.0233
     51 H          -0.7512    0.2970    8.8006 H       1  UNL1        0.0233
     52 H           0.9062    1.3228    3.1552 H       1  UNL1        0.0644
@<TRIPOS>BOND
     1     1     2    1
     2     2     3    1
     3     3     4   am
     4     4     5    2
     5     4     6    1
     6     6     7   ar
     7     7     8   ar
     8     8     9   ar
     9     9    10    1
    10     9    11   ar
    11    11    12    1
    12    12    13   am
    13    13    14    2
    14    13    15    1
    15    15    16    2
    16    15    17   am
    17    19    20   ar
    18    20    21   ar
    19    21    22   ar
    20    22    23   ar
    21    19    23   ar
    22    18    24    1
    23    24    25    1
    24    24    26    1
    25    11    27   ar
    26     6    27   ar
    27    18    19    1
    28    18    17    1
    29     1    28    1
    30     1    29    1
    31     1    30    1
    32     2    31    1
    33     2    32    1
    34     3    33    1
    35     7    34    1
    36     8    35    1
    37    10    36    1
    38    10    37    1
    39    10    38    1
    40    12    39    1
    41    17    40    1
    42    18    41    1
    43    20    42    1
    44    21    43    1
    45    22    44    1
    46    24    45    1
    47    25    46    1
    48    25    47    1
    49    25    48    1
    50    26    49    1
    51    26    50    1
    52    26    51    1
    53    27    52    1
