REMARK  3 active torsions:
REMARK  status: ('A' for Active; 'I' for Inactive)
REMARK    1  A    between atoms: C_6  and  C_7 
REMARK       I    between atoms: C_7  and  N_9 
REMARK    2  A    between atoms: N_9  and  N_10 
REMARK       I    between atoms: N_10  and  C_11 
REMARK    3  A    between atoms: C_11  and  C_13 
ROOT
ATOM      1  N   UNL d   1      -2.296   4.345  -0.086  0.00  0.00    -0.261 N 
ATOM      2  C   UNL d   1      -3.668   4.625  -0.045  0.00  0.00     0.294 C 
ATOM      3  O   UNL d   1      -4.488   3.705   0.038  0.00  0.00    -0.264 OA
ATOM      4  H   UNL d   1      -1.580   5.066  -0.047  0.00  0.00     0.190 HD
ENDROOT
BRANCH   1   5
ATOM      5  N   UNL d   1      -1.835   2.998  -0.048  0.00  0.00    -0.263 N 
ATOM      6  C   UNL d   1      -0.474   2.708  -0.042  0.00  0.00     0.273 C 
ATOM      7  O   UNL d   1       0.368   3.612  -0.063  0.00  0.00    -0.266 OA
ATOM      8  H   UNL d   1      -2.562   2.293  -0.035  0.00  0.00     0.190 HD
BRANCH   6   9
ATOM      9  C   UNL d   1      -0.075   1.294  -0.017  0.00  0.00     0.076 A 
ATOM     10  C   UNL d   1       1.257   0.787   0.000  0.00  0.00     0.157 A 
ATOM     11  N   UNL d   1       1.319  -0.548   0.005  0.00  0.00    -0.186 NA
ATOM     12  N   UNL d   1       0.035  -0.920  -0.006  0.00  0.00    -0.282 N 
ATOM     13  C   UNL d   1      -0.843   0.134  -0.006  0.00  0.00     0.041 A 
ATOM     14  H   UNL d   1      -0.174  -1.915  -0.014  0.00  0.00     0.189 HD
ATOM     15  C   UNL d   1      -2.301  -0.104  -0.003  0.00  0.00     0.071 C 
ENDBRANCH   6   9
ENDBRANCH   1   5
BRANCH   2  16
ATOM     16  C   UNL d   1      -4.031   6.041  -0.145  0.00  0.00     0.152 A 
ATOM     17  O   UNL d   1      -5.074   6.549   0.606  0.00  0.00    -0.304 OA
ATOM     18  C   UNL d   1      -5.211   7.878   0.294  0.00  0.00     0.087 A 
ATOM     19  C   UNL d   1      -6.141   8.780   0.827  0.00  0.00     0.038 A 
ATOM     20  C   UNL d   1      -4.277   8.234  -0.670  0.00  0.00     0.007 A 
ATOM     21  C   UNL d   1      -6.107  10.099   0.342  0.00  0.00     0.003 A 
ATOM     22  C   UNL d   1      -5.183  10.486  -0.627  0.00  0.00     0.001 A 
ATOM     23  C   UNL d   1      -4.265   9.564  -1.142  0.00  0.00     0.015 A 
ATOM     24  C   UNL d   1      -3.536   7.050  -0.965  0.00  0.00    -0.009 A 
ATOM     25  C   UNL d   1      -2.493   6.902  -2.006  0.00  0.00     0.052 C 
ENDBRANCH   2  16
TORSDOF 3
