REMARK  9 active torsions:
REMARK  status: ('A' for Active; 'I' for Inactive)
REMARK    1  A    between atoms: C_2  and  C_3 
REMARK       I    between atoms: C_2  and  N_18 
REMARK    2  A    between atoms: C_3  and  S_4 
REMARK    3  A    between atoms: C_5  and  S_4 
REMARK    4  A    between atoms: C_8  and  N_9 
REMARK    5  A    between atoms: N_9  and  C_10 
REMARK    6  A    between atoms: CA_19  and  N_18 
REMARK    7  A    between atoms: CA_19  and  C_30 
REMARK    8  A    between atoms: CA_19  and  CB_20 
REMARK    9  A    between atoms: CB_20  and  CG_21 
ROOT
ATOM      1  O   UNK d   0       9.447  -0.257   6.682  0.00  0.00    -0.273 OA
ATOM      2  C   UNK d   0       8.675  -0.466   7.606  0.00  0.00     0.227 C 
ATOM      3  N   TRP d   1       9.020  -1.170   8.753  0.00  0.00    -0.346 N 
ATOM      4  H   TRP d   1       8.453  -1.149   9.587  0.00  0.00     0.163 HD
ENDROOT
BRANCH   2   5
ATOM      5  C   UNK d   0       7.137  -0.246   7.484  0.00  0.00     0.179 C 
BRANCH   5   6
ATOM      6  S   UNK d   0       6.561  -0.172   5.709  0.00  0.00    -0.128 SA
BRANCH   6   7
ATOM      7  C   UNK d   0       6.049   1.542   5.468  0.00  0.00     0.198 C 
ATOM      8  N   UNK d   0       5.028   1.907   6.437  0.00  0.00    -0.235 NA
ATOM      9  N   UNK d   0       5.624   2.685   7.508  0.00  0.00    -0.228 NA
ATOM     10  H   UNK d   0       4.538   1.065   6.741  0.00  0.00     0.142 HD
ATOM     11  C   UNK d   0       7.051   2.973   7.270  0.00  0.00     0.235 C 
ATOM     12  H   UNK d   0       5.500   2.291   8.437  0.00  0.00     0.143 HD
ATOM     13  S   UNK d   0       7.356   2.751   5.529  0.00  0.00    -0.096 SA
BRANCH  11  14
ATOM     14  N   UNK d   0       7.575   4.219   7.739  0.00  0.00    -0.364 N 
ATOM     15  H   UNK d   0       8.246   4.629   7.101  0.00  0.00     0.162 HD
BRANCH  14  16
ATOM     16  C   UNK d   0       7.822   4.371   9.105  0.00  0.00     0.032 A 
ATOM     17  C   UNK d   0       7.443   3.425  10.079  0.00  0.00     0.029 A 
ATOM     18  C   UNK d   0       7.556   3.678  11.446  0.00  0.00     0.005 A 
ATOM     19  C   UNK d   0       8.051   4.900  11.871  0.00  0.00     0.042 A 
ATOM     20  C   UNK d   0       8.433   5.842  10.924  0.00  0.00     0.118 A 
ATOM     21  F   UNK d   0       8.902   7.028  11.335  0.00  0.00    -0.206 F 
ATOM     22  C   UNK d   0       8.321   5.591   9.558  0.00  0.00     0.071 A 
ENDBRANCH  14  16
ENDBRANCH  11  14
ENDBRANCH   6   7
ENDBRANCH   5   6
ENDBRANCH   2   5
BRANCH   3  23
ATOM     23  CA  TRP d   1      10.267  -1.991   8.870  0.00  0.00     0.190 C 
BRANCH  23  24
ATOM     24  C   TRP d   1      10.923  -1.839  10.297  0.00  0.00     0.197 C 
ATOM     25  O   TRP d   1      11.200  -2.900  10.925  0.00  0.00    -0.646 OA
ATOM     26  OXT TRP d   1      11.039  -0.640  10.694  0.00  0.00    -0.646 OA
ENDBRANCH  23  24
BRANCH  23  27
ATOM     27  CB  TRP d   1      10.062  -3.505   8.534  0.00  0.00     0.077 C 
BRANCH  27  28
ATOM     28  CG  TRP d   1       9.099  -3.904   7.424  0.00  0.00    -0.028 C 
ATOM     29  CD1 TRP d   1       8.301  -3.137   6.645  0.00  0.00     0.096 C 
ATOM     30  NE1 TRP d   1       7.640  -3.808   5.686  0.00  0.00    -0.365 N 
ATOM     31  CE2 TRP d   1       7.806  -5.121   5.954  0.00  0.00     0.042 A 
ATOM     32  HE1 TRP d   1       7.036  -3.372   5.006  0.00  0.00     0.165 HD
ATOM     33  CZ2 TRP d   1       7.180  -6.185   5.335  0.00  0.00     0.030 A 
ATOM     34  CD2 TRP d   1       8.721  -5.221   7.013  0.00  0.00    -0.002 A 
ATOM     35  CH2 TRP d   1       7.500  -7.434   5.838  0.00  0.00     0.002 A 
ATOM     36  CZ3 TRP d   1       8.412  -7.590   6.888  0.00  0.00     0.001 A 
ATOM     37  CE3 TRP d   1       9.043  -6.495   7.484  0.00  0.00     0.014 A 
ENDBRANCH  27  28
ENDBRANCH  23  27
ENDBRANCH   3  23
TORSDOF 9
