REMARK  15 active torsions:
REMARK  status: ('A' for Active; 'I' for Inactive)
REMARK    1  A    between atoms: C_2  and  C_3 
REMARK    2  A    between atoms: C_3  and  C_4 
REMARK    3  A    between atoms: C_4  and  O_5 
REMARK    4  A    between atoms: O_5  and  C_6 
REMARK    5  A    between atoms: C_9  and  C_10 
REMARK    6  A    between atoms: C_10  and  N_11 
REMARK    7  A    between atoms: N_11  and  C_12 
REMARK    8  A    between atoms: C_16  and  N_17 
REMARK    9  A    between atoms: N_17  and  C_18 
REMARK   10  A    between atoms: C_18  and  C_19 
REMARK   11  A    between atoms: C_22  and  O_23 
REMARK   12  A    between atoms: O_23  and  C_24 
REMARK   13  A    between atoms: C_24  and  C_25 
REMARK   14  A    between atoms: C_25  and  C_26 
REMARK   15  A    between atoms: C_30  and  N_31 
ROOT
ATOM      1  C   UNL d   1      12.542  -0.035   3.214  0.00  0.00     0.162 A 
ATOM      2  N   UNL d   1      13.080   1.155   3.555  0.00  0.00    -0.222 NA
ATOM      3  C   UNL d   1      14.413   1.209   3.642  0.00  0.00     0.237 A 
ATOM      4  N   UNL d   1      15.240   0.179   3.426  0.00  0.00    -0.222 NA
ATOM      5  C   UNL d   1      14.693  -0.993   3.024  0.00  0.00     0.162 A 
ATOM      6  C   UNL d   1      13.319  -1.130   2.886  0.00  0.00     0.193 A 
ENDROOT
BRANCH   1   7
ATOM      7  N   UNL d   1      11.166  -0.063   3.151  0.00  0.00    -0.368 N 
ATOM      8  H   UNL d   1      10.797   0.877   3.138  0.00  0.00     0.161 HD
BRANCH   7   9
ATOM      9  C   UNL d   1      10.416  -1.064   3.913  0.00  0.00     0.160 C 
BRANCH   9  10
ATOM     10  C   UNL d   1       8.963  -1.051   3.526  0.00  0.00    -0.040 A 
ATOM     11  C   UNL d   1       8.154  -2.142   3.878  0.00  0.00     0.011 A 
ATOM     12  C   UNL d   1       6.822  -2.189   3.467  0.00  0.00     0.037 A 
ATOM     13  C   UNL d   1       6.271  -1.126   2.754  0.00  0.00     0.068 A 
ATOM     14  C   UNL d   1       7.066  -0.041   2.407  0.00  0.00     0.037 A 
ATOM     15  C   UNL d   1       8.399  -0.009   2.781  0.00  0.00     0.011 A 
BRANCH  13  16
ATOM     16  O   UNL d   1       4.927  -1.184   2.523  0.00  0.00    -0.351 OA
BRANCH  16  17
ATOM     17  C   UNL d   1       4.505  -0.603   1.291  0.00  0.00     0.175 C 
BRANCH  17  18
ATOM     18  C   UNL d   1       2.985  -0.584   1.288  0.00  0.00     0.026 C 
BRANCH  18  19
ATOM     19  C   UNL d   1       2.453  -0.075  -0.046  0.00  0.00    -0.002 C 
ATOM     20  C   UNL d   1       0.936  -0.068  -0.054  0.00  0.00     0.005 C 
ENDBRANCH  18  19
ENDBRANCH  17  18
ENDBRANCH  16  17
ENDBRANCH  13  16
ENDBRANCH   9  10
ENDBRANCH   7   9
ENDBRANCH   1   7
BRANCH   6  21
ATOM     21  N   UNL d   1      12.615  -2.252   2.270  0.00  0.00    -0.108 N 
ATOM     22  O   UNL d   1      12.763  -3.394   2.758  0.00  0.00    -0.532 OA
ATOM     23  O   UNL d   1      11.814  -2.026   1.364  0.00  0.00    -0.532 OA
ENDBRANCH   6  21
BRANCH   5  24
ATOM     24  N   UNL d   1      15.666  -1.917   2.730  0.00  0.00    -0.368 N 
ATOM     25  H   UNL d   1      16.584  -1.661   3.077  0.00  0.00     0.161 HD
BRANCH  24  26
ATOM     26  C   UNL d   1      15.312  -3.280   2.457  0.00  0.00     0.160 C 
BRANCH  26  27
ATOM     27  C   UNL d   1      16.398  -4.261   2.273  0.00  0.00    -0.040 A 
ATOM     28  C   UNL d   1      16.058  -5.629   2.245  0.00  0.00     0.011 A 
ATOM     29  C   UNL d   1      17.064  -6.579   2.217  0.00  0.00     0.037 A 
ATOM     30  C   UNL d   1      18.388  -6.154   2.126  0.00  0.00     0.068 A 
ATOM     31  C   UNL d   1      18.698  -4.790   2.113  0.00  0.00     0.037 A 
ATOM     32  C   UNL d   1      17.707  -3.846   2.161  0.00  0.00     0.011 A 
BRANCH  30  33
ATOM     33  O   UNL d   1      19.329  -7.140   2.024  0.00  0.00    -0.351 OA
BRANCH  33  34
ATOM     34  C   UNL d   1      20.645  -6.641   1.792  0.00  0.00     0.175 C 
BRANCH  34  35
ATOM     35  C   UNL d   1      21.569  -7.816   1.581  0.00  0.00     0.026 C 
BRANCH  35  36
ATOM     36  C   UNL d   1      23.002  -7.338   1.397  0.00  0.00    -0.002 C 
ATOM     37  C   UNL d   1      23.930  -8.520   1.205  0.00  0.00     0.005 C 
ENDBRANCH  35  36
ENDBRANCH  34  35
ENDBRANCH  33  34
ENDBRANCH  30  33
ENDBRANCH  26  27
ENDBRANCH  24  26
ENDBRANCH   5  24
TORSDOF 15
