@<TRIPOS>MOLECULE
*****
 55 58 0 0 0
SMALL
GASTEIGER

@<TRIPOS>ATOM
      1 C           2.5335    0.0037   -0.0134 C.3     1  UNL1       -0.0397
      2 C           1.0412    0.0176    0.0107 C.ar    1  UNL1       -0.0503
      3 C           0.3280   -1.1843    0.0173 C.ar    1  UNL1       -0.0570
      4 C          -1.0489   -1.1314    0.0273 C.ar    1  UNL1       -0.0346
      5 C          -1.6827    0.1283    0.0321 C.ar    1  UNL1        0.1125
      6 S          -3.4091    0.1090   -0.0513 S.O2    1  UNL1        0.0992
      7 O          -3.5939   -0.5151   -1.3492 O.2     1  UNL1       -0.1463
      8 O          -3.7556   -0.5553    1.1930 O.2     1  UNL1       -0.1463
      9 N          -4.1039    1.5998   -0.0609 N.2     1  UNL1       -0.1288
     10 C          -5.4017    1.7973   -0.0613 C.2     1  UNL1        0.0914
     11 C          -5.9044    3.2145   -0.0881 C.2     1  UNL1       -0.0084
     12 C          -7.2036    3.5739   -0.1483 C.2     1  UNL1        0.0935
     13 N          -7.6842    4.8747   -0.2433 N.pl3   1  UNL1       -0.2606
     14 N          -6.9066    6.0127    0.0591 N.am    1  UNL1       -0.2324
     15 C          -7.4700    7.2758   -0.0761 C.2     1  UNL1        0.2603
     16 O          -6.9283    8.1237   -0.7822 O.2     1  UNL1       -0.2687
     17 C          -8.6364    7.6366    0.7801 C.ar    1  UNL1        0.0450
     18 C          -9.1363    8.9501    0.7559 C.ar    1  UNL1       -0.0078
     19 C         -10.1687    9.3026    1.6270 C.ar    1  UNL1        0.1210
     20 O         -10.6787   10.5687    1.6633 O.3     1  UNL1       -0.5066
     21 C         -10.7175    8.3735    2.5091 C.ar    1  UNL1        0.0213
     22 C         -10.2136    7.0823    2.5251 C.ar    1  UNL1        0.1210
     23 O         -10.6893    6.1136    3.3563 O.3     1  UNL1       -0.5066
     24 C          -9.1714    6.7193    1.6887 C.ar    1  UNL1       -0.0078
     25 C          -8.2724    2.5163   -0.1468 C.2     1  UNL1        0.2049
     26 O          -9.4693    2.8315   -0.1738 O.2     1  UNL1       -0.2856
     27 C          -7.8521    1.1098   -0.1119 C.2     1  UNL1        0.0104
     28 C          -6.5455    0.8072   -0.0626 C.2     1  UNL1       -0.0095
     29 C          -6.1759   -0.6159   -0.0776 C.3     1  UNL1       -0.0070
     30 C          -7.1300   -1.6269   -0.5183 C.2     1  UNL1       -0.0832
     31 C          -8.4221   -1.3314   -0.5846 C.2     1  UNL1       -0.0832
     32 C          -8.9234    0.0337   -0.1772 C.3     1  UNL1       -0.0054
     33 C          -1.0053    1.3220    0.0255 C.ar    1  UNL1       -0.0346
     34 C           0.3727    1.2590    0.0159 C.ar    1  UNL1       -0.0570
     35 H           2.9218   -1.0186   -0.0008 H       1  UNL1        0.0278
     36 H           2.9127    0.5293    0.8667 H       1  UNL1        0.0278
     37 H           2.8843    0.4970   -0.9238 H       1  UNL1        0.0278
     38 H           0.8295   -2.1495    0.0046 H       1  UNL1        0.0621
     39 H          -1.6304   -2.0560    0.0104 H       1  UNL1        0.0637
     40 H          -5.1315    3.9748   -0.0878 H       1  UNL1        0.0659
     41 H          -8.7131    4.9437   -0.2176 H       1  UNL1        0.1701
     42 H          -6.0083    5.9747   -0.4129 H       1  UNL1        0.1730
     43 H          -8.6967    9.6867    0.0867 H       1  UNL1        0.0662
     44 H         -10.2232   11.1203    1.0052 H       1  UNL1        0.2921
     45 H         -11.5162    8.6755    3.1772 H       1  UNL1        0.0691
     46 H         -11.4304    6.4692    3.8719 H       1  UNL1        0.2921
     47 H          -8.7779    5.7154    1.7926 H       1  UNL1        0.0662
     48 H          -5.8281   -0.8944    0.9129 H       1  UNL1        0.0356
     49 H          -5.5075   -0.6841   -0.9075 H       1  UNL1        0.0356
     50 H          -6.6824   -2.5721   -0.8153 H       1  UNL1        0.0572
     51 H          -9.0968   -2.0997   -0.9358 H       1  UNL1        0.0572
     52 H          -9.3787   -0.0638    0.8141 H       1  UNL1        0.0357
     53 H          -9.6888    0.3165   -0.9024 H       1  UNL1        0.0357
     54 H          -1.5424    2.2625    0.0088 H       1  UNL1        0.0637
     55 H           0.9313    2.1885    0.0021 H       1  UNL1        0.0621
@<TRIPOS>BOND
     1     1     2    1
     2     2     3   ar
     3     3     4   ar
     4     4     5   ar
     5     5     6    1
     6     6     7    2
     7     6     8    2
     8     6     9    1
     9     9    10    2
    10    10    11    1
    11    11    12    2
    12    12    13    1
    13    13    14    1
    14    14    15   am
    15    15    16    2
    16    15    17    1
    17    17    18   ar
    18    18    19   ar
    19    19    20    1
    20    19    21   ar
    21    21    22   ar
    22    22    23    1
    23    22    24   ar
    24    17    24   ar
    25    12    25    1
    26    25    26    2
    27    25    27    1
    28    27    28    2
    29    10    28    1
    30    28    29    1
    31    29    30    1
    32    30    31    2
    33    31    32    1
    34    27    32    1
    35     5    33   ar
    36    33    34   ar
    37     2    34   ar
    38     1    35    1
    39     1    36    1
    40     1    37    1
    41     3    38    1
    42     4    39    1
    43    11    40    1
    44    13    41    1
    45    14    42    1
    46    18    43    1
    47    20    44    1
    48    21    45    1
    49    23    46    1
    50    24    47    1
    51    29    48    1
    52    29    49    1
    53    30    50    1
    54    31    51    1
    55    32    52    1
    56    32    53    1
    57    33    54    1
    58    34    55    1
