REMARK  8 active torsions:
REMARK  status: ('A' for Active; 'I' for Inactive)
REMARK    1  A    between atoms: C_2  and  O_3 
REMARK    2  A    between atoms: O_3  and  C_4 
REMARK    3  A    between atoms: C_4  and  C_5 
REMARK       I    between atoms: C_5  and  N_7 
REMARK    4  A    between atoms: N_7  and  N_8 
REMARK       I    between atoms: N_8  and  C_9 
REMARK       I    between atoms: C_9  and  N_11 
REMARK    5  A    between atoms: N_11  and  C_12 
REMARK    6  A    between atoms: C_12  and  C_13 
REMARK    7  A    between atoms: C_12  and  C_17 
REMARK    8  A    between atoms: C_13  and  C_14 
ROOT
ATOM      1  N   UNL d   1       6.900  -4.356   1.088  0.00  0.00    -0.249 N 
ATOM      2  C   UNL d   1       8.215  -4.723   0.751  0.00  0.00     0.335 C 
ATOM      3  O   UNL d   1       8.915  -4.013   0.018  0.00  0.00    -0.246 OA
ATOM      4  N   UNL d   1       8.741  -5.746   1.548  0.00  0.00    -0.333 N 
ATOM      5  H   UNL d   1       6.237  -4.961   1.565  0.00  0.00     0.192 HD
ATOM      6  H   UNL d   1       8.099  -6.336   2.058  0.00  0.00     0.165 HD
ENDROOT
BRANCH   4   7
ATOM      7  C   UNL d   1      10.199  -5.939   1.851  0.00  0.00     0.119 C 
BRANCH   7   8
ATOM      8  C   UNL d   1      10.851  -4.933   2.878  0.00  0.00     0.034 C 
BRANCH   8   9
ATOM      9  C   UNL d   1      10.697  -3.442   2.572  0.00  0.00    -0.021 C 
ATOM     10  C   UNL d   1       9.264  -3.001   2.823  0.00  0.00     0.009 C 
ATOM     11  C   UNL d   1      11.501  -2.548   3.506  0.00  0.00     0.009 C 
ENDBRANCH   8   9
ENDBRANCH   7   8
BRANCH   7  12
ATOM     12  C   UNL d   1      10.421  -7.369   2.381  0.00  0.00    -0.035 A 
ATOM     13  C   UNL d   1      10.655  -8.423   1.488  0.00  0.00     0.009 A 
ATOM     14  C   UNL d   1      10.652  -9.750   1.938  0.00  0.00     0.001 A 
ATOM     15  C   UNL d   1      10.520 -10.040   3.295  0.00  0.00     0.000 A 
ATOM     16  C   UNL d   1      10.378  -9.005   4.207  0.00  0.00     0.001 A 
ATOM     17  C   UNL d   1      10.318  -7.687   3.752  0.00  0.00     0.009 A 
ENDBRANCH   7  12
ENDBRANCH   4   7
BRANCH   1  18
ATOM     18  N   UNL d   1       6.402  -3.024   0.778  0.00  0.00    -0.264 N 
ATOM     19  C   UNL d   1       5.032  -2.786   0.823  0.00  0.00     0.259 C 
ATOM     20  O   UNL d   1       4.252  -3.681   1.180  0.00  0.00    -0.269 OA
ATOM     21  H   UNL d   1       7.103  -2.304   0.605  0.00  0.00     0.190 HD
BRANCH  19  22
ATOM     22  C   UNL d   1       4.544  -1.371   0.385  0.00  0.00     0.272 C 
BRANCH  22  23
ATOM     23  O   UNL d   1       3.113  -1.273   0.363  0.00  0.00    -0.382 OA
BRANCH  23  24
ATOM     24  C   UNL d   1       2.627  -0.002  -0.067  0.00  0.00     0.163 C 
ATOM     25  C   UNL d   1       1.104  -0.014  -0.064  0.00  0.00     0.033 C 
ENDBRANCH  23  24
ENDBRANCH  22  23
ENDBRANCH  19  22
ENDBRANCH   1  18
TORSDOF 8
