@<TRIPOS>MOLECULE
*****
 70 72 0 0 0
SMALL
GASTEIGER

@<TRIPOS>ATOM
      1 C          11.4671    5.7268   -0.6890 C.3     1  UNL1       -0.0653
      2 C          10.8969    4.3252   -0.6423 C.3     1  UNL1       -0.0559
      3 C          10.7156    3.8613    0.7787 C.3     1  UNL1       -0.0533
      4 C          10.1741    2.4220    0.7897 C.3     1  UNL1       -0.0516
      5 C          10.0277    2.0250    2.2201 C.3     1  UNL1       -0.0371
      6 C           9.3431    0.7652    2.6691 C.3     1  UNL1        0.0161
      7 N           9.1153    0.7319    4.1387 N.am    1  UNL1       -0.2817
      8 C          10.0117    1.4601    4.9751 C.2     1  UNL1        0.2475
      9 O          10.7634    0.9003    5.7628 O.2     1  UNL1       -0.2700
     10 C          10.1385    2.9853    4.9444 C.ar    1  UNL1        0.0371
     11 C           9.3180    3.9076    4.2787 C.ar    1  UNL1       -0.0469
     12 C           9.8971    5.0959    3.7925 C.ar    1  UNL1       -0.0257
     13 C          11.1831    5.4533    4.1773 C.ar    1  UNL1        0.1234
     14 F          11.7737    6.5248    3.6338 F       1  UNL1       -0.2055
     15 C          11.8681    4.6916    5.1042 C.ar    1  UNL1       -0.0257
     16 C          11.3450    3.4596    5.4831 C.ar    1  UNL1       -0.0469
     17 C           8.5337   -0.5783    4.6577 C.3     1  UNL1        0.1344
     18 C           7.0073   -0.6977    4.3632 C.2     1  UNL1        0.2386
     19 O           6.2029   -0.6717    5.2861 O.2     1  UNL1       -0.2734
     20 N           6.5736   -0.9062    3.0585 N.am    1  UNL1       -0.3106
     21 C           5.1334   -0.8781    2.7453 C.3     1  UNL1        0.0232
     22 C           4.4242   -2.1978    3.0972 C.3     1  UNL1       -0.0345
     23 C           2.9035   -2.1033    2.9349 C.3     1  UNL1       -0.0514
     24 C           2.3251   -0.9225    3.7063 C.3     1  UNL1       -0.0529
     25 C           2.9528    0.3859    3.2404 C.3     1  UNL1       -0.0514
     26 C           4.4560    0.3419    3.4017 C.3     1  UNL1       -0.0345
     27 C           8.6710   -0.9128    6.1564 C.ar    1  UNL1        0.0648
     28 C           8.7092   -2.2357    6.6343 C.ar    1  UNL1        0.1292
     29 O           8.5094   -3.3452    5.8543 O.3     1  UNL1       -0.5062
     30 C           8.9263   -2.5065    7.9929 C.ar    1  UNL1        0.0219
     31 C           9.1978   -1.4614    8.8670 C.ar    1  UNL1        0.1238
     32 O           9.5014   -1.6502   10.1803 O.3     1  UNL1       -0.5065
     33 C           9.1028   -0.1584    8.4399 C.ar    1  UNL1        0.0219
     34 C           8.6746    0.0854    7.1450 C.ar    1  UNL1        0.1292
     35 O           8.3045    1.3746    6.8705 O.3     1  UNL1       -0.5062
     36 H          11.5936    6.0303   -1.7304 H       1  UNL1        0.0230
     37 H          12.4400    5.7712   -0.1893 H       1  UNL1        0.0230
     38 H          10.7996    6.4430   -0.1974 H       1  UNL1        0.0230
     39 H          11.5567    3.6263   -1.1627 H       1  UNL1        0.0263
     40 H           9.9190    4.3093   -1.1354 H       1  UNL1        0.0263
     41 H           9.9931    4.5380    1.2475 H       1  UNL1        0.0265
     42 H          11.6497    3.9474    1.3537 H       1  UNL1        0.0265
     43 H          10.8326    1.7353    0.2620 H       1  UNL1        0.0266
     44 H           9.1803    2.4216    0.3308 H       1  UNL1        0.0266
     45 H           9.2981    2.7571    2.5041 H       1  UNL1        0.0280
     46 H          10.9894    2.1513    2.7314 H       1  UNL1        0.0280
     47 H           9.9246   -0.1100    2.3598 H       1  UNL1        0.0465
     48 H           8.3613    0.7245    2.1925 H       1  UNL1        0.0465
     49 H           8.3242    3.6351    3.9196 H       1  UNL1        0.0626
     50 H           9.4028    5.6856    3.0219 H       1  UNL1        0.0646
     51 H          12.8371    5.0056    5.4719 H       1  UNL1        0.0646
     52 H          11.9354    2.8205    6.1348 H       1  UNL1        0.0626
     53 H           9.0499   -1.3712    4.0931 H       1  UNL1        0.0650
     54 H           7.2225   -1.1252    2.3149 H       1  UNL1        0.1490
     55 H           5.0688   -0.7521    1.6551 H       1  UNL1        0.0498
     56 H           4.6548   -2.4886    4.1287 H       1  UNL1        0.0283
     57 H           4.8015   -3.0087    2.4602 H       1  UNL1        0.0283
     58 H           2.4361   -3.0321    3.2815 H       1  UNL1        0.0266
     59 H           2.6502   -1.9952    1.8732 H       1  UNL1        0.0266
     60 H           2.5043   -1.0673    4.7806 H       1  UNL1        0.0265
     61 H           1.2402   -0.8726    3.5689 H       1  UNL1        0.0265
     62 H           2.5666    1.2109    3.8507 H       1  UNL1        0.0266
     63 H           2.6972    0.5914    2.1978 H       1  UNL1        0.0266
     64 H           4.5904    0.3422    4.4832 H       1  UNL1        0.0283
     65 H           4.9293    1.2637    3.0473 H       1  UNL1        0.0283
     66 H           8.1507   -3.1061    4.9883 H       1  UNL1        0.2922
     67 H           8.8880   -3.5315    8.3432 H       1  UNL1        0.0691
     68 H           9.3461   -2.5817   10.3968 H       1  UNL1        0.2921
     69 H           9.3241    0.6614    9.1128 H       1  UNL1        0.0691
     70 H           9.0364    1.9102    7.2278 H       1  UNL1        0.2922
@<TRIPOS>BOND
     1     1     2    1
     2     2     3    1
     3     3     4    1
     4     4     5    1
     5     5     6    1
     6     6     7    1
     7     7     8   am
     8     8     9    2
     9     8    10    1
    10    10    11   ar
    11    11    12   ar
    12    12    13   ar
    13    13    14    1
    14    13    15   ar
    15    15    16   ar
    16    10    16   ar
    17    18    19    2
    18    18    20   am
    19    20    21    1
    20    21    22    1
    21    22    23    1
    22    23    24    1
    23    24    25    1
    24    25    26    1
    25    21    26    1
    26    17    27    1
    27    27    28   ar
    28    28    29    1
    29    28    30   ar
    30    30    31   ar
    31    31    32    1
    32    31    33   ar
    33    33    34   ar
    34    27    34   ar
    35    34    35    1
    36    17    18    1
    37    17     7    1
    38     1    36    1
    39     1    37    1
    40     1    38    1
    41     2    39    1
    42     2    40    1
    43     3    41    1
    44     3    42    1
    45     4    43    1
    46     4    44    1
    47     5    45    1
    48     5    46    1
    49     6    47    1
    50     6    48    1
    51    11    49    1
    52    12    50    1
    53    15    51    1
    54    16    52    1
    55    17    53    1
    56    20    54    1
    57    21    55    1
    58    22    56    1
    59    22    57    1
    60    23    58    1
    61    23    59    1
    62    24    60    1
    63    24    61    1
    64    25    62    1
    65    25    63    1
    66    26    64    1
    67    26    65    1
    68    29    66    1
    69    30    67    1
    70    32    68    1
    71    33    69    1
    72    35    70    1
