@<TRIPOS>MOLECULE
*****
 69 73 0 0 0
SMALL
GASTEIGER

@<TRIPOS>ATOM
      1 C           2.6243    0.3697    0.7240 C.3     1  UNL1        0.0122
      2 C           4.1126    0.6670    0.8248 C.2     1  UNL1        0.2104
      3 O           4.5808    1.5110    1.5129 O.2     1  UNL1       -0.2761
      4 N           4.9844   -0.0268    0.0617 N.am    1  UNL1       -0.3043
      5 C           4.6793   -1.2560   -0.5719 C.3     1  UNL1        0.1138
      6 C           5.2844   -1.4253   -1.9818 C.3     1  UNL1        0.2231
      7 O           4.9518   -0.3958   -2.9561 O.3     1  UNL1       -0.4616
      8 C           5.1296    0.8961   -2.5140 C.ar    1  UNL1        0.1242
      9 C           6.3754    1.4636   -2.2805 C.ar    1  UNL1       -0.0195
     10 C           6.4469    2.6294   -1.5037 C.ar    1  UNL1       -0.0546
     11 C           5.2926    3.2417   -0.9554 C.ar    1  UNL1       -0.0406
     12 C           4.0320    2.7535   -1.3337 C.ar    1  UNL1       -0.0404
     13 C           3.9707    1.5863   -2.1333 C.ar    1  UNL1       -0.0164
     14 C           2.7728    3.2449   -0.6468 C.3     1  UNL1       -0.0270
     15 C           2.8851    4.4551    0.2923 C.3     1  UNL1       -0.0454
     16 C           4.1759    4.3270    1.1336 C.3     1  UNL1       -0.0302
     17 C           5.3852    4.3474    0.1013 C.3     1  UNL1       -0.0124
     18 C           6.7711    4.3935    0.7629 C.3     1  UNL1       -0.0450
     19 C           6.8491    5.5468    1.7344 C.3     1  UNL1       -0.0401
     20 C           5.7778    5.4364    2.7471 C.3     1  UNL1        0.0293
     21 C           5.7591    6.6842    3.7157 C.3     1  UNL1       -0.0526
     22 C           5.9812    4.0518    3.4056 C.2     1  UNL1        0.1395
     23 O           6.1357    2.9322    2.9582 O.2     1  UNL1       -0.2968
     24 C           5.4921    4.1765    4.7336 C.3     1  UNL1        0.0067
     25 C           4.0308    4.5665    3.9231 C.3     1  UNL1       -0.0424
     26 C           4.3360    5.2233    2.3999 C.3     1  UNL1       -0.0252
     27 O           4.7657   -2.6963   -2.4458 O.3     1  UNL1       -0.3318
     28 C           5.2311   -3.8060   -1.6567 C.3     1  UNL1        0.1140
     29 C           4.6481   -5.1055   -2.2289 C.3     1  UNL1        0.0731
     30 O           5.1305   -6.2739   -1.5799 O.3     1  UNL1       -0.3924
     31 C           4.8659   -3.7054   -0.1645 C.3     1  UNL1        0.1113
     32 O           5.5898   -4.6680    0.6065 O.3     1  UNL1       -0.3865
     33 C           5.1969   -2.3333    0.3736 C.3     1  UNL1        0.1076
     34 O           4.6716   -2.1868    1.7037 O.3     1  UNL1       -0.3871
     35 H           2.0518    1.1320    1.2614 H       1  UNL1        0.0322
     36 H           2.3954   -0.5795    1.1839 H       1  UNL1        0.0322
     37 H           2.2802    0.3748   -0.3180 H       1  UNL1        0.0322
     38 H           5.9385    0.3125    0.1552 H       1  UNL1        0.1493
     39 H           3.5910   -1.3488   -0.6503 H       1  UNL1        0.0587
     40 H           6.3769   -1.4936   -1.9440 H       1  UNL1        0.1076
     41 H           7.2984    0.9898   -2.6005 H       1  UNL1        0.0654
     42 H           7.4392    2.9924   -1.2479 H       1  UNL1        0.0622
     43 H           3.0240    1.0701   -2.2725 H       1  UNL1        0.0657
     44 H           2.4876    2.4870    0.0558 H       1  UNL1        0.0313
     45 H           1.9254    3.2750   -1.3370 H       1  UNL1        0.0313
     46 H           2.0095    4.4510    0.9555 H       1  UNL1        0.0271
     47 H           2.8640    5.3659   -0.3074 H       1  UNL1        0.0271
     48 H           4.0403    3.3770    1.6109 H       1  UNL1        0.0310
     49 H           5.2980    5.2875   -0.4562 H       1  UNL1        0.0352
     50 H           7.5954    4.5257    0.0660 H       1  UNL1        0.0271
     51 H           7.0045    3.4249    1.2149 H       1  UNL1        0.0271
     52 H           6.7590    6.5000    1.2134 H       1  UNL1        0.0275
     53 H           7.8042    5.5225    2.2736 H       1  UNL1        0.0275
     54 H           6.6972    6.7958    4.2579 H       1  UNL1        0.0239
     55 H           4.9941    6.6353    4.5118 H       1  UNL1        0.0239
     56 H           5.5064    7.5990    3.1770 H       1  UNL1        0.0239
     57 H           6.3062    4.8833    5.0246 H       1  UNL1        0.0342
     58 H           5.7756    3.2070    5.1698 H       1  UNL1        0.0342
     59 H           3.4718    5.3200    4.4898 H       1  UNL1        0.0272
     60 H           3.3802    3.6951    3.8125 H       1  UNL1        0.0272
     61 H           3.8003    6.1671    2.2146 H       1  UNL1        0.0313
     62 H           6.3222   -3.8440   -1.7519 H       1  UNL1        0.0647
     63 H           4.8848   -5.1898   -3.2910 H       1  UNL1        0.0584
     64 H           3.5554   -5.0979   -2.1403 H       1  UNL1        0.0584
     65 H           6.0968   -6.2104   -1.5008 H       1  UNL1        0.2095
     66 H           3.7945   -3.8913   -0.0108 H       1  UNL1        0.0646
     67 H           6.5317   -4.4271    0.5961 H       1  UNL1        0.2100
     68 H           6.2831   -2.2213    0.4861 H       1  UNL1        0.0641
     69 H           3.7013   -2.1952    1.6683 H       1  UNL1        0.2100
@<TRIPOS>BOND
     1     1     2    1
     2     2     3    2
     3     2     4   am
     4     5     6    1
     5     6     7    1
     6     8     9   ar
     7     9    10   ar
     8    10    11   ar
     9    11    12   ar
    10    12    13   ar
    11     8    13   ar
    12    12    14    1
    13    14    15    1
    14    15    16    1
    15    16    17    1
    16    11    17    1
    17    17    18    1
    18    18    19    1
    19    19    20    1
    20    20    22    1
    21    22    24    1
    22    24    25    1
    23    25    26    1
    24    16    26    1
    25    20    26    1
    26     6    27    1
    27    27    28    1
    28    28    29    1
    29    29    30    1
    30    28    31    1
    31    31    32    1
    32    31    33    1
    33     5    33    1
    34    33    34    1
    35     7     8    1
    36    20    21    1
    37    22    23    2
    38     5     4    1
    39     1    35    1
    40     1    36    1
    41     1    37    1
    42     4    38    1
    43     5    39    1
    44     6    40    1
    45     9    41    1
    46    10    42    1
    47    13    43    1
    48    14    44    1
    49    14    45    1
    50    15    46    1
    51    15    47    1
    52    16    48    1
    53    17    49    1
    54    18    50    1
    55    18    51    1
    56    19    52    1
    57    19    53    1
    58    21    54    1
    59    21    55    1
    60    21    56    1
    61    24    57    1
    62    24    58    1
    63    25    59    1
    64    25    60    1
    65    26    61    1
    66    28    62    1
    67    29    63    1
    68    29    64    1
    69    30    65    1
    70    31    66    1
    71    32    67    1
    72    33    68    1
    73    34    69    1
