@<TRIPOS>MOLECULE
*****
 57 58 0 0 0
SMALL
GASTEIGER

@<TRIPOS>ATOM
      1 C           0.9217    0.0673    0.0021 C.3     1  UNL1       -0.0652
      2 C           2.4377    0.0697    0.0039 C.3     1  UNL1       -0.0528
      3 C           2.9804    1.2102    0.8514 C.3     1  UNL1       -0.0189
      4 C           4.5011    1.2065    0.8316 C.3     1  UNL1        0.0896
      5 O           4.9344    2.2896    1.6506 O.3     1  UNL1       -0.4912
      6 C           6.2958    2.3430    1.7734 C.ar    1  UNL1        0.1327
      7 C           7.1420    2.4173    0.6543 C.ar    1  UNL1       -0.0181
      8 C           8.5164    2.6402    0.8003 C.ar    1  UNL1       -0.0443
      9 C           9.0474    2.8329    2.0652 C.ar    1  UNL1        0.0188
     10 BR         10.8722    3.2823    2.2697 Br      1  UNL1       -0.0503
     11 C           8.2257    2.7038    3.1813 C.ar    1  UNL1       -0.0321
     12 C           6.8407    2.4212    3.0500 C.ar    1  UNL1        0.0797
     13 C           6.0749    2.1791    4.3135 C.2     1  UNL1        0.2531
     14 O           6.7743    2.1780    5.3270 O.2     1  UNL1       -0.2697
     15 N           4.6586    2.0986    4.3316 N.am    1  UNL1       -0.2635
     16 C           3.8445    1.9426    5.4866 C.2     1  UNL1        0.1411
     17 S           4.4380    1.6070    7.0294 S.2     1  UNL1       -0.0182
     18 N           2.4655    2.1969    5.2333 N.am    1  UNL1       -0.2960
     19 C           1.5033    2.3951    6.2975 C.ar    1  UNL1        0.0448
     20 C           0.4444    1.4691    6.4454 C.ar    1  UNL1       -0.0398
     21 C          -0.4910    1.5909    7.4901 C.ar    1  UNL1       -0.0600
     22 C          -0.3604    2.6108    8.4254 C.ar    1  UNL1       -0.0609
     23 C           0.6645    3.5478    8.2777 C.ar    1  UNL1       -0.0478
     24 C           1.5880    3.4779    7.2085 C.ar    1  UNL1        0.0578
     25 C           2.5986    4.5943    7.1315 C.2     1  UNL1        0.2459
     26 O           2.7587    5.3500    8.0989 O.2     1  UNL1       -0.2701
     27 N           3.3234    4.7492    5.9667 N.am    1  UNL1       -0.3112
     28 C           4.5688    5.5023    5.9411 C.3     1  UNL1        0.0140
     29 C           5.4260    5.1836    4.7308 C.3     1  UNL1       -0.0141
     30 C           6.6577    6.0462    4.5754 C.3     1  UNL1        0.0456
     31 O           7.3413    5.6877    3.3803 O.3     1  UNL1       -0.3950
     32 H           0.5467   -0.7572   -0.6107 H       1  UNL1        0.0230
     33 H           0.5323    1.0048   -0.4072 H       1  UNL1        0.0230
     34 H           0.5322   -0.0534    1.0178 H       1  UNL1        0.0230
     35 H           2.8040    0.1653   -1.0250 H       1  UNL1        0.0264
     36 H           2.8053   -0.8872    0.3923 H       1  UNL1        0.0264
     37 H           2.6203    1.1299    1.8850 H       1  UNL1        0.0298
     38 H           2.6119    2.1758    0.4808 H       1  UNL1        0.0298
     39 H           4.8461    1.3285   -0.1994 H       1  UNL1        0.0696
     40 H           4.8816    0.2653    1.2457 H       1  UNL1        0.0696
     41 H           6.7520    2.3203   -0.3540 H       1  UNL1        0.0655
     42 H           9.1559    2.6874   -0.0777 H       1  UNL1        0.0630
     43 H           8.6566    2.8792    4.1690 H       1  UNL1        0.0637
     44 H           4.2063    2.3061    3.4472 H       1  UNL1        0.1568
     45 H           2.0708    1.8516    4.3645 H       1  UNL1        0.1539
     46 H           0.3682    0.5890    5.8105 H       1  UNL1        0.0636
     47 H          -1.3105    0.8792    7.5952 H       1  UNL1        0.0618
     48 H          -1.0458    2.6791    9.2701 H       1  UNL1        0.0618
     49 H           0.7415    4.3506    9.0111 H       1  UNL1        0.0626
     50 H           3.1451    4.0858    5.2267 H       1  UNL1        0.1490
     51 H           5.1385    5.2399    6.8425 H       1  UNL1        0.0463
     52 H           4.3161    6.5601    5.9699 H       1  UNL1        0.0463
     53 H           4.8639    5.0689    3.7946 H       1  UNL1        0.0302
     54 H           5.8384    4.2209    4.9513 H       1  UNL1        0.0302
     55 H           7.3396    5.8855    5.4183 H       1  UNL1        0.0557
     56 H           6.3977    7.0988    4.5004 H       1  UNL1        0.0557
     57 H           7.8996    4.9274    3.6080 H       1  UNL1        0.2094
@<TRIPOS>BOND
     1     1     2    1
     2     2     3    1
     3     3     4    1
     4     4     5    1
     5     5     6    1
     6     6     7   ar
     7     7     8   ar
     8     8     9   ar
     9     9    10    1
    10     9    11   ar
    11    11    12   ar
    12     6    12   ar
    13    12    13    1
    14    13    14    2
    15    13    15   am
    16    15    16    1
    17    16    17    2
    18    16    18    1
    19    18    19    1
    20    19    20   ar
    21    20    21   ar
    22    21    22   ar
    23    22    23   ar
    24    23    24   ar
    25    19    24   ar
    26    24    25    1
    27    25    26    2
    28    25    27   am
    29    27    28    1
    30    28    29    1
    31    29    30    1
    32    30    31    1
    33     1    32    1
    34     1    33    1
    35     1    34    1
    36     2    35    1
    37     2    36    1
    38     3    37    1
    39     3    38    1
    40     4    39    1
    41     4    40    1
    42     7    41    1
    43     8    42    1
    44    11    43    1
    45    15    44    1
    46    18    45    1
    47    20    46    1
    48    21    47    1
    49    22    48    1
    50    23    49    1
    51    27    50    1
    52    28    51    1
    53    28    52    1
    54    29    53    1
    55    29    54    1
    56    30    55    1
    57    30    56    1
    58    31    57    1
