REMARK  9 active torsions:
REMARK  status: ('A' for Active; 'I' for Inactive)
REMARK    1  A    between atoms: C_2  and  C_5 
REMARK    2  A    between atoms: C_10  and  O_11 
REMARK    3  A    between atoms: O_11  and  C_12 
REMARK    4  A    between atoms: C_12  and  C_13 
REMARK       I    between atoms: C_13  and  N_15 
REMARK    5  A    between atoms: N_15  and  N_16 
REMARK       I    between atoms: N_16  and  C_17 
REMARK       I    between atoms: C_17  and  N_19 
REMARK    6  A    between atoms: N_19  and  C_20 
REMARK    7  A    between atoms: C_20  and  C_21 
REMARK    8  A    between atoms: C_21  and  C_22 
REMARK    9  A    between atoms: C_22  and  N_23 
ROOT
ATOM      1  C   UNL d   1       0.671   3.741   1.159  0.00  0.00     0.260 C 
ATOM      2  O   UNL d   1       0.615   4.902   0.802  0.00  0.00    -0.269 OA
ATOM      3  N   UNL d   1       0.180   3.288   2.399  0.00  0.00    -0.264 N 
ATOM      4  H   UNL d   1       0.254   2.333   2.756  0.00  0.00     0.190 HD
ENDROOT
BRANCH   3   5
ATOM      5  N   UNL d   1      -0.445   4.227   3.217  0.00  0.00    -0.249 N 
ATOM      6  C   UNL d   1      -0.992   3.850   4.426  0.00  0.00     0.334 C 
ATOM      7  O   UNL d   1      -0.931   2.716   4.880  0.00  0.00    -0.246 OA
ATOM      8  N   UNL d   1      -1.617   4.892   5.076  0.00  0.00    -0.342 N 
ATOM      9  H   UNL d   1      -1.622   5.794   4.622  0.00  0.00     0.164 HD
ATOM     10  H   UNL d   1      -0.507   5.157   2.819  0.00  0.00     0.192 HD
BRANCH   8  11
ATOM     11  C   UNL d   1      -2.250   4.695   6.370  0.00  0.00     0.126 C 
BRANCH  11  12
ATOM     12  C   UNL d   1      -2.870   5.976   6.906  0.00  0.00     0.040 C 
BRANCH  12  13
ATOM     13  C   UNL d   1      -3.522   5.808   8.283  0.00  0.00     0.130 C 
BRANCH  13  14
ATOM     14  N   UNL d   1      -4.074   7.087   8.792  0.00  0.00    -0.352 N 
ATOM     15  C   UNL d   1      -3.582   8.360   8.511  0.00  0.00     0.108 A 
ATOM     16  C   UNL d   1      -4.354   9.255   9.187  0.00  0.00     0.106 A 
ATOM     17  N   UNL d   1      -5.279   8.513   9.877  0.00  0.00    -0.361 N 
ATOM     18  C   UNL d   1      -5.112   7.206   9.642  0.00  0.00     0.182 A 
ATOM     19  H   UNL d   1      -5.994   8.901  10.489  0.00  0.00     0.166 HD
ENDBRANCH  13  14
ENDBRANCH  12  13
ENDBRANCH  11  12
ENDBRANCH   8  11
ENDBRANCH   3   5
BRANCH   1  20
ATOM     20  C   UNL d   1       1.232   2.596   0.324  0.00  0.00     0.280 C 
BRANCH  20  21
ATOM     21  O   UNL d   1       2.007   2.805  -0.862  0.00  0.00    -0.341 OA
BRANCH  21  22
ATOM     22  C   UNL d   1       2.639   1.833  -1.638  0.00  0.00     0.076 A 
ATOM     23  C   UNL d   1       3.157   2.296  -2.865  0.00  0.00     0.037 A 
ATOM     24  C   UNL d   1       3.840   1.450  -3.770  0.00  0.00     0.003 A 
ATOM     25  C   UNL d   1       4.030   0.111  -3.476  0.00  0.00     0.001 A 
ATOM     26  C   UNL d   1       3.510  -0.381  -2.293  0.00  0.00     0.011 A 
ATOM     27  C   UNL d   1       2.874   0.468  -1.345  0.00  0.00    -0.017 A 
BRANCH  27  28
ATOM     28  C   UNL d   1       2.506  -0.121  -0.005  0.00  0.00    -0.021 C 
ATOM     29  C   UNL d   1       0.955  -0.277  -0.072  0.00  0.00     0.019 C 
ATOM     30  C   UNL d   1       3.320   0.708   1.055  0.00  0.00     0.019 C 
ATOM     31  C   UNL d   1       2.985  -1.544   0.306  0.00  0.00     0.019 C 
ENDBRANCH  27  28
ENDBRANCH  21  22
ENDBRANCH  20  21
ENDBRANCH   1  20
TORSDOF 9
