@<TRIPOS>MOLECULE
*****
 65 67 0 0 0
SMALL
GASTEIGER

@<TRIPOS>ATOM
      1 C           8.5837   -1.1309   18.8753 C.3     1  UNL1       -0.0627
      2 C           7.9823   -1.0279   17.4775 C.3     1  UNL1       -0.0467
      3 C           6.7275   -0.1495   17.5243 C.3     1  UNL1       -0.0627
      4 C           9.0387   -0.4754   16.5060 C.3     1  UNL1       -0.0507
      5 C           8.4923   -0.3928   15.0898 C.3     1  UNL1       -0.0512
      6 C           9.4933    0.1991   14.1013 C.3     1  UNL1       -0.0348
      7 C           8.8724    0.3271   12.6975 C.3     1  UNL1        0.0203
      8 C           7.6185    1.2144   12.7390 C.3     1  UNL1       -0.0466
      9 N           9.8354    0.8593   11.7347 N.am    1  UNL1       -0.3127
     10 C           9.5007    0.9531   10.3969 C.2     1  UNL1        0.2133
     11 O           8.4182    0.5827    9.9526 O.2     1  UNL1       -0.2758
     12 C          10.5640    1.5635    9.5101 C.3     1  UNL1        0.0263
     13 C          10.0582    1.6680    8.0574 C.3     1  UNL1       -0.0136
     14 C          11.0517    2.2628    7.0502 C.3     1  UNL1        0.1325
     15 N          12.4414    1.7866    7.3144 N.2     1  UNL1       -0.2237
     16 C          12.9824    2.8244    7.8580 C.2     1  UNL1        0.2852
     17 O          14.2383    2.7893    8.3045 O.2     1  UNL1       -0.4813
     18 N          12.2742    3.9540    7.9850 N.am    1  UNL1       -0.2241
     19 C          12.5986    5.1291    8.7910 C.3     1  UNL1        0.0280
     20 C          11.5266    6.2216    8.7697 C.3     1  UNL1       -0.0093
     21 C          11.7898    7.3959    9.6563 C.ar    1  UNL1       -0.0208
     22 C          12.1963    7.3771   10.9756 C.ar    1  UNL1        0.0060
     23 N          12.1952    8.6635   11.4444 N.ar    1  UNL1       -0.3604
     24 C          11.8255    9.5345   10.4467 C.ar    1  UNL1        0.0468
     25 C          11.6787   10.9264   10.4737 C.ar    1  UNL1       -0.0364
     26 C          11.3204   11.5617    9.2805 C.ar    1  UNL1       -0.0414
     27 C          11.1086   10.8260    8.1179 C.ar    1  UNL1        0.0417
     28 CL         10.7128   11.6457    6.6551 Cl      1  UNL1       -0.0835
     29 C          11.2213    9.4333    8.1136 C.ar    1  UNL1       -0.0340
     30 C          11.5935    8.7712    9.3027 C.ar    1  UNL1        0.0042
     31 C          11.1509    3.7572    7.2490 C.2     1  UNL1        0.2478
     32 O          10.3507    4.5834    6.8315 O.2     1  UNL1       -0.2728
     33 H           7.8569   -1.5488   19.5785 H       1  UNL1        0.0232
     34 H           8.8858   -0.1439   19.2422 H       1  UNL1        0.0232
     35 H           9.4665   -1.7780   18.8726 H       1  UNL1        0.0232
     36 H           7.6909   -2.0337   17.1473 H       1  UNL1        0.0295
     37 H           6.9812    0.8731   17.8239 H       1  UNL1        0.0232
     38 H           5.9967   -0.5483   18.2333 H       1  UNL1        0.0232
     39 H           6.2217   -0.1013   16.5556 H       1  UNL1        0.0232
     40 H           9.9295   -1.1145   16.5152 H       1  UNL1        0.0268
     41 H           9.3540    0.5235   16.8333 H       1  UNL1        0.0268
     42 H           7.6157    0.2532   15.1172 H       1  UNL1        0.0266
     43 H           8.1606   -1.3820   14.7518 H       1  UNL1        0.0266
     44 H          10.3912   -0.4298   14.0707 H       1  UNL1        0.0283
     45 H           9.8124    1.1875   14.4567 H       1  UNL1        0.0283
     46 H           8.5913   -0.6746   12.3459 H       1  UNL1        0.0495
     47 H           7.8742    2.2175   13.0954 H       1  UNL1        0.0247
     48 H           6.8379    0.8008   13.3811 H       1  UNL1        0.0247
     49 H           7.1497    1.3207   11.7597 H       1  UNL1        0.0247
     50 H          10.7651    1.1108   12.0470 H       1  UNL1        0.1490
     51 H          11.4478    0.9192    9.5572 H       1  UNL1        0.0359
     52 H          10.8214    2.5532    9.9036 H       1  UNL1        0.0359
     53 H           9.1326    2.2634    8.0477 H       1  UNL1        0.0295
     54 H           9.7759    0.6649    7.7162 H       1  UNL1        0.0295
     55 H          10.7563    2.0508    6.0178 H       1  UNL1        0.0643
     56 H          14.6074    1.9203    8.0649 H       1  UNL1        0.2951
     57 H          13.5785    5.5137    8.4901 H       1  UNL1        0.0473
     58 H          12.7195    4.7574    9.8183 H       1  UNL1        0.0473
     59 H          10.5600    5.7971    9.0765 H       1  UNL1        0.0329
     60 H          11.4078    6.5747    7.7397 H       1  UNL1        0.0329
     61 H          12.4616    6.5577   11.6300 H       1  UNL1        0.0810
     62 H          12.4282    8.9403   12.3879 H       1  UNL1        0.1653
     63 H          11.8429   11.4989   11.3807 H       1  UNL1        0.0639
     64 H          11.2127   12.6434    9.2663 H       1  UNL1        0.0633
     65 H          11.0387    8.8700    7.2033 H       1  UNL1        0.0639
@<TRIPOS>BOND
     1     1     2    1
     2     2     3    1
     3     2     4    1
     4     4     5    1
     5     5     6    1
     6     6     7    1
     7     7     8    1
     8     7     9    1
     9     9    10   am
    10    10    11    2
    11    10    12    1
    12    12    13    1
    13    14    15    1
    14    15    16    2
    15    16    17    1
    16    16    18    1
    17    18    19    1
    18    19    20    1
    19    20    21    1
    20    21    22   ar
    21    22    23   ar
    22    23    24   ar
    23    24    25   ar
    24    25    26   ar
    25    26    27   ar
    26    27    28    1
    27    27    29   ar
    28    29    30   ar
    29    21    30   ar
    30    24    30   ar
    31    18    31   am
    32    14    31    1
    33    31    32    2
    34    14    13    1
    35     1    33    1
    36     1    34    1
    37     1    35    1
    38     2    36    1
    39     3    37    1
    40     3    38    1
    41     3    39    1
    42     4    40    1
    43     4    41    1
    44     5    42    1
    45     5    43    1
    46     6    44    1
    47     6    45    1
    48     7    46    1
    49     8    47    1
    50     8    48    1
    51     8    49    1
    52     9    50    1
    53    12    51    1
    54    12    52    1
    55    13    53    1
    56    13    54    1
    57    14    55    1
    58    17    56    1
    59    19    57    1
    60    19    58    1
    61    20    59    1
    62    20    60    1
    63    22    61    1
    64    23    62    1
    65    25    63    1
    66    26    64    1
    67    29    65    1
