@<TRIPOS>MOLECULE
*****
 62 66 0 0 0
SMALL
GASTEIGER

@<TRIPOS>ATOM
      1 O           7.3461   -1.4160    2.6428 O.2     1  UNL1       -0.2749
      2 C           6.5588   -1.9797    1.8843 C.2     1  UNL1        0.2233
      3 C           5.0405   -2.1047    2.1421 C.3     1  UNL1        0.0735
      4 S           4.5730   -1.2780    3.7183 S.3     1  UNL1       -0.1085
      5 C           2.7762   -1.5849    3.8860 C.3     1  UNL1        0.1563
      6 N           2.2487   -0.7708    4.9772 N.pl3   1  UNL1       -0.3156
      7 C           2.4216   -1.2248    6.2851 C.ar    1  UNL1        0.0414
      8 C           2.3874   -0.3746    7.3951 C.ar    1  UNL1       -0.0400
      9 C           2.4634   -0.8893    8.7046 C.ar    1  UNL1       -0.0600
     10 C           2.5391   -2.2614    8.9290 C.ar    1  UNL1       -0.0609
     11 C           2.5982   -3.1132    7.8416 C.ar    1  UNL1       -0.0478
     12 C           2.5721   -2.5871    6.5424 C.ar    1  UNL1        0.0593
     13 C           2.6768   -3.5114    5.4131 C.2     1  UNL1        0.2669
     14 O           2.9820   -4.6754    5.6794 O.2     1  UNL1       -0.2683
     15 N           2.4273   -2.9799    4.1485 N.am    1  UNL1       -0.1859
     16 N           2.1954   -3.8450    3.0090 N.am    1  UNL1       -0.2292
     17 C           1.6382   -5.1072    3.2070 C.2     1  UNL1        0.2296
     18 O           1.3482   -5.6366    4.2732 O.2     1  UNL1       -0.2743
     19 C           1.3099   -5.8709    1.9539 C.3     1  UNL1        0.0293
     20 C           0.9844   -7.3108    2.3906 C.3     1  UNL1       -0.0165
     21 C           0.6436   -8.2208    1.2744 C.2     1  UNL1        0.0081
     22 C           0.8182   -9.5433    1.2767 C.ar    1  UNL1        0.0509
     23 C           1.2814  -10.4760    2.2474 C.ar    1  UNL1       -0.0482
     24 C           1.3857  -11.7636    1.8872 C.ar    1  UNL1       -0.0608
     25 C           1.0459  -12.2072    0.5418 C.ar    1  UNL1       -0.0555
     26 C           0.5918  -11.3851   -0.4248 C.ar    1  UNL1        0.0098
     27 C           0.4384   -9.9628   -0.0807 C.ar    1  UNL1        0.2086
     28 N           0.0392   -8.9822   -0.7980 N.2     1  UNL1       -0.2369
     29 C           0.0855   -7.7339   -0.0218 C.3     1  UNL1        0.1660
     30 N           7.0807   -2.5306    0.7435 N.am    1  UNL1       -0.3075
     31 C           6.3841   -3.2246   -0.3149 C.3     1  UNL1        0.0698
     32 C           7.3641   -3.7708   -1.2861 C.ar    1  UNL1        0.1218
     33 C           8.2401   -4.8332   -1.2067 C.ar    1  UNL1       -0.0192
     34 C           8.9554   -4.8618   -2.4246 C.ar    1  UNL1       -0.0236
     35 C           8.4542   -3.8323   -3.1868 C.ar    1  UNL1        0.0921
     36 O           7.4781   -3.1670   -2.5067 O.2     1  UNL1       -0.4662
     37 H           4.7924   -3.1679    2.1880 H       1  UNL1        0.0472
     38 H           4.5141   -1.6280    1.3092 H       1  UNL1        0.0472
     39 H           2.2840   -1.2492    2.9659 H       1  UNL1        0.0847
     40 H           2.1829    0.2279    4.8298 H       1  UNL1        0.1487
     41 H           2.3234    0.7026    7.2695 H       1  UNL1        0.0636
     42 H           2.4557   -0.2172    9.5594 H       1  UNL1        0.0618
     43 H           2.5614   -2.6726    9.9348 H       1  UNL1        0.0618
     44 H           2.6560   -4.1895    7.9930 H       1  UNL1        0.0626
     45 H           1.9978   -3.3696    2.1346 H       1  UNL1        0.1731
     46 H           2.1485   -5.8558    1.2503 H       1  UNL1        0.0362
     47 H           0.4317   -5.4056    1.4928 H       1  UNL1        0.0362
     48 H           0.1477   -7.3196    3.1030 H       1  UNL1        0.0317
     49 H           1.8550   -7.7200    2.9254 H       1  UNL1        0.0317
     50 H           1.5300  -10.1444    3.2521 H       1  UNL1        0.0626
     51 H           1.7336  -12.5048    2.6044 H       1  UNL1        0.0618
     52 H           1.1809  -13.2695    0.3464 H       1  UNL1        0.0620
     53 H           0.3562  -11.7517   -1.4157 H       1  UNL1        0.0683
     54 H          -0.2389   -9.0703   -1.7719 H       1  UNL1        0.4459
     55 H          -0.9250   -7.3288    0.0823 H       1  UNL1        0.1077
     56 H           0.7563   -7.0309   -0.5219 H       1  UNL1        0.1077
     57 H           8.0842   -2.3921    0.6519 H       1  UNL1        0.1492
     58 H           5.6650   -2.5402   -0.7734 H       1  UNL1        0.0542
     59 H           5.8317   -4.0509    0.1427 H       1  UNL1        0.0542
     60 H           8.3564   -5.4859   -0.3536 H       1  UNL1        0.0652
     61 H           9.7470   -5.5427   -2.7067 H       1  UNL1        0.0649
     62 H           8.6862   -3.4608   -4.1772 H       1  UNL1        0.1029
@<TRIPOS>UNITY_ATOM_ATTR
28 1
charge 1
@<TRIPOS>BOND
     1     1     2    2
     2     2     3    1
     3     3     4    1
     4     5     6    1
     5     6     7    1
     6     7     8   ar
     7     8     9   ar
     8     9    10   ar
     9    10    11   ar
    10    11    12   ar
    11     7    12   ar
    12    12    13    1
    13    13    14    2
    14    13    15   am
    15     5    15    1
    16    15    16    1
    17    16    17   am
    18    17    18    2
    19    17    19    1
    20    19    20    1
    21    20    21    1
    22    21    22    2
    23    22    23   ar
    24    23    24   ar
    25    24    25   ar
    26    25    26   ar
    27    26    27   ar
    28    22    27   ar
    29    27    28    2
    30    28    29    1
    31    21    29    1
    32     2    30   am
    33    30    31    1
    34    31    32    1
    35    32    33   ar
    36    33    34   ar
    37    34    35   ar
    38    35    36   ar
    39    32    36   ar
    40     5     4    1
    41     3    37    1
    42     3    38    1
    43     5    39    1
    44     6    40    1
    45     8    41    1
    46     9    42    1
    47    10    43    1
    48    11    44    1
    49    16    45    1
    50    19    46    1
    51    19    47    1
    52    20    48    1
    53    20    49    1
    54    23    50    1
    55    24    51    1
    56    25    52    1
    57    26    53    1
    58    28    54    1
    59    29    55    1
    60    29    56    1
    61    30    57    1
    62    31    58    1
    63    31    59    1
    64    33    60    1
    65    34    61    1
    66    35    62    1
