REMARK  9 active torsions:
REMARK  status: ('A' for Active; 'I' for Inactive)
REMARK    1  A    between atoms: C_2  and  C_3 
REMARK       I    between atoms: C_2  and  N_30 
REMARK    2  A    between atoms: C_3  and  S_4 
REMARK    3  A    between atoms: S_4  and  C_5 
REMARK    4  A    between atoms: N_15  and  N_16 
REMARK       I    between atoms: N_16  and  C_17 
REMARK    5  A    between atoms: C_17  and  C_19 
REMARK    6  A    between atoms: C_19  and  C_20 
REMARK    7  A    between atoms: C_20  and  C_21 
REMARK    8  A    between atoms: N_30  and  C_31 
REMARK    9  A    between atoms: C_31  and  C_32 
ROOT
ATOM      1  C   UNL d   1       2.742   4.079   0.864  0.00  0.00     0.274 C 
ATOM      2  N   UNL d   1       2.081   5.266   0.347  0.00  0.00    -0.358 N 
ATOM      3  C   UNL d   1       2.431   6.519   0.826  0.00  0.00     0.046 A 
ATOM      4  C   UNL d   1       2.136   7.702   0.147  0.00  0.00     0.030 A 
ATOM      5  C   UNL d   1       2.511   8.956   0.674  0.00  0.00     0.002 A 
ATOM      6  C   UNL d   1       3.166   9.054   1.899  0.00  0.00     0.001 A 
ATOM      7  C   UNL d   1       3.495   7.894   2.569  0.00  0.00     0.019 A 
ATOM      8  C   UNL d   1       3.161   6.654   2.007  0.00  0.00     0.060 A 
ATOM      9  C   UNL d   1       3.558   5.450   2.721  0.00  0.00     0.277 C 
ATOM     10  O   UNL d   1       4.382   5.584   3.629  0.00  0.00    -0.266 OA
ATOM     11  N   UNL d   1       2.946   4.272   2.305  0.00  0.00    -0.221 N 
ATOM     12  H   UNL d   1       1.393   5.160  -0.386  0.00  0.00     0.162 HD
ENDROOT
BRANCH  11  13
ATOM     13  N   UNL d   1       3.064   3.113   3.129  0.00  0.00    -0.262 N 
ATOM     14  C   UNL d   1       3.075   3.271   4.520  0.00  0.00     0.236 C 
ATOM     15  O   UNL d   1       3.121   4.291   5.193  0.00  0.00    -0.272 OA
ATOM     16  H   UNL d   1       2.567   2.301   2.762  0.00  0.00     0.190 HD
BRANCH  14  17
ATOM     17  C   UNL d   1       3.055   1.973   5.230  0.00  0.00     0.109 C 
BRANCH  17  18
ATOM     18  C   UNL d   1       3.381   2.168   6.712  0.00  0.00     0.046 C 
BRANCH  18  19
ATOM     19  C   UNL d   1       3.336   0.899   7.486  0.00  0.00    -0.050 A 
ATOM     20  C   UNL d   1       3.446  -0.352   7.025  0.00  0.00    -0.006 A 
ATOM     21  C   UNL d   1       3.633  -0.940   5.739  0.00  0.00     0.014 A 
ATOM     22  C   UNL d   1       3.357  -1.195   8.228  0.00  0.00     0.038 A 
ATOM     23  C   UNL d   1       3.736  -2.263   5.620  0.00  0.00     0.001 A 
ATOM     24  C   UNL d   1       3.656  -3.118   6.780  0.00  0.00     0.002 A 
ATOM     25  C   UNL d   1       3.474  -2.656   8.034  0.00  0.00     0.030 A 
ATOM     26  N   UNL d   1       3.194  -0.508   9.295  0.00  0.00    -0.385 N 
ATOM     27  C   UNL d   1       3.154   0.935   8.978  0.00  0.00     0.155 A 
ATOM     28  H   UNL d   1       3.111  -0.915  10.224  0.00  0.00     0.160 HD
ENDBRANCH  18  19
ENDBRANCH  17  18
ENDBRANCH  14  17
ENDBRANCH  11  13
BRANCH   1  29
ATOM     29  S   UNL d   1       1.708   2.627   0.450  0.00  0.00    -0.112 SA
BRANCH  29  30
ATOM     30  C   UNL d   1       2.955   1.278   0.191  0.00  0.00     0.180 C 
BRANCH  30  31
ATOM     31  C   UNL d   1       2.249  -0.070  -0.057  0.00  0.00     0.227 C 
ATOM     32  O   UNL d   1       1.028  -0.219  -0.044  0.00  0.00    -0.273 OA
ATOM     33  N   UNL d   1       3.013  -1.187  -0.267  0.00  0.00    -0.356 N 
ATOM     34  H   UNL d   1       2.463  -2.013  -0.487  0.00  0.00     0.162 HD
BRANCH  33  35
ATOM     35  C   UNL d   1       4.459  -1.300  -0.294  0.00  0.00     0.161 C 
BRANCH  35  36
ATOM     36  C   UNL d   1       4.929  -2.704  -0.593  0.00  0.00    -0.041 C 
ATOM     37  C   UNL d   1       5.944  -2.926  -1.536  0.00  0.00     0.009 C 
ATOM     38  C   UNL d   1       6.265  -4.225  -1.940  0.00  0.00     0.001 C 
ATOM     39  C   UNL d   1       5.667  -5.317  -1.319  0.00  0.00     0.000 C 
ATOM     40  C   UNL d   1       4.773  -5.112  -0.272  0.00  0.00     0.001 C 
ATOM     41  C   UNL d   1       4.378  -3.816   0.065  0.00  0.00     0.009 C 
ENDBRANCH  35  36
ENDBRANCH  33  35
ENDBRANCH  30  31
ENDBRANCH  29  30
ENDBRANCH   1  29
TORSDOF 9
