@<TRIPOS>MOLECULE
*****
 65 67 0 0 0
SMALL
GASTEIGER

@<TRIPOS>ATOM
      1 C           0.9958   -8.7560   -0.0294 C.3     1  UNL1       -0.0376
      2 C           0.3540   -7.4013   -0.0151 C.ar    1  UNL1       -0.0149
      3 C          -1.0027   -7.0900   -0.0117 C.ar    1  UNL1        0.1018
      4 C          -2.1831   -7.9131    0.0553 C.2     1  UNL1        0.3465
      5 O          -3.3328   -7.4820    0.1726 O.2     1  UNL1       -0.2444
      6 O          -1.8632   -9.2292   -0.0142 O.3     1  UNL1       -0.4581
      7 C          -2.9613  -10.1504    0.0154 C.3     1  UNL1        0.0978
      8 C          -3.8160   -9.9729   -1.2335 C.3     1  UNL1       -0.0280
      9 C          -2.3981  -11.5701    0.0369 C.3     1  UNL1       -0.0280
     10 S          -1.2902   -5.3920   -0.0666 S.2     1  UNL1       -0.0617
     11 C           0.3486   -5.0504    0.0277 C.ar    1  UNL1        0.1166
     12 N           0.8116   -3.7822   -0.0019 N.ar    1  UNL1       -0.2211
     13 C           2.0599   -3.6715    0.3176 C.ar    1  UNL1        0.1564
     14 C           2.7088   -2.3061    0.0627 C.3     1  UNL1        0.0278
     15 N           4.2428   -2.2745   -0.1257 N.4     1  UNL1        0.2443
     16 C           4.7228   -2.8769   -1.4957 C.3     1  UNL1       -0.0013
     17 C           4.2807   -4.2988   -1.7681 C.3     1  UNL1        0.1286
     18 O           5.2654   -5.2450   -1.4187 O.3     1  UNL1       -0.3831
     19 C           3.3040   -4.5718   -2.8908 C.3     1  UNL1        0.1204
     20 O           2.2603   -3.5915   -2.7158 O.3     1  UNL1       -0.4892
     21 C           1.2931   -3.6568   -3.6690 C.ar    1  UNL1        0.1207
     22 C           0.9538   -2.4526   -4.2751 C.ar    1  UNL1       -0.0186
     23 C           0.2385   -2.4824   -5.4655 C.ar    1  UNL1       -0.0399
     24 C          -0.3985   -3.6591   -5.8501 C.ar    1  UNL1        0.0412
     25 CL         -1.4570   -3.6474   -7.2015 Cl      1  UNL1       -0.0835
     26 C          -0.2176   -4.8313   -5.1199 C.ar    1  UNL1       -0.0399
     27 C           0.6890   -4.8467   -4.0642 C.ar    1  UNL1       -0.0186
     28 C           4.7922   -0.8374   -0.0521 C.3     1  UNL1       -0.0261
     29 C           4.3320   -0.1207    1.2126 C.3     1  UNL1       -0.0218
     30 C           6.3227   -0.8891   -0.0597 C.3     1  UNL1       -0.0218
     31 N           2.8265   -4.7360    0.7889 N.ar    1  UNL1       -0.3061
     32 C           2.5040   -6.0157    0.3643 C.ar    1  UNL1        0.2602
     33 O           3.3617   -6.8503    0.0943 O.2     1  UNL1       -0.2671
     34 C           1.1033   -6.1937    0.1246 C.ar    1  UNL1        0.0756
     35 H           0.2856   -9.5776   -0.0227 H       1  UNL1        0.0278
     36 H           1.6310   -8.8867    0.8524 H       1  UNL1        0.0278
     37 H           1.6082   -8.8813   -0.9295 H       1  UNL1        0.0278
     38 H          -3.5369   -9.9838    0.9335 H       1  UNL1        0.0728
     39 H          -3.2080  -10.1149   -2.1335 H       1  UNL1        0.0265
     40 H          -4.2337   -8.9664   -1.3091 H       1  UNL1        0.0265
     41 H          -4.6503  -10.6754   -1.2357 H       1  UNL1        0.0265
     42 H          -1.7790  -11.7633   -0.8473 H       1  UNL1        0.0265
     43 H          -3.2101  -12.3043    0.0553 H       1  UNL1        0.0265
     44 H          -1.7588  -11.7356    0.9103 H       1  UNL1        0.0265
     45 H           2.4357   -1.7112    0.9327 H       1  UNL1        0.0897
     46 H           2.2894   -1.8201   -0.8288 H       1  UNL1        0.0897
     47 H           4.6571   -2.7845    0.6636 H       1  UNL1        0.2041
     48 H           5.8073   -2.9292   -1.4128 H       1  UNL1        0.0841
     49 H           4.4089   -2.1804   -2.2731 H       1  UNL1        0.0841
     50 H           3.5845   -4.4575   -1.0177 H       1  UNL1        0.0681
     51 H           5.8629   -5.4181   -2.1637 H       1  UNL1        0.2102
     52 H           2.9031   -5.5837   -2.7414 H       1  UNL1        0.0725
     53 H           3.7847   -4.4841   -3.8633 H       1  UNL1        0.0725
     54 H           1.2758   -1.5025   -3.8601 H       1  UNL1        0.0654
     55 H           0.1827   -1.5919   -6.0848 H       1  UNL1        0.0633
     56 H          -0.7540   -5.7376   -5.3846 H       1  UNL1        0.0633
     57 H           0.8935   -5.7847   -3.5583 H       1  UNL1        0.0654
     58 H           4.4148   -0.3164   -0.9397 H       1  UNL1        0.0846
     59 H           4.6407   -0.6642    2.1112 H       1  UNL1        0.0284
     60 H           3.2503    0.0273    1.2461 H       1  UNL1        0.0284
     61 H           4.7642    0.8839    1.2473 H       1  UNL1        0.0284
     62 H           6.6973   -1.4699    0.7907 H       1  UNL1        0.0284
     63 H           6.7399    0.1189   -0.0123 H       1  UNL1        0.0284
     64 H           6.7339   -1.3258   -0.9725 H       1  UNL1        0.0284
     65 H           3.8358   -4.6721    0.8311 H       1  UNL1        0.1702
@<TRIPOS>UNITY_ATOM_ATTR
15 1
charge 1
@<TRIPOS>BOND
     1     1     2    1
     2     2     3   ar
     3     3     4    1
     4     4     5    2
     5     4     6    1
     6     6     7    1
     7     7     8    1
     8     7     9    1
     9     3    10   ar
    10    10    11   ar
    11    11    12   ar
    12    12    13   ar
    13    13    14    1
    14    14    15    1
    15    15    16    1
    16    17    19    1
    17    19    20    1
    18    20    21    1
    19    21    22   ar
    20    22    23   ar
    21    23    24   ar
    22    24    25    1
    23    24    26   ar
    24    26    27   ar
    25    21    27   ar
    26    15    28    1
    27    28    29    1
    28    28    30    1
    29    13    31   ar
    30    31    32   ar
    31    32    33    2
    32    32    34   ar
    33     2    34   ar
    34    11    34   ar
    35    17    18    1
    36    17    16    1
    37     1    35    1
    38     1    36    1
    39     1    37    1
    40     7    38    1
    41     8    39    1
    42     8    40    1
    43     8    41    1
    44     9    42    1
    45     9    43    1
    46     9    44    1
    47    14    45    1
    48    14    46    1
    49    15    47    1
    50    16    48    1
    51    16    49    1
    52    17    50    1
    53    18    51    1
    54    19    52    1
    55    19    53    1
    56    22    54    1
    57    23    55    1
    58    26    56    1
    59    27    57    1
    60    28    58    1
    61    29    59    1
    62    29    60    1
    63    29    61    1
    64    30    62    1
    65    30    63    1
    66    30    64    1
    67    31    65    1
