@<TRIPOS>MOLECULE
*****
 53 54 0 0 0
SMALL
GASTEIGER

@<TRIPOS>ATOM
      1 C           0.9803   -0.0547    0.0799 C.3     1  UNL1       -0.0653
      2 C           2.5034   -0.0603    0.0760 C.3     1  UNL1       -0.0556
      3 C           3.0219    1.2017    0.7493 C.3     1  UNL1       -0.0482
      4 C           4.5426    1.3012    0.7958 C.3     1  UNL1       -0.0131
      5 C           5.0685    2.5750    1.4715 C.2     1  UNL1        0.0338
      6 C           4.0919    3.5890    2.0324 C.3     1  UNL1       -0.0248
      7 N           6.3631    2.7200    1.5328 N.2     1  UNL1       -0.1893
      8 N           6.8961    3.8064    2.1713 N.pl3   1  UNL1       -0.2055
      9 C           8.2351    4.0451    2.1817 C.ar    1  UNL1        0.2317
     10 N           9.1616    3.8283    1.2686 N.ar    1  UNL1       -0.1865
     11 C          10.3214    4.2431    1.8663 C.ar    1  UNL1        0.2101
     12 S          11.9183    4.2200    1.1359 S.3     1  UNL1       -0.0839
     13 C          11.6273    3.6509   -0.5693 C.3     1  UNL1        0.0094
     14 C          12.9499    3.5592   -1.3755 C.3     1  UNL1        0.0337
     15 C          12.6640    3.0820   -2.7944 C.2     1  UNL1        0.2180
     16 O          11.5004    2.8488   -3.1471 O.2     1  UNL1       -0.2754
     17 N          13.7632    2.9001   -3.6335 N.am    1  UNL1       -0.2855
     18 C          13.5989    2.5162   -4.9935 C.ar    1  UNL1        0.0336
     19 C          14.4390    1.5895   -5.6183 C.ar    1  UNL1       -0.0370
     20 C          14.2108    1.2247   -6.9642 C.ar    1  UNL1       -0.0179
     21 C          13.1378    1.7658   -7.6870 C.ar    1  UNL1        0.1301
     22 O          12.9421    1.2798   -8.9517 O.3     1  UNL1       -0.4057
     23 C          11.7873    1.7461   -9.6458 C.3     1  UNL1        0.5752
     24 F          10.6527    1.4959   -8.9548 F       1  UNL1       -0.1328
     25 F          11.8784    3.0718   -9.8933 F       1  UNL1       -0.1328
     26 F          11.6944    1.1086  -10.8345 F       1  UNL1       -0.1328
     27 C          12.3467    2.7294   -7.0730 C.ar    1  UNL1       -0.0179
     28 C          12.5756    3.0932   -5.7464 C.ar    1  UNL1       -0.0370
     29 N          10.1715    4.6914    3.1205 N.ar    1  UNL1       -0.1443
     30 N           8.8458    4.5570    3.2964 N.ar    1  UNL1       -0.2446
     31 H           0.5918   -0.9554   -0.4023 H       1  UNL1        0.0230
     32 H           0.5915    0.8174   -0.4575 H       1  UNL1        0.0230
     33 H           0.5921   -0.0186    1.1038 H       1  UNL1        0.0230
     34 H           2.8673   -0.1121   -0.9556 H       1  UNL1        0.0263
     35 H           2.8681   -0.9466    0.6061 H       1  UNL1        0.0263
     36 H           2.6264    1.2321    1.7726 H       1  UNL1        0.0269
     37 H           2.6211    2.0692    0.2101 H       1  UNL1        0.0269
     38 H           4.9497    1.2648   -0.2221 H       1  UNL1        0.0325
     39 H           4.9516    0.4387    1.3377 H       1  UNL1        0.0325
     40 H           3.0467    3.3221    1.8883 H       1  UNL1        0.0290
     41 H           4.2465    4.5472    1.5307 H       1  UNL1        0.0290
     42 H           4.2491    3.6896    3.1086 H       1  UNL1        0.0290
     43 H           6.2763    4.4708    2.6292 H       1  UNL1        0.1774
     44 H          10.9402    4.3466   -1.0650 H       1  UNL1        0.0385
     45 H          11.1455    2.6670   -0.5408 H       1  UNL1        0.0385
     46 H          13.6413    2.8533   -0.9009 H       1  UNL1        0.0367
     47 H          13.4329    4.5425   -1.4322 H       1  UNL1        0.0367
     48 H          14.6989    2.8794   -3.2447 H       1  UNL1        0.1548
     49 H          15.2199    1.0724   -5.0657 H       1  UNL1        0.0637
     50 H          14.8641    0.4953   -7.4424 H       1  UNL1        0.0655
     51 H          11.5241    3.2255   -7.5771 H       1  UNL1        0.0655
     52 H          11.9328    3.8520   -5.3088 H       1  UNL1        0.0637
     53 H           8.4431    4.7625    4.2028 H       1  UNL1        0.1919
@<TRIPOS>BOND
     1     1     2    1
     2     2     3    1
     3     3     4    1
     4     4     5    1
     5     5     6    1
     6     5     7    2
     7     7     8    1
     8     8     9    1
     9     9    10   ar
    10    10    11   ar
    11    11    12    1
    12    12    13    1
    13    13    14    1
    14    14    15    1
    15    15    16    2
    16    15    17   am
    17    17    18    1
    18    18    19   ar
    19    19    20   ar
    20    20    21   ar
    21    21    22    1
    22    22    23    1
    23    23    24    1
    24    23    25    1
    25    23    26    1
    26    21    27   ar
    27    27    28   ar
    28    18    28   ar
    29    11    29   ar
    30    29    30   ar
    31     9    30   ar
    32     1    31    1
    33     1    32    1
    34     1    33    1
    35     2    34    1
    36     2    35    1
    37     3    36    1
    38     3    37    1
    39     4    38    1
    40     4    39    1
    41     6    40    1
    42     6    41    1
    43     6    42    1
    44     8    43    1
    45    13    44    1
    46    13    45    1
    47    14    46    1
    48    14    47    1
    49    17    48    1
    50    19    49    1
    51    20    50    1
    52    27    51    1
    53    28    52    1
    54    30    53    1
