@<TRIPOS>MOLECULE
*****
 72 73 0 0 0
SMALL
GASTEIGER

@<TRIPOS>ATOM
      1 C           8.8562    3.8976   -0.8351 C.3     1  UNL1       -0.0648
      2 C           8.3730    2.4623   -0.7099 C.3     1  UNL1       -0.0476
      3 C           8.0861    2.1249    0.7330 C.3     1  UNL1        0.0239
      4 C           7.5900    0.7037    0.9654 C.2     1  UNL1        0.2168
      5 O           7.5166   -0.1189    0.0313 O.2     1  UNL1       -0.2756
      6 N           7.2907    0.3911    2.2887 N.am    1  UNL1       -0.2783
      7 C           7.4519    1.4371    3.2997 C.3     1  UNL1        0.0737
      8 C           6.1767    1.7554    3.9966 C.ar    1  UNL1        0.1225
      9 C           4.8954    1.6565    3.5267 C.ar    1  UNL1       -0.0189
     10 C           4.0360    2.0112    4.5642 C.ar    1  UNL1       -0.0207
     11 C           4.8228    2.4570    5.5820 C.ar    1  UNL1        0.1023
     12 C           4.3653    3.0904    6.8272 C.3     1  UNL1       -0.0064
     13 O           6.1479    2.3243    5.2571 O.2     1  UNL1       -0.4633
     14 C           6.8970   -1.0141    2.6786 C.3     1  UNL1        0.1346
     15 C           5.3730   -1.2038    2.5046 C.2     1  UNL1        0.2387
     16 O           4.8983   -1.3231    1.3716 O.2     1  UNL1       -0.2734
     17 N           4.5836   -1.1540    3.6502 N.am    1  UNL1       -0.3085
     18 C           3.1022   -1.1661    3.5931 C.3     1  UNL1        0.0295
     19 C           2.5684   -0.0829    2.6214 C.3     1  UNL1       -0.0440
     20 C           2.7273   -2.5129    2.9745 C.3     1  UNL1       -0.0440
     21 C           2.5094   -1.0107    5.0599 C.3     1  UNL1       -0.0272
     22 C           0.9508   -0.9485    5.2385 C.3     1  UNL1       -0.0358
     23 C           0.3025    0.2727    4.5651 C.3     1  UNL1       -0.0600
     24 C           0.2831   -2.2347    4.7442 C.3     1  UNL1       -0.0600
     25 C           0.5801   -0.8271    6.7290 C.3     1  UNL1       -0.0600
     26 C           7.3978   -1.6802    3.9761 C.ar    1  UNL1        0.0648
     27 C           7.2185   -3.0729    4.1583 C.ar    1  UNL1        0.1292
     28 O           6.6121   -3.9177    3.2607 O.3     1  UNL1       -0.5062
     29 C           7.5781   -3.7110    5.3622 C.ar    1  UNL1        0.0219
     30 C           8.1962   -2.9965    6.3759 C.ar    1  UNL1        0.1238
     31 O           8.5337   -3.4988    7.5894 O.3     1  UNL1       -0.5065
     32 C           8.4209   -1.6640    6.2289 C.ar    1  UNL1        0.0219
     33 C           7.9342   -1.0288    5.1051 C.ar    1  UNL1        0.1292
     34 O           7.8058    0.2848    5.4007 O.3     1  UNL1       -0.5062
     35 H           9.0509    4.1316   -1.8841 H       1  UNL1        0.0230
     36 H           9.7808    4.0549   -0.2687 H       1  UNL1        0.0230
     37 H           8.1062    4.6020   -0.4581 H       1  UNL1        0.0230
     38 H           9.1332    1.7786   -1.0989 H       1  UNL1        0.0267
     39 H           7.4605    2.3247   -1.2976 H       1  UNL1        0.0267
     40 H           7.3249    2.8288    1.0962 H       1  UNL1        0.0358
     41 H           9.0131    2.2536    1.3113 H       1  UNL1        0.0358
     42 H           7.7752    2.4052    2.9374 H       1  UNL1        0.0545
     43 H           8.3827    1.1454    3.7687 H       1  UNL1        0.0545
     44 H           4.6612    1.2617    2.5529 H       1  UNL1        0.0652
     45 H           2.9596    1.9900    4.6210 H       1  UNL1        0.0652
     46 H           3.2634    3.0615    6.8436 H       1  UNL1        0.0308
     47 H           4.6471    4.1440    6.8313 H       1  UNL1        0.0308
     48 H           4.7112    2.5757    7.7221 H       1  UNL1        0.0308
     49 H           7.3040   -1.6490    1.8687 H       1  UNL1        0.0650
     50 H           5.0432   -0.9756    4.5414 H       1  UNL1        0.1493
     51 H           3.1401    0.0080    1.6996 H       1  UNL1        0.0250
     52 H           2.5243    0.9150    3.0440 H       1  UNL1        0.0250
     53 H           1.5655   -0.2971    2.2707 H       1  UNL1        0.0250
     54 H           3.2677   -2.7099    2.0501 H       1  UNL1        0.0250
     55 H           1.7009   -2.5275    2.6334 H       1  UNL1        0.0250
     56 H           2.9282   -3.3363    3.6625 H       1  UNL1        0.0250
     57 H           2.9377   -0.1268    5.5550 H       1  UNL1        0.0291
     58 H           2.9038   -1.8331    5.6818 H       1  UNL1        0.0291
     59 H           0.2986    0.2229    3.4832 H       1  UNL1        0.0235
     60 H           0.7906    1.2041    4.8703 H       1  UNL1        0.0235
     61 H          -0.7600    0.3446    4.8107 H       1  UNL1        0.0235
     62 H           0.2622   -2.2935    3.6621 H       1  UNL1        0.0235
     63 H          -0.7729   -2.2767    5.0152 H       1  UNL1        0.0235
     64 H           0.7873   -3.1189    5.1532 H       1  UNL1        0.0235
     65 H           0.9576    0.1020    7.1671 H       1  UNL1        0.0235
     66 H           0.9525   -1.6741    7.3115 H       1  UNL1        0.0235
     67 H          -0.5141   -0.8142    6.8315 H       1  UNL1        0.0235
     68 H           6.3292   -3.4983    2.4313 H       1  UNL1        0.2922
     69 H           7.3357   -4.7587    5.4982 H       1  UNL1        0.0691
     70 H           8.2898   -4.4333    7.6167 H       1  UNL1        0.2921
     71 H           8.8191   -1.0750    7.0496 H       1  UNL1        0.0691
     72 H           8.6530    0.6463    5.7163 H       1  UNL1        0.2922
@<TRIPOS>BOND
     1     1     2    1
     2     2     3    1
     3     3     4    1
     4     4     5    2
     5     4     6   am
     6     6     7    1
     7     7     8    1
     8     8     9   ar
     9     9    10   ar
    10    10    11   ar
    11    11    12    1
    12    11    13   ar
    13     8    13   ar
    14    15    16    2
    15    15    17   am
    16    17    18    1
    17    18    19    1
    18    18    20    1
    19    18    21    1
    20    21    22    1
    21    22    23    1
    22    22    24    1
    23    22    25    1
    24    14    26    1
    25    26    27   ar
    26    27    28    1
    27    27    29   ar
    28    29    30   ar
    29    30    31    1
    30    30    32   ar
    31    32    33   ar
    32    26    33   ar
    33    33    34    1
    34    14    15    1
    35    14     6    1
    36     1    35    1
    37     1    36    1
    38     1    37    1
    39     2    38    1
    40     2    39    1
    41     3    40    1
    42     3    41    1
    43     7    42    1
    44     7    43    1
    45     9    44    1
    46    10    45    1
    47    12    46    1
    48    12    47    1
    49    12    48    1
    50    14    49    1
    51    17    50    1
    52    19    51    1
    53    19    52    1
    54    19    53    1
    55    20    54    1
    56    20    55    1
    57    20    56    1
    58    21    57    1
    59    21    58    1
    60    23    59    1
    61    23    60    1
    62    23    61    1
    63    24    62    1
    64    24    63    1
    65    24    64    1
    66    25    65    1
    67    25    66    1
    68    25    67    1
    69    28    68    1
    70    29    69    1
    71    31    70    1
    72    32    71    1
    73    34    72    1
