@<TRIPOS>MOLECULE
*****
 61 63 0 0 0
SMALL
GASTEIGER

@<TRIPOS>ATOM
      1 C          -5.2204   -4.3907   -5.2824 C.3     1  UNL1       -0.0393
      2 C          -4.5554   -4.7219   -3.9859 C.ar    1  UNL1       -0.0441
      3 C          -4.5411   -6.0755   -3.6417 C.ar    1  UNL1       -0.0584
      4 C          -3.7391   -6.4749   -2.6229 C.ar    1  UNL1       -0.0580
      5 C          -2.9452   -5.5249   -2.0145 C.ar    1  UNL1       -0.0196
      6 C          -3.1353   -4.1628   -2.0924 C.ar    1  UNL1        0.1247
      7 O          -2.5307   -3.2680   -1.2591 O.3     1  UNL1       -0.4796
      8 C          -1.8766   -3.6529   -0.0305 C.3     1  UNL1        0.1741
      9 C          -0.5847   -2.8023   -0.0062 C.3     1  UNL1       -0.0190
     10 C          -1.4966   -5.1452    0.3518 C.2     1  UNL1        0.2695
     11 O          -0.3544   -5.5922    0.2091 O.2     1  UNL1       -0.2702
     12 N          -2.5767   -5.9996    0.6802 N.am    1  UNL1       -0.2311
     13 N          -2.3797   -7.4228    0.3859 N.am    1  UNL1       -0.2303
     14 C          -3.4772   -8.2583    0.0883 C.2     1  UNL1        0.2601
     15 O          -4.6283   -7.8764    0.0062 O.2     1  UNL1       -0.2687
     16 C          -3.1634   -9.7244   -0.0563 C.ar    1  UNL1        0.0383
     17 C          -3.8859  -10.6491   -0.8387 C.ar    1  UNL1       -0.0478
     18 C          -3.6596  -12.0554   -0.7031 C.ar    1  UNL1       -0.0398
     19 C          -2.6735  -12.5430    0.1725 C.ar    1  UNL1        0.0334
     20 N          -2.3516  -13.9451    0.2660 N.am    1  UNL1       -0.2848
     21 C          -1.3060  -14.4538    1.0562 C.2     1  UNL1        0.2275
     22 O          -0.5956  -13.7361    1.7635 O.2     1  UNL1       -0.2746
     23 C          -1.0224  -15.9746    1.0099 C.3     1  UNL1        0.0779
     24 S           0.3927  -16.3013    2.1551 S.3     1  UNL1       -0.0784
     25 C           0.7123  -17.9900    2.0976 C.ar    1  UNL1        0.1691
     26 N          -0.1755  -18.9508    1.9895 N.ar    1  UNL1       -0.2303
     27 C           0.5425  -20.1171    2.1186 C.ar    1  UNL1        0.0466
     28 C           1.8823  -19.8585    2.2901 C.ar    1  UNL1        0.0247
     29 N           1.9794  -18.4921    2.2863 N.ar    1  UNL1       -0.3286
     30 C           3.2152  -17.7557    2.4216 C.3     1  UNL1        0.0137
     31 C          -2.0001  -11.5879    0.9389 C.ar    1  UNL1       -0.0398
     32 C          -2.2201  -10.2193    0.8237 C.ar    1  UNL1       -0.0478
     33 C          -3.9086   -3.7386   -3.1724 C.ar    1  UNL1       -0.0059
     34 C          -3.9557   -2.2874   -3.5630 C.3     1  UNL1       -0.0360
     35 H          -5.5958   -5.3025   -5.7637 H       1  UNL1        0.0278
     36 H          -4.4916   -3.9458   -5.9654 H       1  UNL1        0.0278
     37 H          -6.0629   -3.7257   -5.1025 H       1  UNL1        0.0278
     38 H          -5.0415   -6.8429   -4.2228 H       1  UNL1        0.0620
     39 H          -3.6375   -7.5203   -2.3694 H       1  UNL1        0.0619
     40 H          -2.0767   -5.9319   -1.5458 H       1  UNL1        0.0654
     41 H          -2.5005   -3.2822    0.7959 H       1  UNL1        0.0829
     42 H           0.0290   -3.0060   -0.8927 H       1  UNL1        0.0270
     43 H           0.0261   -2.9979    0.8815 H       1  UNL1        0.0270
     44 H          -0.8077   -1.7274   -0.0335 H       1  UNL1        0.0270
     45 H          -3.5190   -5.6816    0.4406 H       1  UNL1        0.1729
     46 H          -1.4329   -7.6781    0.0995 H       1  UNL1        0.1731
     47 H          -4.6360  -10.2990   -1.5487 H       1  UNL1        0.0626
     48 H          -4.2899  -12.7397   -1.2716 H       1  UNL1        0.0636
     49 H          -2.8650  -14.5776   -0.3371 H       1  UNL1        0.1548
     50 H          -0.7323  -16.2546   -0.0066 H       1  UNL1        0.0475
     51 H          -1.9085  -16.5276    1.3294 H       1  UNL1        0.0475
     52 H           0.0634  -21.0868    2.0790 H       1  UNL1        0.0845
     53 H           2.7390  -20.5080    2.4119 H       1  UNL1        0.0825
     54 H           4.0487  -18.4569    2.5289 H       1  UNL1        0.0456
     55 H           3.1628  -17.1212    3.3098 H       1  UNL1        0.0456
     56 H           3.3641  -17.1582    1.5188 H       1  UNL1        0.0456
     57 H          -1.2838  -11.8457    1.7045 H       1  UNL1        0.0636
     58 H          -1.6730   -9.5631    1.4936 H       1  UNL1        0.0626
     59 H          -3.4370   -1.6416   -2.8481 H       1  UNL1        0.0279
     60 H          -4.9930   -1.9476   -3.6239 H       1  UNL1        0.0279
     61 H          -3.4652   -2.1523   -4.5336 H       1  UNL1        0.0279
@<TRIPOS>BOND
     1     1     2    1
     2     2     3   ar
     3     3     4   ar
     4     4     5   ar
     5     5     6   ar
     6     6     7    1
     7     8    10    1
     8    10    11    2
     9    10    12   am
    10    12    13    1
    11    13    14   am
    12    14    15    2
    13    14    16    1
    14    16    17   ar
    15    17    18   ar
    16    18    19   ar
    17    19    20    1
    18    20    21   am
    19    21    22    2
    20    21    23    1
    21    23    24    1
    22    24    25    1
    23    25    26   ar
    24    26    27   ar
    25    27    28   ar
    26    28    29   ar
    27    25    29   ar
    28    29    30    1
    29    19    31   ar
    30    31    32   ar
    31    16    32   ar
    32     6    33   ar
    33     2    33   ar
    34    33    34    1
    35     8     9    1
    36     8     7    1
    37     1    35    1
    38     1    36    1
    39     1    37    1
    40     3    38    1
    41     4    39    1
    42     5    40    1
    43     8    41    1
    44     9    42    1
    45     9    43    1
    46     9    44    1
    47    12    45    1
    48    13    46    1
    49    17    47    1
    50    18    48    1
    51    20    49    1
    52    23    50    1
    53    23    51    1
    54    27    52    1
    55    28    53    1
    56    30    54    1
    57    30    55    1
    58    30    56    1
    59    31    57    1
    60    32    58    1
    61    34    59    1
    62    34    60    1
    63    34    61    1
