@<TRIPOS>MOLECULE
*****
 34 36 0 0 0
SMALL
GASTEIGER

@<TRIPOS>ATOM
      1 C           0.9619    0.1844    0.0553 C.3     1  UNL1        0.0125
      2 C           2.4519    0.1864    0.2960 C.2     1  UNL1        0.2141
      3 O           2.9847   -0.6809    0.9888 O.2     1  UNL1       -0.2758
      4 N           3.1410    1.2281   -0.3045 N.am    1  UNL1       -0.2851
      5 C           4.5456    1.2042   -0.4967 C.ar    1  UNL1        0.0428
      6 C           5.2632    2.3621   -0.1460 C.ar    1  UNL1       -0.0398
      7 C           6.6531    2.4176   -0.2935 C.ar    1  UNL1       -0.0600
      8 C           7.3426    1.3064   -0.7614 C.ar    1  UNL1       -0.0610
      9 C           6.6390    0.1589   -1.1367 C.ar    1  UNL1       -0.0506
     10 C           5.2372    0.0907   -1.0288 C.ar    1  UNL1        0.0269
     11 C           4.5036   -1.1440   -1.4696 C.ar    1  UNL1        0.1375
     12 N           3.2719   -1.1020   -1.9083 N.ar    1  UNL1       -0.2397
     13 C           2.5310   -2.3073   -1.8650 C.ar    1  UNL1        0.0880
     14 C           1.2242   -2.3047   -2.3450 C.ar    1  UNL1       -0.0343
     15 C           0.4560   -3.4676   -2.3178 C.ar    1  UNL1       -0.0596
     16 C           0.9996   -4.6487   -1.8113 C.ar    1  UNL1       -0.0597
     17 C           2.2623   -4.6417   -1.2105 C.ar    1  UNL1       -0.0362
     18 C           3.0163   -3.4663   -1.2290 C.ar    1  UNL1        0.0676
     19 N           4.3180   -3.4322   -0.7077 N.ar    1  UNL1       -0.3191
     20 C           5.1786   -2.4986   -1.2453 C.ar    1  UNL1        0.2753
     21 O           6.3192   -2.7208   -1.5721 O.2     1  UNL1       -0.2656
     22 H           0.5626   -0.7917    0.3562 H       1  UNL1        0.0323
     23 H           0.7191    0.3265   -1.0025 H       1  UNL1        0.0323
     24 H           0.4858    0.9614    0.6525 H       1  UNL1        0.0323
     25 H           2.6399    2.0492   -0.6157 H       1  UNL1        0.1548
     26 H           4.7613    3.2064    0.3210 H       1  UNL1        0.0636
     27 H           7.2025    3.3199   -0.0327 H       1  UNL1        0.0618
     28 H           8.4284    1.3252   -0.8388 H       1  UNL1        0.0618
     29 H           7.2238   -0.6657   -1.5337 H       1  UNL1        0.0625
     30 H           0.8108   -1.3844   -2.7444 H       1  UNL1        0.0639
     31 H          -0.5546   -3.4536   -2.7173 H       1  UNL1        0.0618
     32 H           0.4427   -5.5778   -1.9112 H       1  UNL1        0.0618
     33 H           2.6653   -5.5682   -0.8110 H       1  UNL1        0.0639
     34 H           4.7075   -4.1910   -0.1727 H       1  UNL1        0.1690
@<TRIPOS>BOND
     1     1     2    1
     2     2     3    2
     3     2     4   am
     4     4     5    1
     5     5     6   ar
     6     6     7   ar
     7     7     8   ar
     8     8     9   ar
     9     9    10   ar
    10     5    10   ar
    11    10    11    1
    12    11    12   ar
    13    12    13   ar
    14    13    14   ar
    15    14    15   ar
    16    15    16   ar
    17    16    17   ar
    18    17    18   ar
    19    13    18   ar
    20    18    19   ar
    21    19    20   ar
    22    11    20   ar
    23    20    21    2
    24     1    22    1
    25     1    23    1
    26     1    24    1
    27     4    25    1
    28     6    26    1
    29     7    27    1
    30     8    28    1
    31     9    29    1
    32    14    30    1
    33    15    31    1
    34    16    32    1
    35    17    33    1
    36    19    34    1
