REMARK  7 active torsions:
REMARK  status: ('A' for Active; 'I' for Inactive)
REMARK    1  A    between atoms: O_2  and  C_3 
REMARK    2  A    between atoms: C_6  and  O_7 
REMARK    3  A    between atoms: C_9  and  N_10 
REMARK       I    between atoms: N_10  and  C_11 
REMARK    4  A    between atoms: C_11  and  C_13 
REMARK    5  A    between atoms: C_13  and  S_14 
REMARK    6  A    between atoms: S_14  and  C_15 
REMARK    7  A    between atoms: C_18  and  C_19 
ROOT
ATOM      1  C   UNL d   1      -0.136  -4.415  -7.363  0.00  0.00     0.172 A 
ATOM      2  N   UNL d   1       0.086  -5.694  -7.286  0.00  0.00    -0.221 NA
ATOM      3  C   UNL d   1      -0.144  -6.378  -8.479  0.00  0.00     0.104 A 
ATOM      4  C   UNL d   1       0.017  -7.752  -8.757  0.00  0.00     0.021 A 
ATOM      5  C   UNL d   1      -0.315  -7.908 -10.096  0.00  0.00     0.103 A 
ATOM      6  N   UNL d   1      -0.653  -6.680 -10.609  0.00  0.00    -0.359 N 
ATOM      7  C   UNL d   1      -0.554  -5.745  -9.617  0.00  0.00     0.131 A 
ATOM      8  C   UNL d   1      -0.805  -4.350  -9.694  0.00  0.00     0.278 A 
ATOM      9  O   UNL d   1      -1.159  -3.802 -10.740  0.00  0.00    -0.265 OA
ATOM     10  N   UNL d   1      -0.590  -3.698  -8.485  0.00  0.00    -0.296 N 
ATOM     11  C   UNL d   1      -0.851  -2.258  -8.462  0.00  0.00     0.162 C 
ATOM     12  H   UNL d   1      -0.935  -6.490 -11.565  0.00  0.00     0.165 HD
ENDROOT
BRANCH   1  13
ATOM     13  S   UNL d   1       0.087  -3.480  -5.911  0.00  0.00    -0.082 SA
BRANCH  13  14
ATOM     14  C   UNL d   1       1.616  -4.132  -5.138  0.00  0.00     0.185 C 
BRANCH  14  15
ATOM     15  C   UNL d   1       1.892  -3.262  -3.894  0.00  0.00     0.232 C 
ATOM     16  N   UNL d   1       3.002  -3.633  -3.142  0.00  0.00    -0.324 N 
ATOM     17  H   UNL d   1       3.530  -4.391  -3.526  0.00  0.00     0.169 HD
ATOM     18  O   UNL d   1       1.162  -2.310  -3.627  0.00  0.00    -0.272 OA
BRANCH  16  19
ATOM     19  C   UNL d   1       3.481  -3.002  -1.943  0.00  0.00     0.071 A 
ATOM     20  C   UNL d   1       4.638  -3.394  -1.234  0.00  0.00     0.095 A 
ATOM     21  C   UNL d   1       5.055  -2.621  -0.119  0.00  0.00     0.042 A 
ATOM     22  C   UNL d   1       4.308  -1.534   0.351  0.00  0.00     0.039 A 
ATOM     23  C   UNL d   1       3.161  -1.161  -0.320  0.00  0.00     0.070 A 
ATOM     24  C   UNL d   1       2.780  -1.888  -1.442  0.00  0.00     0.069 A 
BRANCH  20  25
ATOM     25  O   UNL d   1       5.478  -4.462  -1.441  0.00  0.00    -0.354 OA
ATOM     26  C   UNL d   1       5.135  -5.433  -2.410  0.00  0.00     0.210 C 
ENDBRANCH  20  25
BRANCH  23  27
ATOM     27  O   UNL d   1       2.522  -0.022   0.091  0.00  0.00    -0.356 OA
ATOM     28  C   UNL d   1       1.099  -0.022  -0.049  0.00  0.00     0.210 C 
ENDBRANCH  23  27
ENDBRANCH  16  19
ENDBRANCH  14  15
ENDBRANCH  13  14
ENDBRANCH   1  13
BRANCH   4  29
ATOM     29  C   UNL d   1       0.331  -8.893  -7.920  0.00  0.00    -0.022 A 
ATOM     30  C   UNL d   1       1.320  -9.809  -8.304  0.00  0.00     0.012 A 
ATOM     31  C   UNL d   1       1.454 -11.023  -7.627  0.00  0.00     0.001 A 
ATOM     32  C   UNL d   1       0.663 -11.289  -6.510  0.00  0.00     0.000 A 
ATOM     33  C   UNL d   1      -0.289 -10.359  -6.093  0.00  0.00     0.001 A 
ATOM     34  C   UNL d   1      -0.457  -9.165  -6.798  0.00  0.00     0.012 A 
ENDBRANCH   4  29
TORSDOF 7
