REMARK  11 active torsions:
REMARK  status: ('A' for Active; 'I' for Inactive)
REMARK    1  A    between atoms: C_8  and  C_9 
REMARK    2  A    between atoms: N_10  and  C_9 
REMARK    3  A    between atoms: N_10  and  C_14 
REMARK    4  A    between atoms: N_10  and  C_11 
REMARK    5  A    between atoms: C_11  and  C_12 
REMARK    6  A    between atoms: C_12  and  O_13 
REMARK    7  A    between atoms: C_14  and  C_15 
REMARK    8  A    between atoms: C_14  and  C_28 
REMARK    9  A    between atoms: N_19  and  C_20 
REMARK   10  A    between atoms: C_20  and  C_21 
REMARK   11  A    between atoms: C_31  and  O_32 
ROOT
ATOM      1  N   UNL d   1       9.442  -0.147  -0.014  0.00  0.00    -0.053 N 
ATOM      2  H   UNL d   1       9.290  -0.594   0.892  0.00  0.00     0.281 HD
ENDROOT
BRANCH   1   3
ATOM      3  C   UNL d   1      11.066   0.118  -0.113  0.00  0.00     0.264 C 
BRANCH   3   4
ATOM      4  C   UNL d   1      11.545   0.559   1.293  0.00  0.00     0.179 A 
ATOM      5  N   UNL d   1      11.429   1.837   1.641  0.00  0.00    -0.112 NA
ATOM      6  N   UNL d   1      11.775   1.955   2.947  0.00  0.00    -0.023 NA
ATOM      7  N   UNL d   1      12.097   0.777   3.441  0.00  0.00    -0.044 NA
ATOM      8  N   UNL d   1      11.977  -0.135   2.429  0.00  0.00    -0.228 N 
BRANCH   8   9
ATOM      9  C   UNL d   1      12.343  -1.523   2.844  0.00  0.00     0.193 C 
BRANCH   9  10
ATOM     10  C   UNL d   1      12.420  -2.687   1.832  0.00  0.00    -0.039 C 
ATOM     11  C   UNL d   1      11.429  -3.337   1.314  0.00  0.00     0.008 C 
ATOM     12  C   UNL d   1      11.339  -4.053   0.059  0.00  0.00     0.025 C 
ATOM     13  C   UNL d   1      12.337  -4.484  -0.747  0.00  0.00     0.182 C 
ATOM     14  F   UNL d   1      11.960  -4.844  -1.999  0.00  0.00    -0.230 F 
ATOM     15  C   UNL d   1      13.319  -3.656  -0.438  0.00  0.00     0.025 C 
ATOM     16  C   UNL d   1      13.401  -2.813   0.875  0.00  0.00     0.008 C 
ENDBRANCH   9  10
ENDBRANCH   8   9
ENDBRANCH   3   4
BRANCH   3  17
ATOM     17  C   UNL d   1      11.898  -0.995  -0.780  0.00  0.00     0.016 C 
ATOM     18  C   UNL d   1      11.350  -1.654  -2.047  0.00  0.00     0.012 C 
ATOM     19  C   UNL d   1      13.533  -0.771  -0.879  0.00  0.00     0.012 C 
ENDBRANCH   3  17
ENDBRANCH   1   3
BRANCH   1  20
ATOM     20  C   UNL d   1       8.773   1.221   0.201  0.00  0.00     0.262 C 
BRANCH  20  21
ATOM     21  C   UNL d   1       9.096   2.304  -0.839  0.00  0.00     0.192 C 
BRANCH  21  22
ATOM     22  O   UNL d   1       7.982   3.176  -0.945  0.00  0.00    -0.399 OA
ATOM     23  H   UNL d   1       7.199   2.681  -1.244  0.00  0.00     0.209 HD
ENDBRANCH  21  22
ENDBRANCH  20  21
ENDBRANCH   1  20
BRANCH   1  24
ATOM     24  C   UNL d   1       8.579  -1.047  -0.978  0.00  0.00     0.279 C 
BRANCH  24  25
ATOM     25  C   UNL d   1       8.415  -2.599  -0.683  0.00  0.00     0.021 C 
ATOM     26  C   UNL d   1       8.538  -3.236   0.623  0.00  0.00     0.027 C 
ATOM     27  C   UNL d   1       8.935  -4.692   0.906  0.00  0.00    -0.001 C 
ATOM     28  C   UNL d   1       9.731  -5.279   2.142  0.00  0.00    -0.049 C 
ATOM     29  C   UNL d   1       8.973  -5.445  -0.322  0.00  0.00     0.071 C 
ATOM     30  C   UNL d   1      10.535  -6.432   1.966  0.00  0.00     0.014 C 
ATOM     31  C   UNL d   1      10.177  -4.484   3.471  0.00  0.00     0.049 C 
ATOM     32  C   UNL d   1      10.471  -7.161   0.779  0.00  0.00    -0.059 C 
ATOM     33  C   UNL d   1      11.074  -8.544   0.765  0.00  0.00     0.048 C 
ATOM     34  C   UNL d   1       9.727  -6.658  -0.330  0.00  0.00     0.039 C 
ATOM     35  N   UNL d   1       8.619  -4.878  -1.542  0.00  0.00    -0.224 NA
ATOM     36  C   UNL d   1       8.385  -3.530  -1.724  0.00  0.00     0.170 C 
BRANCH  36  37
ATOM     37  O   UNL d   1       8.440  -3.155  -3.046  0.00  0.00    -0.344 OA
ATOM     38  H   UNL d   1       8.218  -2.234  -3.242  0.00  0.00     0.219 HD
ENDBRANCH  36  37
ENDBRANCH  24  25
ENDBRANCH   1  24
TORSDOF 11
