REMARK  12 active torsions:
REMARK  status: ('A' for Active; 'I' for Inactive)
REMARK    1  A    between atoms: C_2  and  C_5 
REMARK    2  A    between atoms: C_5  and  C_6 
REMARK    3  A    between atoms: C_6  and  C_9 
REMARK    4  A    between atoms: C_12  and  O_13 
REMARK    5  A    between atoms: O_13  and  C_14 
REMARK    6  A    between atoms: C_14  and  C_15 
REMARK       I    between atoms: C_15  and  N_17 
REMARK    7  A    between atoms: N_17  and  N_18 
REMARK    8  A    between atoms: C_19  and  C_20 
REMARK    9  A    between atoms: C_24  and  O_25 
REMARK   10  A    between atoms: O_25  and  C_26 
REMARK   11  A    between atoms: C_26  and  C_28 
REMARK   12  A    between atoms: C_31  and  N_32 
ROOT
ATOM      1  C   UNL d   1       6.093   8.135   4.400  0.00  0.00     0.261 C 
ATOM      2  O   UNL d   1       6.462   7.792   5.525  0.00  0.00    -0.269 OA
ATOM      3  N   UNL d   1       6.006   9.475   3.996  0.00  0.00    -0.246 N 
ATOM      4  H   UNL d   1       5.723   9.746   3.062  0.00  0.00     0.192 HD
ENDROOT
BRANCH   3   5
ATOM      5  N   UNL d   1       6.352  10.447   4.909  0.00  0.00    -0.184 NA
ATOM      6  C   UNL d   1       6.227  11.697   4.590  0.00  0.00     0.150 C 
BRANCH   6   7
ATOM      7  C   UNL d   1       6.666  12.778   5.520  0.00  0.00    -0.014 A 
ATOM      8  C   UNL d   1       6.081  14.041   5.546  0.00  0.00     0.013 A 
ATOM      9  C   UNL d   1       6.697  15.073   6.276  0.00  0.00     0.004 A 
ATOM     10  C   UNL d   1       7.866  14.832   7.020  0.00  0.00     0.037 A 
ATOM     11  C   UNL d   1       8.427  13.551   7.019  0.00  0.00     0.080 A 
ATOM     12  C   UNL d   1       7.802  12.539   6.286  0.00  0.00     0.050 A 
BRANCH  11  13
ATOM     13  O   UNL d   1       9.647  13.347   7.731  0.00  0.00    -0.275 OA
BRANCH  13  14
ATOM     14  C   UNL d   1      10.325  12.131   7.623  0.00  0.00     0.298 C 
ATOM     15  O   UNL d   1      10.015  11.140   6.994  0.00  0.00    -0.259 OA
BRANCH  14  16
ATOM     16  C   UNL d   1      11.593  12.061   8.364  0.00  0.00     0.040 A 
ATOM     17  C   UNL d   1      12.605  11.267   7.789  0.00  0.00     0.020 A 
ATOM     18  C   UNL d   1      13.724  10.901   8.532  0.00  0.00     0.037 A 
ATOM     19  C   UNL d   1      13.868  11.406   9.827  0.00  0.00     0.102 A 
ATOM     20  C   UNL d   1      12.860  12.199  10.406  0.00  0.00     0.037 A 
ATOM     21  C   UNL d   1      11.712  12.522   9.672  0.00  0.00     0.020 A 
BRANCH  19  22
ATOM     22  N   UNL d   1      15.115  11.156  10.561  0.00  0.00    -0.116 N 
ATOM     23  O   UNL d   1      15.990  10.482   9.999  0.00  0.00    -0.532 OA
ATOM     24  O   UNL d   1      15.232  11.667  11.683  0.00  0.00    -0.532 OA
ENDBRANCH  19  22
ENDBRANCH  14  16
ENDBRANCH  13  14
ENDBRANCH  11  13
ENDBRANCH   6   7
ENDBRANCH   3   5
BRANCH   1  25
ATOM     25  C   UNL d   1       5.676   7.098   3.344  0.00  0.00     0.280 C 
BRANCH  25  26
ATOM     26  O   UNL d   1       5.734   5.789   3.921  0.00  0.00    -0.342 OA
BRANCH  26  27
ATOM     27  C   UNL d   1       5.492   4.725   3.104  0.00  0.00     0.069 A 
ATOM     28  C   UNL d   1       5.692   3.467   3.673  0.00  0.00     0.037 A 
ATOM     29  C   UNL d   1       5.540   2.317   2.905  0.00  0.00     0.011 A 
ATOM     30  C   UNL d   1       5.076   2.397   1.584  0.00  0.00    -0.050 A 
ATOM     31  C   UNL d   1       4.867   3.669   1.033  0.00  0.00     0.011 A 
ATOM     32  C   UNL d   1       5.080   4.819   1.781  0.00  0.00     0.037 A 
BRANCH  30  33
ATOM     33  C   UNL d   1       4.740   1.150   0.753  0.00  0.00    -0.020 C 
ATOM     34  C   UNL d   1       5.371  -0.085   1.418  0.00  0.00     0.020 C 
ATOM     35  C   UNL d   1       5.390   1.327  -0.633  0.00  0.00     0.020 C 
BRANCH  33  36
ATOM     36  C   UNL d   1       3.166   1.051   0.682  0.00  0.00     0.022 C 
BRANCH  36  37
ATOM     37  C   UNL d   1       2.509  -0.122  -0.114  0.00  0.00    -0.050 C 
ATOM     38  C   UNL d   1       0.976  -0.008  -0.040  0.00  0.00     0.014 C 
ATOM     39  C   UNL d   1       2.855  -1.494   0.474  0.00  0.00     0.014 C 
ATOM     40  C   UNL d   1       2.862  -0.084  -1.606  0.00  0.00     0.014 C 
ENDBRANCH  36  37
ENDBRANCH  33  36
ENDBRANCH  30  33
ENDBRANCH  26  27
ENDBRANCH  25  26
ENDBRANCH   1  25
TORSDOF 12
