@<TRIPOS>MOLECULE
*****
 48 51 0 0 0
SMALL
GASTEIGER

@<TRIPOS>ATOM
      1 O           1.0740   -0.0783   -0.0457 O.2     1  UNL1        0.0416
      2 N           2.3094   -0.0591    0.0029 N.pl3   1  UNL1        0.0839
      3 O           2.9868    0.8060    0.5806 O.co2   1  UNL1       -0.5759
      4 C           3.0084   -1.0934   -0.7150 C.ar    1  UNL1        0.3243
      5 C           2.6746   -1.4710   -2.0369 C.ar    1  UNL1        0.1096
      6 N           1.7508   -0.7418   -2.7946 N.pl3   1  UNL1       -0.3363
      7 C           1.3038   -1.1795   -4.1101 C.3     1  UNL1        0.0325
      8 C           0.1911   -0.2924   -4.6651 C.3     1  UNL1        0.0596
      9 O          -0.1546   -0.7175   -5.9804 O.3     1  UNL1       -0.3935
     10 C           3.4000   -2.5561   -2.6353 C.ar    1  UNL1       -0.0108
     11 C           4.4172   -3.3484   -2.0298 C.ar    1  UNL1        0.0632
     12 N           4.9493   -4.4301   -2.7097 N.pl3   1  UNL1       -0.3251
     13 C           4.9725   -5.7744   -2.1207 C.3     1  UNL1        0.0282
     14 C           4.4039   -6.7817   -3.1733 C.3     1  UNL1        0.0331
     15 N           5.1296   -6.6734   -4.4599 N.pl3   1  UNL1       -0.2750
     16 C           5.7629   -7.7150   -5.0812 C.ar    1  UNL1        0.2719
     17 C           7.1303   -7.7221   -5.3889 C.ar    1  UNL1        0.0264
     18 C           7.6587   -8.6892   -6.2483 C.ar    1  UNL1       -0.0486
     19 C           6.8392   -9.7004   -6.7267 C.ar    1  UNL1        0.0022
     20 C           5.5222   -9.7406   -6.2957 C.ar    1  UNL1        0.1710
     21 N           5.0303   -8.7509   -5.5292 N.ar    1  UNL1       -0.1981
     22 C           5.2112   -5.2892   -5.0012 C.3     1  UNL1        0.0331
     23 C           5.7328   -4.2804   -3.9436 C.3     1  UNL1        0.0282
     24 C           4.7074   -2.9275   -0.7015 C.ar    1  UNL1        0.1619
     25 N           5.6039   -3.4227    0.1636 N.ar    1  UNL1       -0.0468
     26 O           5.5062   -2.6472    1.3036 O.2     1  UNL1       -0.2413
     27 N           4.5230   -1.6870    1.1873 N.ar    1  UNL1       -0.0419
     28 C           4.0185   -1.8094   -0.0488 C.ar    1  UNL1        0.2144
     29 H           1.1040   -0.1359   -2.2808 H       1  UNL1        0.1463
     30 H           0.9475   -2.2180   -4.0942 H       1  UNL1        0.0484
     31 H           2.1515   -1.1406   -4.8052 H       1  UNL1        0.0484
     32 H           0.5017    0.7568   -4.6994 H       1  UNL1        0.0573
     33 H          -0.7035   -0.3608   -4.0378 H       1  UNL1        0.0573
     34 H           0.6139   -0.5564   -6.5550 H       1  UNL1        0.2095
     35 H           3.1242   -2.8583   -3.6448 H       1  UNL1        0.0657
     36 H           4.3723   -5.8285   -1.2063 H       1  UNL1        0.0479
     37 H           6.0060   -6.0452   -1.8749 H       1  UNL1        0.0479
     38 H           3.3536   -6.5228   -3.3667 H       1  UNL1        0.0481
     39 H           4.4272   -7.8008   -2.7762 H       1  UNL1        0.0481
     40 H           7.7935   -6.9750   -4.9600 H       1  UNL1        0.0698
     41 H           8.7062   -8.6498   -6.5477 H       1  UNL1        0.0622
     42 H           7.2274  -10.4495   -7.4158 H       1  UNL1        0.0677
     43 H           4.8428  -10.5405   -6.5738 H       1  UNL1        0.1376
     44 H           4.0379   -8.7329   -5.3158 H       1  UNL1        0.4542
     45 H           4.1897   -4.9915   -5.2746 H       1  UNL1        0.0481
     46 H           5.8129   -5.2348   -5.9150 H       1  UNL1        0.0481
     47 H           5.6941   -3.2600   -4.3414 H       1  UNL1        0.0479
     48 H           6.7845   -4.5064   -3.7240 H       1  UNL1        0.0479
@<TRIPOS>UNITY_ATOM_ATTR
2 1
charge 1
3 1
charge -1
21 1
charge 1
@<TRIPOS>BOND
     1     1     2    2
     2     2     3    1
     3     2     4    1
     4     4     5   ar
     5     5     6    1
     6     6     7    1
     7     7     8    1
     8     8     9    1
     9     5    10   ar
    10    10    11   ar
    11    11    12    1
    12    12    13    1
    13    13    14    1
    14    14    15    1
    15    15    16    1
    16    16    17   ar
    17    17    18   ar
    18    18    19   ar
    19    19    20   ar
    20    20    21   ar
    21    16    21   ar
    22    15    22    1
    23    22    23    1
    24    12    23    1
    25    11    24   ar
    26    24    25   ar
    27    25    26   ar
    28    26    27   ar
    29    27    28   ar
    30     4    28   ar
    31    24    28   ar
    32     6    29    1
    33     7    30    1
    34     7    31    1
    35     8    32    1
    36     8    33    1
    37     9    34    1
    38    10    35    1
    39    13    36    1
    40    13    37    1
    41    14    38    1
    42    14    39    1
    43    17    40    1
    44    18    41    1
    45    19    42    1
    46    20    43    1
    47    21    44    1
    48    22    45    1
    49    22    46    1
    50    23    47    1
    51    23    48    1
