@<TRIPOS>MOLECULE
*****
 44 45 0 0 0
SMALL
GASTEIGER

@<TRIPOS>ATOM
      1 C           1.0674    0.1091   -0.0676 C.3     1  UNL1       -0.0442
      2 C           2.6102    0.0813   -0.0525 C.3     1  UNL1        0.0265
      3 C           3.0700    0.3586    1.3873 C.3     1  UNL1       -0.0442
      4 C           3.0596   -1.3162   -0.5020 C.3     1  UNL1       -0.0442
      5 N           3.1528    1.1003   -0.9656 N.am    1  UNL1       -0.3066
      6 C           4.5109    1.2687   -1.1930 C.2     1  UNL1        0.2445
      7 O           5.4061    0.6022   -0.6775 O.2     1  UNL1       -0.2702
      8 C           4.8948    2.3660   -2.1032 C.ar    1  UNL1        0.0368
      9 C           5.9258    2.2284   -3.0435 C.ar    1  UNL1       -0.0479
     10 C           6.3236    3.3348   -3.8228 C.ar    1  UNL1       -0.0398
     11 C           5.6568    4.5638   -3.6948 C.ar    1  UNL1        0.0337
     12 N           5.9608    5.6449   -4.5663 N.am    1  UNL1       -0.2815
     13 C           5.3134    6.8775   -4.5561 C.2     1  UNL1        0.2485
     14 O           4.4339    7.2581   -3.7852 O.2     1  UNL1       -0.2698
     15 C           5.6820    7.8503   -5.6023 C.ar    1  UNL1        0.0434
     16 C           5.8071    9.2083   -5.2622 C.ar    1  UNL1       -0.0492
     17 C           5.9947   10.1705   -6.2570 C.ar    1  UNL1       -0.0546
     18 C           6.0992    9.7757   -7.5909 C.ar    1  UNL1        0.0156
     19 C           5.9415    8.4215   -7.9236 C.ar    1  UNL1        0.2739
     20 N           5.9622    8.0063   -9.3292 N.pl3   1  UNL1        0.0796
     21 O           6.1733    8.8746  -10.1857 O.2     1  UNL1        0.0414
     22 O           5.7707    6.8061   -9.5718 O.co2   1  UNL1       -0.5760
     23 C           5.7223    7.4533   -6.9361 C.ar    1  UNL1        0.0277
     24 C           4.6698    4.6768   -2.7129 C.ar    1  UNL1       -0.0398
     25 C           4.2891    3.5996   -1.9236 C.ar    1  UNL1       -0.0479
     26 H           0.6574   -0.6554    0.6054 H       1  UNL1        0.0250
     27 H           0.6698   -0.0875   -1.0696 H       1  UNL1        0.0250
     28 H           0.6747    1.0789    0.2586 H       1  UNL1        0.0250
     29 H           2.6834   -0.3981    2.0784 H       1  UNL1        0.0250
     30 H           2.7184    1.3397    1.7286 H       1  UNL1        0.0250
     31 H           4.1599    0.3565    1.4771 H       1  UNL1        0.0250
     32 H           2.6683   -2.0930    0.1619 H       1  UNL1        0.0250
     33 H           4.1482   -1.4160   -0.5062 H       1  UNL1        0.0250
     34 H           2.7123   -1.5251   -1.5206 H       1  UNL1        0.0250
     35 H           2.4966    1.6740   -1.4834 H       1  UNL1        0.1495
     36 H           6.4167    1.2636   -3.1691 H       1  UNL1        0.0626
     37 H           7.1579    3.2101   -4.5107 H       1  UNL1        0.0636
     38 H           6.6718    5.4755   -5.2688 H       1  UNL1        0.1551
     39 H           5.7337    9.5208   -4.2201 H       1  UNL1        0.0625
     40 H           6.0375   11.2266   -5.9950 H       1  UNL1        0.0620
     41 H           6.2838   10.5300   -8.3540 H       1  UNL1        0.0685
     42 H           5.5286    6.4167   -7.1982 H       1  UNL1        0.0693
     43 H           4.1605    5.6083   -2.5085 H       1  UNL1        0.0636
     44 H           3.5406    3.7543   -1.1536 H       1  UNL1        0.0626
@<TRIPOS>UNITY_ATOM_ATTR
20 1
charge 1
22 1
charge -1
@<TRIPOS>BOND
     1     1     2    1
     2     2     3    1
     3     2     4    1
     4     2     5    1
     5     5     6   am
     6     6     7    2
     7     6     8    1
     8     8     9   ar
     9     9    10   ar
    10    10    11   ar
    11    11    12    1
    12    12    13   am
    13    13    14    2
    14    13    15    1
    15    15    16   ar
    16    16    17   ar
    17    17    18   ar
    18    18    19   ar
    19    19    20    1
    20    20    21    2
    21    20    22    1
    22    19    23   ar
    23    15    23   ar
    24    11    24   ar
    25    24    25   ar
    26     8    25   ar
    27     1    26    1
    28     1    27    1
    29     1    28    1
    30     3    29    1
    31     3    30    1
    32     3    31    1
    33     4    32    1
    34     4    33    1
    35     4    34    1
    36     5    35    1
    37     9    36    1
    38    10    37    1
    39    12    38    1
    40    16    39    1
    41    17    40    1
    42    18    41    1
    43    23    42    1
    44    24    43    1
    45    25    44    1
