REMARK  13 active torsions:
REMARK  status: ('A' for Active; 'I' for Inactive)
REMARK    1  A    between atoms: C_2  and  C_3 
REMARK    2  A    between atoms: C_3  and  C_4 
REMARK    3  A    between atoms: C_4  and  C_5 
REMARK    4  A    between atoms: C_5  and  C_6 
REMARK    5  A    between atoms: C_6  and  N_7 
REMARK       I    between atoms: N_7  and  C_8 
REMARK    6  A    between atoms: N_7  and  C_17 
REMARK    7  A    between atoms: C_8  and  C_10 
REMARK    8  A    between atoms: C_17  and  C_18 
REMARK    9  A    between atoms: C_17  and  C_25 
REMARK       I    between atoms: C_18  and  N_20 
REMARK   10  A    between atoms: N_20  and  C_21 
REMARK   11  A    between atoms: C_26  and  O_27 
REMARK   12  A    between atoms: C_29  and  O_30 
REMARK   13  A    between atoms: C_32  and  O_33 
ROOT
ATOM      1  C   UNL d   1       8.542  -3.914   2.268  0.00  0.00     0.218 C 
ENDROOT
BRANCH   1   2
ATOM      2  N   UNL d   1       7.013  -3.742   2.024  0.00  0.00    -0.330 N 
ATOM      3  C   UNL d   1       6.074  -4.610   2.683  0.00  0.00     0.254 C 
ATOM      4  O   UNL d   1       6.383  -5.409   3.565  0.00  0.00    -0.267 OA
BRANCH   2   5
ATOM      5  C   UNL d   1       6.652  -2.431   1.414  0.00  0.00     0.127 C 
BRANCH   5   6
ATOM      6  C   UNL d   1       5.204  -2.097   1.360  0.00  0.00     0.020 C 
BRANCH   6   7
ATOM      7  C   UNL d   1       4.697  -0.872   0.671  0.00  0.00     0.002 C 
BRANCH   7   8
ATOM      8  C   UNL d   1       3.170  -0.993   0.657  0.00  0.00    -0.000 C 
BRANCH   8   9
ATOM      9  C   UNL d   1       2.562   0.200  -0.027  0.00  0.00    -0.005 C 
ATOM     10  C   UNL d   1       1.051   0.107  -0.016  0.00  0.00     0.005 C 
ENDBRANCH   8   9
ENDBRANCH   7   8
ENDBRANCH   6   7
ENDBRANCH   5   6
ENDBRANCH   2   5
BRANCH   3  11
ATOM     11  C   UNL d   1       4.606  -4.671   2.409  0.00  0.00     0.032 C 
ATOM     12  C   UNL d   1       3.997  -4.638   1.148  0.00  0.00     0.020 C 
ATOM     13  C   UNL d   1       2.652  -4.248   1.058  0.00  0.00     0.043 C 
ATOM     14  C   UNL d   1       1.881  -4.146   2.208  0.00  0.00     0.116 C 
ATOM     15  F   UNL d   1       0.612  -3.729   2.121  0.00  0.00    -0.206 F 
ATOM     16  C   UNL d   1       2.419  -4.464   3.444  0.00  0.00     0.043 C 
ATOM     17  C   UNL d   1       3.787  -4.700   3.547  0.00  0.00     0.020 C 
ENDBRANCH   3  11
ENDBRANCH   1   2
BRANCH   1  18
ATOM     18  C   UNL d   1       9.165  -2.661   3.000  0.00  0.00     0.246 C 
ATOM     19  O   UNL d   1       9.606  -2.701   4.124  0.00  0.00    -0.271 OA
ATOM     20  N   UNL d   1       9.203  -1.402   2.409  0.00  0.00    -0.351 N 
ATOM     21  H   UNL d   1       8.876  -1.218   1.472  0.00  0.00     0.163 HD
BRANCH  20  22
ATOM     22  C   UNL d   1       9.757  -0.284   3.210  0.00  0.00     0.022 C 
ATOM     23  C   UNL d   1       9.090  -0.159   4.612  0.00  0.00     0.037 C 
ATOM     24  C   UNL d   1      11.278  -0.479   3.354  0.00  0.00     0.037 C 
ATOM     25  C   UNL d   1       9.497   1.038   2.480  0.00  0.00     0.037 C 
ENDBRANCH  20  22
ENDBRANCH   1  18
BRANCH   1  26
ATOM     26  C   UNL d   1       8.940  -5.304   2.864  0.00  0.00     0.040 C 
ATOM     27  C   UNL d   1       8.419  -6.484   2.275  0.00  0.00     0.080 C 
ATOM     28  C   UNL d   1       8.453  -7.722   2.938  0.00  0.00     0.073 C 
ATOM     29  C   UNL d   1       9.090  -7.831   4.166  0.00  0.00     0.071 C 
ATOM     30  C   UNL d   1       9.701  -6.740   4.727  0.00  0.00     0.073 C 
ATOM     31  C   UNL d   1       9.661  -5.516   4.070  0.00  0.00     0.080 C 
BRANCH  27  32
ATOM     32  O   UNL d   1       7.737  -6.487   1.079  0.00  0.00    -0.360 OA
ATOM     33  H   UNL d   1       7.449  -5.580   0.890  0.00  0.00     0.217 HD
ENDBRANCH  27  32
BRANCH  29  34
ATOM     34  O   UNL d   1       9.188  -8.997   4.859  0.00  0.00    -0.361 OA
ATOM     35  H   UNL d   1       8.738  -9.687   4.352  0.00  0.00     0.217 HD
ENDBRANCH  29  34
BRANCH  31  36
ATOM     36  O   UNL d   1      10.512  -4.619   4.641  0.00  0.00    -0.360 OA
ATOM     37  H   UNL d   1      10.485  -4.689   5.611  0.00  0.00     0.217 HD
ENDBRANCH  31  36
ENDBRANCH   1  26
TORSDOF 13
