@<TRIPOS>MOLECULE
*****
 56 58 0 0 0
SMALL
GASTEIGER

@<TRIPOS>ATOM
      1 C           1.0936    0.1350    0.0524 C.3     1  UNL1       -0.0221
      2 C           2.6092    0.0751    0.0471 C.ar    1  UNL1        0.0427
      3 N           3.3132    1.2465    0.0154 N.ar    1  UNL1       -0.2446
      4 C           4.6930    1.2153   -0.0285 C.ar    1  UNL1        0.1100
      5 S           5.3448    3.0067   -0.1508 S.3     1  UNL1       -0.0958
      6 C           7.1803    3.1328   -0.3126 C.3     1  UNL1        0.0765
      7 C           7.9438    4.3821   -0.4489 C.2     1  UNL1        0.2275
      8 O           7.4459    5.4739   -0.6647 O.2     1  UNL1       -0.2746
      9 N           9.3199    4.1267   -0.1227 N.am    1  UNL1       -0.2841
     10 C          10.1343    5.2416    0.0919 C.ar    1  UNL1        0.0456
     11 C          11.1948    5.4361   -0.8025 C.ar    1  UNL1       -0.0397
     12 C          11.6435    6.7356   -1.0028 C.ar    1  UNL1       -0.0600
     13 C          11.3014    7.7283   -0.0883 C.ar    1  UNL1       -0.0609
     14 C          10.3982    7.4598    0.9438 C.ar    1  UNL1       -0.0478
     15 C           9.7308    6.2374    0.9991 C.ar    1  UNL1        0.0582
     16 C           8.5747    6.1123    1.9711 C.2     1  UNL1        0.2500
     17 O           8.1880    7.1175    2.5611 O.2     1  UNL1       -0.2698
     18 N           8.0377    4.8469    2.1933 N.am    1  UNL1       -0.2815
     19 C           6.8063    4.5852    2.8240 C.ar    1  UNL1        0.0338
     20 C           6.6609    3.3757    3.4986 C.ar    1  UNL1       -0.0391
     21 C           5.6851    3.2882    4.4857 C.ar    1  UNL1       -0.0416
     22 C           4.6408    4.2088    4.5073 C.ar    1  UNL1        0.0411
     23 CL          3.3472    3.9973    5.6182 Cl      1  UNL1       -0.0835
     24 C           4.6300    5.2752    3.6154 C.ar    1  UNL1       -0.0416
     25 C           5.7554    5.5043    2.8247 C.ar    1  UNL1       -0.0391
     26 C           5.3931   -0.0485   -0.0025 C.ar    1  UNL1        0.0714
     27 C           6.9052   -0.2813    0.0496 C.2     1  UNL1        0.2444
     28 N           7.5276    0.8064    0.4648 N.am    1  UNL1       -0.3253
     29 O           7.6422   -1.2018   -0.1540 O.2     1  UNL1       -0.2703
     30 C           4.6489   -1.2345    0.0386 C.ar    1  UNL1       -0.0312
     31 C           5.3115   -2.5842    0.0630 C.3     1  UNL1       -0.0386
     32 C           3.2414   -1.1759    0.0487 C.ar    1  UNL1       -0.0257
     33 C           2.4450   -2.4545    0.0451 C.3     1  UNL1       -0.0377
     34 H           0.7111    1.1591    0.0538 H       1  UNL1        0.0293
     35 H           0.6935   -0.3735    0.9389 H       1  UNL1        0.0293
     36 H           0.6925   -0.3704   -0.8355 H       1  UNL1        0.0293
     37 H           7.5222    2.5125   -1.1399 H       1  UNL1        0.0475
     38 H           7.5690    2.8728    0.6879 H       1  UNL1        0.0475
     39 H           9.7752    3.2278   -0.2719 H       1  UNL1        0.1548
     40 H          11.5706    4.6440   -1.4449 H       1  UNL1        0.0636
     41 H          12.2255    6.9872   -1.8881 H       1  UNL1        0.0618
     42 H          11.7308    8.7217   -0.1797 H       1  UNL1        0.0618
     43 H          10.1562    8.2354    1.6640 H       1  UNL1        0.0626
     44 H           8.6063    4.0548    1.9357 H       1  UNL1        0.1551
     45 H           7.3462    2.5469    3.3563 H       1  UNL1        0.0636
     46 H           5.7708    2.5253    5.2538 H       1  UNL1        0.0633
     47 H           3.7891    5.9604    3.5716 H       1  UNL1        0.0633
     48 H           5.7958    6.3896    2.1937 H       1  UNL1        0.0636
     49 H           6.8050    1.4860    0.4593 H       1  UNL1        0.1453
     50 H           8.4683    0.9260    0.1173 H       1  UNL1        0.1453
     51 H           6.3840   -2.6229    0.0901 H       1  UNL1        0.0278
     52 H           5.0663   -3.1147   -0.8576 H       1  UNL1        0.0278
     53 H           5.0426   -3.1080    0.9805 H       1  UNL1        0.0278
     54 H           3.0784   -3.3438    0.0428 H       1  UNL1        0.0278
     55 H           1.8373   -2.5179   -0.8605 H       1  UNL1        0.0278
     56 H           1.8287   -2.5245    0.9436 H       1  UNL1        0.0278
@<TRIPOS>BOND
     1     1     2    1
     2     2     3   ar
     3     3     4   ar
     4     4     5    1
     5     5     6    1
     6     6     7    1
     7     7     8    2
     8     7     9   am
     9     9    10    1
    10    10    11   ar
    11    11    12   ar
    12    12    13   ar
    13    13    14   ar
    14    14    15   ar
    15    10    15   ar
    16    15    16    1
    17    16    17    2
    18    16    18   am
    19    18    19    1
    20    19    20   ar
    21    20    21   ar
    22    21    22   ar
    23    22    23    1
    24    22    24   ar
    25    24    25   ar
    26    19    25   ar
    27     4    26   ar
    28    26    27    1
    29    27    28   am
    30    27    29    2
    31    26    30   ar
    32    30    31    1
    33    30    32   ar
    34     2    32   ar
    35    32    33    1
    36     1    34    1
    37     1    35    1
    38     1    36    1
    39     6    37    1
    40     6    38    1
    41     9    39    1
    42    11    40    1
    43    12    41    1
    44    13    42    1
    45    14    43    1
    46    18    44    1
    47    20    45    1
    48    21    46    1
    49    24    47    1
    50    25    48    1
    51    28    49    1
    52    28    50    1
    53    31    51    1
    54    31    52    1
    55    31    53    1
    56    33    54    1
    57    33    55    1
    58    33    56    1
