REMARK  7 active torsions:
REMARK  status: ('A' for Active; 'I' for Inactive)
REMARK    1  A    between atoms: C_2  and  N_15 
REMARK    2  A    between atoms: C_3  and  C_4 
REMARK       I    between atoms: C_4  and  N_6 
REMARK    3  A    between atoms: N_6  and  C_7 
REMARK    4  A    between atoms: C_7  and  C_8 
REMARK    5  A    between atoms: N_15  and  N_16 
REMARK       I    between atoms: N_16  and  C_17 
REMARK    6  A    between atoms: C_17  and  C_19 
REMARK       I    between atoms: C_19  and  N_21 
REMARK    7  A    between atoms: N_21  and  C_22 
ROOT
ATOM      1  N   UNL d   1       3.371  -1.155   0.364  0.00  0.00    -0.302 N 
ATOM      2  H   UNL d   1       2.833  -1.966   0.691  0.00  0.00     0.186 HD
ENDROOT
BRANCH   1   3
ATOM      3  C   UNL d   1       2.635  -0.036  -0.076  0.00  0.00     0.027 C 
ATOM      4  C   UNL d   1       1.118  -0.212  -0.006  0.00  0.00     0.070 C 
ATOM      5  C   UNL d   1       3.183   1.119  -0.531  0.00  0.00     0.100 C 
BRANCH   5   6
ATOM      6  C   UNL d   1       2.439   2.330  -1.018  0.00  0.00     0.243 C 
ATOM      7  O   UNL d   1       1.215   2.425  -1.069  0.00  0.00    -0.269 OA
ATOM      8  N   UNL d   1       3.218   3.380  -1.424  0.00  0.00    -0.353 N 
ATOM      9  H   UNL d   1       4.222   3.353  -1.336  0.00  0.00     0.163 HD
BRANCH   8  10
ATOM     10  C   UNL d   1       2.556   4.579  -1.914  0.00  0.00     0.161 C 
BRANCH  10  11
ATOM     11  C   UNL d   1       3.498   5.674  -2.338  0.00  0.00    -0.040 A 
ATOM     12  C   UNL d   1       4.756   5.385  -2.885  0.00  0.00     0.010 A 
ATOM     13  C   UNL d   1       5.622   6.411  -3.258  0.00  0.00     0.024 A 
ATOM     14  C   UNL d   1       5.220   7.737  -3.128  0.00  0.00     0.034 A 
ATOM     15 CL   UNL d   1       6.299   8.997  -3.580  0.00  0.00    -0.084 Cl
ATOM     16  C   UNL d   1       3.952   8.045  -2.642  0.00  0.00     0.024 A 
ATOM     17  C   UNL d   1       3.092   7.016  -2.249  0.00  0.00     0.010 A 
ENDBRANCH  10  11
ENDBRANCH   8  10
ENDBRANCH   5   6
ENDBRANCH   1   3
BRANCH   1  18
ATOM     18  N   UNL d   1       4.779  -1.292   0.428  0.00  0.00    -0.262 N 
ATOM     19  C   UNL d   1       5.403  -2.456   0.898  0.00  0.00     0.328 C 
ATOM     20  O   UNL d   1       4.844  -3.478   1.286  0.00  0.00    -0.261 OA
ATOM     21  H   UNL d   1       5.356  -0.516   0.119  0.00  0.00     0.190 HD
BRANCH  19  22
ATOM     22  C   UNL d   1       6.966  -2.360   0.893  0.00  0.00     0.315 C 
ATOM     23  O   UNL d   1       7.462  -1.313   0.485  0.00  0.00    -0.262 OA
ATOM     24  N   UNL d   1       7.676  -3.503   1.297  0.00  0.00    -0.318 N 
ATOM     25  H   UNL d   1       7.142  -4.360   1.413  0.00  0.00     0.169 HD
BRANCH  24  26
ATOM     26  C   UNL d   1       9.106  -3.576   1.318  0.00  0.00     0.042 A 
ATOM     27  C   UNL d   1       9.839  -2.474   1.789  0.00  0.00     0.030 A 
ATOM     28  C   UNL d   1      11.236  -2.486   1.827  0.00  0.00     0.004 A 
ATOM     29  C   UNL d   1      11.932  -3.592   1.362  0.00  0.00     0.024 A 
ATOM     30  C   UNL d   1      11.230  -4.703   0.892  0.00  0.00     0.042 A 
ATOM     31 CL   UNL d   1      12.200  -6.007   0.285  0.00  0.00    -0.084 Cl
ATOM     32  C   UNL d   1       9.811  -4.733   0.892  0.00  0.00    -0.013 A 
ATOM     33  C   UNL d   1       9.072  -5.940   0.381  0.00  0.00     0.052 C 
ENDBRANCH  24  26
ENDBRANCH  19  22
ENDBRANCH   1  18
TORSDOF 7
