REMARK  5 active torsions:
REMARK  status: ('A' for Active; 'I' for Inactive)
REMARK    1  A    between atoms: C_4  and  O_5 
REMARK    2  A    between atoms: O_5  and  C_6 
REMARK    3  A    between atoms: C_16  and  N_17 
REMARK       I    between atoms: N_17  and  C_18 
REMARK    4  A    between atoms: C_18  and  C_20 
REMARK    5  A    between atoms: C_24  and  N_25 
REMARK       I    between atoms: N_25  and  C_26 
REMARK       I    between atoms: C_26  and  N_27 
ROOT
ATOM      1  C   UNL d   1      -3.236  -2.417  -0.008  0.00  0.00     0.076 A 
ATOM      2  C   UNL d   1      -3.944  -1.873  -1.082  0.00  0.00     0.039 A 
ATOM      3  C   UNL d   1      -5.340  -1.835  -1.053  0.00  0.00     0.025 A 
ATOM      4  C   UNL d   1      -6.037  -2.400   0.020  0.00  0.00     0.044 A 
ATOM      5  C   UNL d   1      -7.479  -2.355   0.041  0.00  0.00     0.099 C 
ATOM      6  N   UNL d   1      -8.629  -2.307   0.047  0.00  0.00    -0.191 NA
ATOM      7  C   UNL d   1      -5.326  -3.006   1.062  0.00  0.00     0.025 A 
ATOM      8  C   UNL d   1      -3.925  -3.020   1.046  0.00  0.00     0.039 A 
ENDROOT
BRANCH   1   9
ATOM      9  O   UNL d   1      -1.862  -2.408   0.021  0.00  0.00    -0.311 OA
BRANCH   9  10
ATOM     10  C   UNL d   1      -1.202  -1.194   0.048  0.00  0.00     0.076 C 
ATOM     11  C   UNL d   1       0.186  -1.262   0.122  0.00  0.00     0.046 C 
ATOM     12  C   UNL d   1       0.984  -0.101   0.230  0.00  0.00    -0.033 C 
ATOM     13  C   UNL d   1       2.443  -0.347   0.448  0.00  0.00     0.050 C 
ATOM     14  C   UNL d   1       0.393   1.176   0.098  0.00  0.00     0.041 C 
ATOM     15  C   UNL d   1      -1.015   1.239   0.050  0.00  0.00     0.033 C 
ATOM     16  C   UNL d   1      -1.796   0.067   0.047  0.00  0.00     0.039 C 
BRANCH  14  17
ATOM     17  N   UNL d   1       1.120   2.404  -0.058  0.00  0.00    -0.322 N 
ATOM     18  C   UNL d   1       2.507   2.608  -0.124  0.00  0.00     0.256 C 
ATOM     19  O   UNL d   1       3.051   3.376   0.666  0.00  0.00    -0.267 OA
ATOM     20  H   UNL d   1       0.599   3.248   0.167  0.00  0.00     0.169 HD
BRANCH  18  21
ATOM     21  C   UNL d   1       3.337   1.919  -1.196  0.00  0.00     0.034 C 
ATOM     22  C   UNL d   1       4.709   1.711  -1.063  0.00  0.00     0.017 C 
ATOM     23  C   UNL d   1       5.337   0.752  -1.886  0.00  0.00     0.003 C 
ATOM     24  C   UNL d   1       4.591  -0.061  -2.779  0.00  0.00     0.029 C 
ATOM     25  C   UNL d   1       3.205   0.114  -2.884  0.00  0.00     0.037 C 
ATOM     26  C   UNL d   1       2.661   1.191  -2.183  0.00  0.00     0.046 C 
BRANCH  25  27
ATOM     27  N   UNL d   1       2.375  -0.835  -3.551  0.00  0.00    -0.309 N 
ATOM     28  C   UNL d   1       1.014  -0.997  -3.640  0.00  0.00     0.318 C 
ATOM     29  N   UNL d   1       0.162  -0.182  -2.983  0.00  0.00    -0.352 N 
ATOM     30  O   UNL d   1       0.530  -1.876  -4.352  0.00  0.00    -0.247 OA
ATOM     31  H   UNL d   1       0.387   0.201  -2.088  0.00  0.00     0.160 HD
ATOM     32  H   UNL d   1      -0.815  -0.441  -2.990  0.00  0.00     0.160 HD
ATOM     33  H   UNL d   1       2.849  -1.566  -4.074  0.00  0.00     0.170 HD
ENDBRANCH  25  27
ENDBRANCH  18  21
ENDBRANCH  14  17
ENDBRANCH   9  10
ENDBRANCH   1   9
TORSDOF 5
