@<TRIPOS>MOLECULE
*****
 60 61 0 0 0
SMALL
GASTEIGER

@<TRIPOS>ATOM
      1 C           1.0390   -0.0130   -0.0689 C.3     1  UNL1       -0.0626
      2 C           2.5638   -0.0259   -0.0773 C.3     1  UNL1       -0.0436
      3 C           3.0561   -1.4303    0.2995 C.3     1  UNL1       -0.0626
      4 C           3.0792    0.4362   -1.4542 C.3     1  UNL1       -0.0163
      5 C           4.5991    0.4938   -1.4747 C.3     1  UNL1        0.0899
      6 O           5.0811    0.8203   -2.7700 O.3     1  UNL1       -0.4908
      7 C           6.4432    0.7349   -2.9177 C.ar    1  UNL1        0.1344
      8 C           6.9816    1.7782   -3.6787 C.ar    1  UNL1       -0.0181
      9 C           8.3263    1.7413   -4.0616 C.ar    1  UNL1       -0.0461
     10 C           9.1768    0.6871   -3.6578 C.ar    1  UNL1        0.0383
     11 C          10.5680    0.6388   -4.1996 C.2     1  UNL1        0.2496
     12 O          10.8134    1.5298   -5.0116 O.2     1  UNL1       -0.2698
     13 N          11.5372   -0.2694   -3.6917 N.am    1  UNL1       -0.2636
     14 C          12.9036   -0.3259   -4.0806 C.2     1  UNL1        0.1411
     15 S          13.5610    0.5289   -5.3751 S.2     1  UNL1       -0.0182
     16 N          13.6958   -1.1089   -3.1890 N.am    1  UNL1       -0.2960
     17 C          15.1434   -1.0689   -3.2042 C.ar    1  UNL1        0.0448
     18 C          15.8563   -2.2418   -3.5449 C.ar    1  UNL1       -0.0398
     19 C          17.2614   -2.2451   -3.6185 C.ar    1  UNL1       -0.0600
     20 C          17.9723   -1.0716   -3.3956 C.ar    1  UNL1       -0.0609
     21 C          17.2838    0.0881   -3.0333 C.ar    1  UNL1       -0.0478
     22 C          15.8758    0.1067   -2.9029 C.ar    1  UNL1        0.0578
     23 C          15.2694    1.4065   -2.4377 C.2     1  UNL1        0.2459
     24 O          15.9484    2.4419   -2.4414 O.2     1  UNL1       -0.2701
     25 N          13.9569    1.4061   -2.0093 N.am    1  UNL1       -0.3112
     26 C          13.1810    2.6359   -1.9385 C.3     1  UNL1        0.0140
     27 C          11.6854    2.3868   -1.8936 C.3     1  UNL1       -0.0141
     28 C          10.8373    3.6179   -1.6688 C.3     1  UNL1        0.0456
     29 O           9.4680    3.2398   -1.5879 O.3     1  UNL1       -0.3950
     30 C           8.6706   -0.2789   -2.8103 C.ar    1  UNL1       -0.0321
     31 C           7.3036   -0.3004   -2.4952 C.ar    1  UNL1        0.0602
     32 BR          6.8135   -1.9479   -1.6657 Br      1  UNL1       -0.0465
     33 H           0.6564   -0.2999    0.9158 H       1  UNL1        0.0232
     34 H           0.6394   -0.7164   -0.8074 H       1  UNL1        0.0232
     35 H           0.6575    0.9849   -0.3047 H       1  UNL1        0.0232
     36 H           2.9233    0.6788    0.6837 H       1  UNL1        0.0297
     37 H           2.7400   -2.1688   -0.4452 H       1  UNL1        0.0232
     38 H           2.6625   -1.7340    1.2743 H       1  UNL1        0.0232
     39 H           4.1453   -1.4799    0.3838 H       1  UNL1        0.0232
     40 H           2.6725    1.4198   -1.7166 H       1  UNL1        0.0300
     41 H           2.7316   -0.2535   -2.2354 H       1  UNL1        0.0300
     42 H           4.9078   -0.5003   -1.2161 H       1  UNL1        0.0696
     43 H           4.9848    1.1968   -0.7290 H       1  UNL1        0.0696
     44 H           6.3544    2.6114   -4.0008 H       1  UNL1        0.0655
     45 H           8.7186    2.5742   -4.6508 H       1  UNL1        0.0626
     46 H          11.2780   -0.8290   -2.8929 H       1  UNL1        0.1568
     47 H          13.3057   -1.9813   -2.8460 H       1  UNL1        0.1539
     48 H          15.3412   -3.1531   -3.8418 H       1  UNL1        0.0636
     49 H          17.8076   -3.1539   -3.8733 H       1  UNL1        0.0618
     50 H          19.0563   -1.0514   -3.5066 H       1  UNL1        0.0618
     51 H          17.8592    0.9947   -2.8463 H       1  UNL1        0.0626
     52 H          13.4675    0.5244   -2.0484 H       1  UNL1        0.1490
     53 H          13.4029    3.2255   -2.8379 H       1  UNL1        0.0463
     54 H          13.5092    3.1839   -1.0579 H       1  UNL1        0.0463
     55 H          11.3856    1.5407   -1.2612 H       1  UNL1        0.0302
     56 H          11.4387    2.1105   -2.8975 H       1  UNL1        0.0302
     57 H          10.9507    4.3140   -2.5079 H       1  UNL1        0.0557
     58 H          11.0958    4.1117   -0.7358 H       1  UNL1        0.0557
     59 H           9.1459    3.1908   -2.5028 H       1  UNL1        0.2094
     60 H           9.2999   -1.0723   -2.4319 H       1  UNL1        0.0637
@<TRIPOS>BOND
     1     1     2    1
     2     2     3    1
     3     2     4    1
     4     4     5    1
     5     5     6    1
     6     6     7    1
     7     7     8   ar
     8     8     9   ar
     9     9    10   ar
    10    10    11    1
    11    11    12    2
    12    11    13   am
    13    13    14    1
    14    14    15    2
    15    14    16    1
    16    16    17    1
    17    17    18   ar
    18    18    19   ar
    19    19    20   ar
    20    20    21   ar
    21    21    22   ar
    22    17    22   ar
    23    22    23    1
    24    23    24    2
    25    23    25   am
    26    25    26    1
    27    26    27    1
    28    27    28    1
    29    28    29    1
    30    10    30   ar
    31    30    31   ar
    32     7    31   ar
    33    31    32    1
    34     1    33    1
    35     1    34    1
    36     1    35    1
    37     2    36    1
    38     3    37    1
    39     3    38    1
    40     3    39    1
    41     4    40    1
    42     4    41    1
    43     5    42    1
    44     5    43    1
    45     8    44    1
    46     9    45    1
    47    13    46    1
    48    16    47    1
    49    18    48    1
    50    19    49    1
    51    20    50    1
    52    21    51    1
    53    25    52    1
    54    26    53    1
    55    26    54    1
    56    27    55    1
    57    27    56    1
    58    28    57    1
    59    28    58    1
    60    29    59    1
    61    30    60    1
