REMARK  5 active torsions:
REMARK  status: ('A' for Active; 'I' for Inactive)
REMARK    1  A    between atoms: C_2  and  C_3 
REMARK       I    between atoms: C_2  and  N_15 
REMARK    2  A    between atoms: C_4  and  C_5 
REMARK    3  A    between atoms: N_15  and  N_16 
REMARK       I    between atoms: N_16  and  C_17 
REMARK    4  A    between atoms: C_17  and  C_19 
REMARK    5  A    between atoms: C_19  and  C_20 
ROOT
ATOM      1  O   UNL d   1       1.021   0.099   0.044  0.00  0.00    -0.267 OA
ATOM      2  C   UNL d   1       2.252   0.040   0.062  0.00  0.00     0.259 C 
ATOM      3  N   UNL d   1       3.019   1.142  -0.207  0.00  0.00    -0.264 N 
ATOM      4  H   UNL d   1       2.528   2.011  -0.437  0.00  0.00     0.190 HD
ENDROOT
BRANCH   2   5
ATOM      5  C   UNL d   1       2.966  -1.219   0.369  0.00  0.00     0.076 C 
ATOM      6  C   UNL d   1       2.312  -2.354   0.665  0.00  0.00     0.018 C 
BRANCH   6   7
ATOM      7  C   UNL d   1       3.043  -3.607   0.952  0.00  0.00    -0.025 A 
ATOM      8  C   UNL d   1       4.131  -3.555   1.842  0.00  0.00     0.012 A 
ATOM      9  C   UNL d   1       4.895  -4.686   2.110  0.00  0.00     0.002 A 
ATOM     10  C   UNL d   1       4.567  -5.898   1.512  0.00  0.00     0.012 A 
ATOM     11  C   UNL d   1       3.454  -6.003   0.666  0.00  0.00    -0.025 A 
ATOM     12  C   UNL d   1       3.112  -7.249   0.114  0.00  0.00     0.012 A 
ATOM     13  C   UNL d   1       2.674  -4.853   0.372  0.00  0.00    -0.016 A 
ATOM     14  C   UNL d   1       2.008  -7.381  -0.726  0.00  0.00     0.001 A 
ATOM     15  C   UNL d   1       1.237  -6.267  -1.030  0.00  0.00     0.001 A 
ATOM     16  C   UNL d   1       1.569  -5.020  -0.495  0.00  0.00     0.013 A 
ENDBRANCH   6   7
ENDBRANCH   2   5
BRANCH   3  17
ATOM     17  N   UNL d   1       4.429   1.236  -0.184  0.00  0.00    -0.267 N 
ATOM     18  C   UNL d   1       4.958   2.428  -0.640  0.00  0.00     0.240 C 
ATOM     19  O   UNL d   1       4.184   3.306  -1.027  0.00  0.00    -0.272 OA
ATOM     20  H   UNL d   1       5.004   0.421  -0.028  0.00  0.00     0.190 HD
BRANCH  18  21
ATOM     21  C   UNL d   1       6.498   2.539  -0.602  0.00  0.00     0.143 C 
BRANCH  21  22
ATOM     22  C   UNL d   1       7.059   3.929  -0.879  0.00  0.00    -0.049 A 
ATOM     23  C   UNL d   1       8.380   4.133  -1.312  0.00  0.00     0.007 A 
ATOM     24  C   UNL d   1       8.880   5.437  -1.470  0.00  0.00     0.001 A 
ATOM     25  C   UNL d   1       8.050   6.543  -1.289  0.00  0.00     0.000 A 
ATOM     26  C   UNL d   1       6.745   6.355  -0.869  0.00  0.00     0.001 A 
ATOM     27  C   UNL d   1       6.285   5.069  -0.617  0.00  0.00     0.007 A 
ENDBRANCH  21  22
ENDBRANCH  18  21
ENDBRANCH   3  17
TORSDOF 5
