REMARK  12 active torsions:
REMARK  status: ('A' for Active; 'I' for Inactive)
REMARK    1  A    between atoms: C_2  and  C_3 
REMARK       I    between atoms: C_2  and  N_16 
REMARK    2  A    between atoms: C_3  and  C_4 
REMARK    3  A    between atoms: C_4  and  C_5 
REMARK    4  A    between atoms: C_5  and  O_7 
REMARK    5  A    between atoms: O_7  and  C_8 
REMARK    6  A    between atoms: C_8  and  C_9 
REMARK    7  A    between atoms: C_9  and  C_10 
REMARK    8  A    between atoms: N_16  and  C_17 
REMARK    9  A    between atoms: C_17  and  N_19 
REMARK   10  A    between atoms: N_19  and  C_20 
REMARK   11  A    between atoms: C_24  and  N_25 
REMARK       I    between atoms: N_25  and  C_26 
REMARK   12  A    between atoms: C_26  and  C_28 
ROOT
ATOM      1  C   UNL d   1       4.565  -1.060  -0.251  0.00  0.00     0.178 C 
ATOM      2  S   UNL d   1       5.526   0.316  -0.498  0.00  0.00    -0.040 SA
ENDROOT
BRANCH   1   3
ATOM      3  N   UNL d   1       3.156  -1.035  -0.091  0.00  0.00    -0.304 N 
ATOM      4  C   UNL d   1       2.238   0.034  -0.005  0.00  0.00     0.224 C 
ATOM      5  O   UNL d   1       1.026  -0.177  -0.028  0.00  0.00    -0.273 OA
ATOM      6  H   UNL d   1       2.665  -1.921  -0.117  0.00  0.00     0.171 HD
BRANCH   4   7
ATOM      7  C   UNL d   1       2.813   1.429   0.104  0.00  0.00     0.113 C 
BRANCH   7   8
ATOM      8  C   UNL d   1       1.887   2.620   0.193  0.00  0.00     0.120 C 
BRANCH   8   9
ATOM      9  C   UNL d   1       2.732   3.880   0.266  0.00  0.00     0.259 C 
ATOM     10  O   UNL d   1       3.957   3.911   0.275  0.00  0.00    -0.265 OA
BRANCH   9  11
ATOM     11  O   UNL d   1       1.938   4.990   0.319  0.00  0.00    -0.321 OA
BRANCH  11  12
ATOM     12  C   UNL d   1       2.706   6.197   0.423  0.00  0.00     0.183 C 
BRANCH  12  13
ATOM     13  C   UNL d   1       1.793   7.420   0.501  0.00  0.00     0.065 C 
BRANCH  13  14
ATOM     14  C   UNL d   1       2.532   8.737   0.616  0.00  0.00    -0.056 A 
ATOM     15  C   UNL d   1       3.864   8.809   1.056  0.00  0.00     0.007 A 
ATOM     16  C   UNL d   1       4.475  10.036   1.303  0.00  0.00     0.001 A 
ATOM     17  C   UNL d   1       3.795  11.216   1.030  0.00  0.00     0.000 A 
ATOM     18  C   UNL d   1       2.485  11.167   0.556  0.00  0.00     0.001 A 
ATOM     19  C   UNL d   1       1.851   9.936   0.363  0.00  0.00     0.007 A 
ENDBRANCH  13  14
ENDBRANCH  12  13
ENDBRANCH  11  12
ENDBRANCH   9  11
ENDBRANCH   8   9
ENDBRANCH   7   8
ENDBRANCH   4   7
ENDBRANCH   1   3
BRANCH   1  20
ATOM     20  N   UNL d   1       5.124  -2.362  -0.241  0.00  0.00    -0.333 N 
ATOM     21  H   UNL d   1       4.565  -3.168  -0.488  0.00  0.00     0.168 HD
BRANCH  20  22
ATOM     22  C   UNL d   1       6.541  -2.559  -0.164  0.00  0.00     0.036 A 
ATOM     23  C   UNL d   1       7.267  -3.376  -1.013  0.00  0.00     0.029 A 
ATOM     24  C   UNL d   1       8.670  -3.421  -0.873  0.00  0.00     0.004 A 
ATOM     25  C   UNL d   1       9.348  -2.611   0.070  0.00  0.00     0.029 A 
ATOM     26  C   UNL d   1       8.617  -1.804   0.939  0.00  0.00     0.037 A 
ATOM     27  C   UNL d   1       7.235  -1.849   0.817  0.00  0.00     0.059 A 
BRANCH  26  28
ATOM     28  N   UNL d   1       9.227  -0.971   1.919  0.00  0.00    -0.321 N 
ATOM     29  C   UNL d   1       8.542  -0.160   2.839  0.00  0.00     0.279 C 
ATOM     30  O   UNL d   1       7.310  -0.078   2.945  0.00  0.00    -0.265 OA
ATOM     31  H   UNL d   1      10.237  -1.001   1.987  0.00  0.00     0.169 HD
BRANCH  29  32
ATOM     32  C   UNL d   1       9.356   0.631   3.724  0.00  0.00     0.142 A 
ATOM     33  C   UNL d   1      10.532   1.326   3.529  0.00  0.00     0.045 A 
ATOM     34  C   UNL d   1      10.774   2.053   4.719  0.00  0.00     0.027 A 
ATOM     35  C   UNL d   1       9.750   1.742   5.582  0.00  0.00     0.143 A 
ATOM     36  O   UNL d   1       8.884   0.885   4.988  0.00  0.00    -0.317 OA
ENDBRANCH  29  32
ENDBRANCH  26  28
ENDBRANCH  20  22
ENDBRANCH   1  20
TORSDOF 12
