@<TRIPOS>MOLECULE
*****
 56 58 0 0 0
SMALL
GASTEIGER

@<TRIPOS>ATOM
      1 C           2.2397   -0.4134   -0.0012 C.3     1  UNL1       -0.0380
      2 C           0.8110   -0.0540    0.0080 C.ar    1  UNL1       -0.0292
      3 C           0.0917   -1.2494    0.0065 C.ar    1  UNL1       -0.0571
      4 C          -1.2661   -1.2053   -0.0001 C.ar    1  UNL1       -0.0614
      5 C          -1.8905    0.0388   -0.0080 C.ar    1  UNL1       -0.0600
      6 C          -1.1703    1.2529    0.0015 C.ar    1  UNL1       -0.0402
      7 C           0.2148    1.2600    0.0116 C.ar    1  UNL1        0.0364
      8 N           0.8617    2.5951    0.0351 N.am    1  UNL1       -0.2838
      9 C           2.1906    2.7382   -0.0103 C.2     1  UNL1        0.2372
     10 O           2.8044    1.7119   -0.1839 O.2     1  UNL1       -0.2735
     11 C           3.1768    3.8349    0.0066 C.3     1  UNL1        0.1051
     12 N           4.6945    3.3709   -0.0182 N.ar    1  UNL1       -0.2784
     13 C           5.5166    4.4705   -0.2104 C.ar    1  UNL1        0.3332
     14 O           4.9683    5.5361   -0.5092 O.2     1  UNL1       -0.2462
     15 N           6.8936    4.3266   -0.0270 N.ar    1  UNL1       -0.2601
     16 C           7.8066    5.4564    0.0027 C.3     1  UNL1        0.0333
     17 C           7.1567    6.8199    0.0829 C.3     1  UNL1       -0.0284
     18 C           6.3411    6.9462    1.3798 C.3     1  UNL1       -0.0610
     19 C           8.1875    7.9264    0.0284 C.3     1  UNL1       -0.0610
     20 C           7.5836    3.1272    0.0064 C.ar    1  UNL1        0.2651
     21 O           8.8097    3.0656    0.0203 O.2     1  UNL1       -0.2668
     22 C           6.7706    1.9587    0.0097 C.ar    1  UNL1        0.0741
     23 C           7.2324    0.5709    0.0174 C.ar    1  UNL1       -0.0168
     24 C           8.6347    0.1750    0.0345 C.3     1  UNL1       -0.0377
     25 C           6.2214   -0.3635    0.0098 C.ar    1  UNL1        0.0807
     26 C           6.1500   -1.8441    0.0059 C.2     1  UNL1        0.2643
     27 O           5.1095   -2.5096    0.0040 O.2     1  UNL1       -0.2683
     28 N           7.3847   -2.5015    0.0255 N.am    1  UNL1       -0.2491
     29 N           7.5316   -3.8980   -0.0224 N.3     1  UNL1       -0.2541
     30 S           4.8506    0.5388    0.0568 S.2     1  UNL1       -0.0653
     31 C           5.4098    2.1113    0.0208 C.ar    1  UNL1        0.0979
     32 H           2.5753   -1.4499    0.0069 H       1  UNL1        0.0278
     33 H           2.6134   -0.0123    0.9527 H       1  UNL1        0.0278
     34 H           2.6032   -0.0597   -0.9796 H       1  UNL1        0.0278
     35 H           0.6317   -2.1988    0.0071 H       1  UNL1        0.0621
     36 H          -1.8038   -2.1435   -0.0020 H       1  UNL1        0.0618
     37 H          -2.9714    0.0601   -0.0220 H       1  UNL1        0.0618
     38 H          -1.7193    2.1862    0.0012 H       1  UNL1        0.0636
     39 H           0.2692    3.4134    0.0102 H       1  UNL1        0.1549
     40 H           3.0314    4.4604    0.8955 H       1  UNL1        0.0589
     41 H           2.9958    4.4387   -0.8956 H       1  UNL1        0.0589
     42 H           8.4561    5.3732   -0.8808 H       1  UNL1        0.0497
     43 H           8.4720    5.3194    0.8712 H       1  UNL1        0.0497
     44 H           6.5449    6.9516   -0.8166 H       1  UNL1        0.0313
     45 H           7.0006    6.9371    2.2505 H       1  UNL1        0.0233
     46 H           5.6361    6.1308    1.5699 H       1  UNL1        0.0233
     47 H           5.7514    7.8635    1.3541 H       1  UNL1        0.0233
     48 H           8.8397    7.8881    0.9039 H       1  UNL1        0.0233
     49 H           7.6681    8.8886    0.0112 H       1  UNL1        0.0233
     50 H           8.7998    7.8492   -0.8751 H       1  UNL1        0.0233
     51 H           9.3283    0.9952    0.0498 H       1  UNL1        0.0278
     52 H           8.8114   -0.3955   -0.8809 H       1  UNL1        0.0278
     53 H           8.7845   -0.4055    0.9494 H       1  UNL1        0.0278
     54 H           8.2382   -1.9792   -0.0251 H       1  UNL1        0.1690
     55 H           6.5978   -4.3186    0.0157 H       1  UNL1        0.1405
     56 H           8.0103   -4.1887    0.8334 H       1  UNL1        0.1405
@<TRIPOS>BOND
     1     1     2    1
     2     2     3   ar
     3     3     4   ar
     4     4     5   ar
     5     5     6   ar
     6     6     7   ar
     7     2     7   ar
     8     7     8    1
     9     8     9   am
    10     9    10    2
    11     9    11    1
    12    11    12    1
    13    12    13   ar
    14    13    14    2
    15    13    15   ar
    16    15    16    1
    17    16    17    1
    18    17    18    1
    19    17    19    1
    20    15    20   ar
    21    20    21    2
    22    20    22   ar
    23    22    23   ar
    24    23    24    1
    25    23    25   ar
    26    25    26    1
    27    26    27    2
    28    26    28   am
    29    28    29    1
    30    25    30   ar
    31    30    31   ar
    32    22    31   ar
    33    12    31   ar
    34     1    32    1
    35     1    33    1
    36     1    34    1
    37     3    35    1
    38     4    36    1
    39     5    37    1
    40     6    38    1
    41     8    39    1
    42    11    40    1
    43    11    41    1
    44    16    42    1
    45    16    43    1
    46    17    44    1
    47    18    45    1
    48    18    46    1
    49    18    47    1
    50    19    48    1
    51    19    49    1
    52    19    50    1
    53    24    51    1
    54    24    52    1
    55    24    53    1
    56    28    54    1
    57    29    55    1
    58    29    56    1
