@<TRIPOS>MOLECULE
*****
 56 59 0 0 0
SMALL
GASTEIGER

@<TRIPOS>ATOM
      1 C           1.0574    0.0331    0.0682 C.3     1  UNL1        0.0820
      2 O           2.4948    0.0455    0.0805 O.3     1  UNL1       -0.4645
      3 C           3.0548   -1.1929    0.1704 C.2     1  UNL1        0.3389
      4 O           2.4517   -2.2449    0.2368 O.2     1  UNL1       -0.2450
      5 C           4.5454   -1.1210    0.1847 C.ar    1  UNL1        0.0592
      6 C           5.2886   -2.1170   -0.4618 C.ar    1  UNL1       -0.0443
      7 C           6.6870   -2.1759   -0.3074 C.ar    1  UNL1       -0.0192
      8 C           7.3702   -1.2035    0.4330 C.ar    1  UNL1        0.1207
      9 O           8.7441   -1.3004    0.4468 O.3     1  UNL1       -0.4890
     10 C           9.4579   -0.2605    1.1466 C.3     1  UNL1        0.1201
     11 C          10.9996   -0.4405    1.0607 C.3     1  UNL1        0.1191
     12 N          11.4258   -1.6938    1.6833 N.3     1  UNL1       -0.1784
     13 O          12.7980   -1.4509    2.1508 O.3     1  UNL1       -0.2698
     14 C          13.0479   -0.0657    1.9796 C.3     1  UNL1        0.2084
     15 C          13.8796    0.5801    3.1310 C.2     1  UNL1        0.2589
     16 O          15.0658    0.8864    2.9828 O.2     1  UNL1       -0.2714
     17 N          13.2527    0.8046    4.3413 N.am    1  UNL1       -0.3117
     18 C          13.9976    1.3971    5.4380 C.3     1  UNL1        0.0156
     19 C          13.1535    1.5584    6.6808 C.3     1  UNL1       -0.0092
     20 C          13.8161    2.1346    7.8930 C.2     1  UNL1        0.0092
     21 C          13.1068    2.3365    9.0032 C.ar    1  UNL1        0.0536
     22 C          11.7351    2.1012    9.2800 C.ar    1  UNL1       -0.0129
     23 C          11.2445    2.5662   10.4292 C.ar    1  UNL1        0.1244
     24 F           9.9197    2.5041   10.6527 F       1  UNL1       -0.2055
     25 C          12.0995    3.1640   11.4377 C.ar    1  UNL1       -0.0202
     26 C          13.4257    3.3666   11.2699 C.ar    1  UNL1        0.0125
     27 C          14.0149    2.9580    9.9732 C.ar    1  UNL1        0.2087
     28 N          15.2031    3.0542    9.5065 N.2     1  UNL1       -0.2369
     29 C          15.2399    2.5803    8.0838 C.3     1  UNL1        0.1661
     30 N          11.7458    0.5925    1.7892 N.3     1  UNL1       -0.2627
     31 C           6.6203   -0.2148    1.0768 C.ar    1  UNL1       -0.0192
     32 C           5.2195   -0.1699    0.9540 C.ar    1  UNL1       -0.0443
     33 H           0.7009    1.0608   -0.0585 H       1  UNL1        0.0661
     34 H           0.6674   -0.3461    1.0189 H       1  UNL1        0.0661
     35 H           0.6725   -0.5632   -0.7667 H       1  UNL1        0.0661
     36 H           4.7842   -2.8575   -1.0810 H       1  UNL1        0.0627
     37 H           7.2359   -3.0007   -0.7584 H       1  UNL1        0.0654
     38 H           9.1649   -0.2694    2.2029 H       1  UNL1        0.0727
     39 H           9.2033    0.7101    0.7004 H       1  UNL1        0.0727
     40 H          11.2962   -0.4439    0.0001 H       1  UNL1        0.0684
     41 H          11.5552   -2.3927    0.9464 H       1  UNL1        0.1558
     42 H          13.6546    0.0446    1.0721 H       1  UNL1        0.0888
     43 H          12.2707    0.5468    4.4172 H       1  UNL1        0.1488
     44 H          14.3761    2.3734    5.1136 H       1  UNL1        0.0465
     45 H          14.8597    0.7573    5.6564 H       1  UNL1        0.0465
     46 H          12.7477    0.5758    6.9580 H       1  UNL1        0.0327
     47 H          12.2875    2.1892    6.4307 H       1  UNL1        0.0327
     48 H          11.1036    1.6091    8.5506 H       1  UNL1        0.0654
     49 H          11.5937    3.4164   12.3669 H       1  UNL1        0.0648
     50 H          14.0205    3.8204   12.0537 H       1  UNL1        0.0684
     51 H          15.9852    3.4050   10.0598 H       1  UNL1        0.4459
     52 H          15.9607    1.7631    7.9975 H       1  UNL1        0.1077
     53 H          15.5184    3.4258    7.4458 H       1  UNL1        0.1077
     54 H          11.8758    1.4065    1.1930 H       1  UNL1        0.1265
     55 H           7.0926    0.5299    1.7077 H       1  UNL1        0.0654
     56 H           4.6636    0.5954    1.4891 H       1  UNL1        0.0627
@<TRIPOS>UNITY_ATOM_ATTR
28 1
charge 1
@<TRIPOS>BOND
     1     1     2    1
     2     2     3    1
     3     3     4    2
     4     3     5    1
     5     5     6   ar
     6     6     7   ar
     7     7     8   ar
     8     8     9    1
     9     9    10    1
    10    10    11    1
    11    11    12    1
    12    12    13    1
    13    13    14    1
    14    15    16    2
    15    15    17   am
    16    17    18    1
    17    18    19    1
    18    19    20    1
    19    20    21    2
    20    21    22   ar
    21    22    23   ar
    22    23    24    1
    23    23    25   ar
    24    25    26   ar
    25    26    27   ar
    26    21    27   ar
    27    27    28    2
    28    28    29    1
    29    20    29    1
    30    14    30    1
    31    11    30    1
    32     8    31   ar
    33    31    32   ar
    34     5    32   ar
    35    14    15    1
    36     1    33    1
    37     1    34    1
    38     1    35    1
    39     6    36    1
    40     7    37    1
    41    10    38    1
    42    10    39    1
    43    11    40    1
    44    12    41    1
    45    14    42    1
    46    17    43    1
    47    18    44    1
    48    18    45    1
    49    19    46    1
    50    19    47    1
    51    22    48    1
    52    25    49    1
    53    26    50    1
    54    28    51    1
    55    29    52    1
    56    29    53    1
    57    30    54    1
    58    31    55    1
    59    32    56    1
