@<TRIPOS>MOLECULE
*****
 58 62 0 0 0
SMALL
GASTEIGER

@<TRIPOS>ATOM
      1 O           1.0232   -0.4440    0.1475 O.2     1  UNL1       -0.2743
      2 C           2.2508   -0.3528    0.1177 C.2     1  UNL1        0.2296
      3 C           2.7687    0.9243   -0.2878 C.3     1  UNL1        0.0293
      4 C           1.7162    1.8977   -0.5694 C.3     1  UNL1       -0.0165
      5 C           2.7433    2.8941   -0.7419 C.2     1  UNL1        0.0081
      6 C           2.2270    4.4017   -0.3792 C.ar    1  UNL1        0.0509
      7 C           0.9908    5.1072    0.0156 C.ar    1  UNL1       -0.0482
      8 C           0.7209    6.4479   -0.0170 C.ar    1  UNL1       -0.0608
      9 C           1.5272    7.5311   -0.4684 C.ar    1  UNL1       -0.0555
     10 C           2.6016    7.1758   -1.1189 C.ar    1  UNL1        0.0098
     11 C           3.0808    5.5152   -1.4904 C.ar    1  UNL1        0.2086
     12 N           4.1331    4.7727   -2.6990 N.2     1  UNL1       -0.2369
     13 C           4.1150    2.7747   -2.3678 C.3     1  UNL1        0.1660
     14 N           3.1302   -1.3997    0.3529 N.am    1  UNL1       -0.2292
     15 N           4.6273   -1.3815    0.7266 N.am    1  UNL1       -0.1859
     16 C           5.1589   -2.5223    1.3825 C.2     1  UNL1        0.2669
     17 O           4.5046   -3.5563    1.4982 O.2     1  UNL1       -0.2683
     18 C           6.7432   -2.4897    1.5206 C.ar    1  UNL1        0.0593
     19 C           7.5199   -1.3397    1.7360 C.ar    1  UNL1       -0.0478
     20 C           8.8506   -1.1906    1.2304 C.ar    1  UNL1       -0.0609
     21 C           9.5061   -2.2554    0.6229 C.ar    1  UNL1       -0.0600
     22 C           8.7436   -3.3584    0.2988 C.ar    1  UNL1       -0.0400
     23 C           7.3285   -3.2506    0.5252 C.ar    1  UNL1        0.0414
     24 N           6.4319   -2.7379   -0.7843 N.pl3   1  UNL1       -0.3156
     25 C           5.5914   -1.1966   -0.3206 C.3     1  UNL1        0.1562
     26 S           5.4044    0.4641   -1.3009 S.3     1  UNL1       -0.1131
     27 C           5.3203    2.5032   -0.4219 C.3     1  UNL1        0.0222
     28 C           4.2366    4.0172   -1.0327 C.ar    1  UNL1       -0.0347
     29 C           2.6435    3.8368   -2.3330 C.ar    1  UNL1       -0.0576
     30 C           2.0228    4.9299   -3.3150 C.ar    1  UNL1       -0.0588
     31 C           2.9870    6.4360   -3.3234 C.ar    1  UNL1       -0.0264
     32 C           4.5321    6.7469   -2.2349 C.ar    1  UNL1        0.1237
     33 F           4.8038    7.9460   -1.6779 F       1  UNL1       -0.2055
     34 C           5.1140    5.5333   -0.9920 C.ar    1  UNL1       -0.0225
     35 H           3.1655    0.7833   -1.3013 H       1  UNL1        0.0362
     36 H           3.4052    1.3285    0.5209 H       1  UNL1        0.0362
     37 H           1.0976    2.2667    0.2418 H       1  UNL1        0.0317
     38 H           1.1775    1.7613   -1.5147 H       1  UNL1        0.0317
     39 H           0.1973    4.4276    0.2515 H       1  UNL1        0.0626
     40 H          -0.2299    6.8535    0.2979 H       1  UNL1        0.0618
     41 H           1.3003    8.6089   -0.5840 H       1  UNL1        0.0620
     42 H           2.9302    8.0394   -1.7558 H       1  UNL1        0.0683
     43 H           5.0471    5.0466   -3.0849 H       1  UNL1        0.4459
     44 H           5.2068    3.0183   -2.4427 H       1  UNL1        0.1077
     45 H           3.8859    2.4609   -3.3954 H       1  UNL1        0.1077
     46 H           2.6161   -2.1774    0.7553 H       1  UNL1        0.1731
     47 H           7.0134   -0.4571    2.1052 H       1  UNL1        0.0626
     48 H           9.3868   -0.2536    1.3536 H       1  UNL1        0.0618
     49 H          10.5777   -2.2125    0.4329 H       1  UNL1        0.0618
     50 H           9.2720   -4.3095    0.1225 H       1  UNL1        0.0636
     51 H           5.9740   -3.7193   -0.6381 H       1  UNL1        0.1487
     52 H           6.4060   -0.6231    0.0896 H       1  UNL1        0.0847
     53 H           6.0814    2.4592   -1.2500 H       1  UNL1        0.0426
     54 H           6.0426    2.9681    0.2528 H       1  UNL1        0.0426
     55 H           2.2081    2.8070   -2.6988 H       1  UNL1        0.0621
     56 H           0.9061    4.7402   -3.1451 H       1  UNL1        0.0619
     57 H           2.0342    7.0709   -3.2319 H       1  UNL1        0.0646
     58 H           5.6281    5.7146   -0.0413 H       1  UNL1        0.0649
@<TRIPOS>UNITY_ATOM_ATTR
12 1
charge 1
@<TRIPOS>BOND
     1     1     2    2
     2     2     3    1
     3     3     4    1
     4     4     5    1
     5     5     6    2
     6     6     7   ar
     7     7     8   ar
     8     8     9   ar
     9     9    10   ar
    10    10    11   ar
    11     6    11   ar
    12    11    12    2
    13    12    13    1
    14     5    13    1
    15     2    14   am
    16    14    15    1
    17    15    16   am
    18    16    17    2
    19    16    18    1
    20    18    19   ar
    21    19    20   ar
    22    20    21   ar
    23    21    22   ar
    24    22    23   ar
    25    18    23   ar
    26    23    24    1
    27    24    25    1
    28    15    25    1
    29    25    26    1
    30    26    27    1
    31    27    28    1
    32    28    29   ar
    33    29    30   ar
    34    30    31   ar
    35    31    32   ar
    36    32    33    1
    37    32    34   ar
    38    28    34   ar
    39     3    35    1
    40     3    36    1
    41     4    37    1
    42     4    38    1
    43     7    39    1
    44     8    40    1
    45     9    41    1
    46    10    42    1
    47    12    43    1
    48    13    44    1
    49    13    45    1
    50    14    46    1
    51    19    47    1
    52    20    48    1
    53    21    49    1
    54    22    50    1
    55    24    51    1
    56    25    52    1
    57    27    53    1
    58    27    54    1
    59    29    55    1
    60    30    56    1
    61    31    57    1
    62    34    58    1
