@<TRIPOS>MOLECULE
*****
 67 69 0 0 0
SMALL
GASTEIGER

@<TRIPOS>ATOM
      1 C           0.9954   -0.0783   -0.0591 C.3     1  UNL1       -0.0653
      2 C           2.5184   -0.0777   -0.0723 C.3     1  UNL1       -0.0552
      3 C           3.0587   -0.0164   -1.5037 C.3     1  UNL1       -0.0438
      4 C           4.5932   -0.0119   -1.5459 C.3     1  UNL1        0.0011
      5 S           5.1320    0.0823   -3.2914 S.3     1  UNL1       -0.0860
      6 C           6.8951    0.0579   -3.1197 C.ar    1  UNL1        0.1896
      7 N           7.5524    1.2281   -3.1230 N.ar    1  UNL1       -0.2295
      8 C           8.9090    1.1792   -3.1297 C.ar    1  UNL1        0.0455
      9 C           9.6440    0.0115   -3.1322 C.ar    1  UNL1        0.0916
     10 C          11.1263    0.0835   -3.0835 C.2     1  UNL1        0.2487
     11 O          11.7003    1.1833   -3.0793 O.2     1  UNL1       -0.2700
     12 N          11.8565   -1.0795   -3.0276 N.am    1  UNL1       -0.3055
     13 C          13.3246   -1.0955   -3.0570 C.3     1  UNL1        0.0593
     14 C          13.9332   -2.5503   -3.0857 C.3     1  UNL1        0.0244
     15 C          13.4524   -3.4096   -4.3055 C.ar    1  UNL1        0.0466
     16 C          12.7426   -2.7928   -5.3847 C.ar    1  UNL1       -0.0079
     17 C          12.2322   -3.5282   -6.4729 C.ar    1  UNL1        0.1208
     18 O          11.3520   -2.8889   -7.3078 O.3     1  UNL1       -0.4951
     19 C          10.7312   -3.7357   -8.2867 C.3     1  UNL1        0.0788
     20 C          12.6082   -4.8487   -6.6289 C.ar    1  UNL1       -0.0165
     21 C          13.2733   -5.4848   -5.6069 C.ar    1  UNL1       -0.0160
     22 C          13.5562   -4.8247   -4.4101 C.ar    1  UNL1        0.1289
     23 O          13.8055   -5.8040   -3.4749 O.3     1  UNL1       -0.4946
     24 C          14.0167   -5.3968   -2.1671 C.3     1  UNL1        0.0788
     25 N          15.6102   -2.5401   -2.8145 N.4     1  UNL1        0.2419
     26 C          16.0410   -1.3410   -1.9953 C.3     1  UNL1       -0.0313
     27 C          17.5470   -1.3873   -1.7442 C.3     1  UNL1       -0.0123
     28 C          17.9624   -2.6262   -0.9641 C.3     1  UNL1       -0.0434
     29 C          17.7506   -3.7866   -1.8878 C.3     1  UNL1       -0.0123
     30 C          16.2824   -3.8138   -2.1830 C.3     1  UNL1       -0.0313
     31 C           8.8519   -1.1202   -3.1547 C.ar    1  UNL1        0.1456
     32 CL          9.4642   -2.7355   -3.2028 Cl      1  UNL1       -0.0611
     33 N           7.5011   -1.1323   -3.1428 N.ar    1  UNL1       -0.2095
     34 H           0.6208   -0.1217    0.9685 H       1  UNL1        0.0230
     35 H           0.5990   -0.9430   -0.6013 H       1  UNL1        0.0230
     36 H           0.5989    0.8292   -0.5264 H       1  UNL1        0.0230
     37 H           2.8816   -0.9829    0.4275 H       1  UNL1        0.0263
     38 H           2.8813    0.7820    0.5025 H       1  UNL1        0.0263
     39 H           2.6676    0.8881   -1.9878 H       1  UNL1        0.0273
     40 H           2.6699   -0.8775   -2.0631 H       1  UNL1        0.0273
     41 H           4.9816   -0.9238   -1.0791 H       1  UNL1        0.0381
     42 H           4.9794    0.8516   -0.9943 H       1  UNL1        0.0381
     43 H           9.3905    2.1568   -3.1332 H       1  UNL1        0.0839
     44 H          11.3517   -1.9624   -3.0970 H       1  UNL1        0.1492
     45 H          13.6123   -0.5772   -2.1370 H       1  UNL1        0.0522
     46 H          13.6733   -0.4975   -3.9053 H       1  UNL1        0.0522
     47 H          13.5013   -2.9520   -2.1619 H       1  UNL1        0.0921
     48 H          12.4963   -1.7296   -5.3983 H       1  UNL1        0.0660
     49 H           9.9750   -3.1635   -8.8288 H       1  UNL1        0.0660
     50 H          10.2248   -4.5959   -7.8261 H       1  UNL1        0.0660
     51 H          11.4806   -4.0730   -9.0112 H       1  UNL1        0.0660
     52 H          12.3363   -5.4456   -7.4908 H       1  UNL1        0.0655
     53 H          13.4870   -6.5485   -5.6962 H       1  UNL1        0.0655
     54 H          14.7796   -5.9793   -1.6439 H       1  UNL1        0.0660
     55 H          13.1934   -5.0283   -1.5604 H       1  UNL1        0.0660
     56 H          14.4799   -4.4927   -2.3626 H       1  UNL1        0.0660
     57 H          15.9938   -2.4635   -3.7643 H       1  UNL1        0.2040
     58 H          15.4734   -1.3686   -1.0570 H       1  UNL1        0.0814
     59 H          15.7893   -0.4458   -2.5682 H       1  UNL1        0.0814
     60 H          17.8599   -0.5005   -1.1952 H       1  UNL1        0.0317
     61 H          18.0562   -1.3900   -2.7166 H       1  UNL1        0.0317
     62 H          17.3354   -2.7463   -0.0669 H       1  UNL1        0.0269
     63 H          19.0016   -2.5987   -0.6347 H       1  UNL1        0.0269
     64 H          18.0360   -4.7331   -1.4018 H       1  UNL1        0.0317
     65 H          18.3115   -3.7286   -2.8250 H       1  UNL1        0.0317
     66 H          15.7889   -3.9625   -1.2049 H       1  UNL1        0.0814
     67 H          16.2026   -4.6382   -2.8952 H       1  UNL1        0.0814
@<TRIPOS>UNITY_ATOM_ATTR
25 1
charge 1
@<TRIPOS>BOND
     1     1     2    1
     2     2     3    1
     3     3     4    1
     4     4     5    1
     5     5     6    1
     6     6     7   ar
     7     7     8   ar
     8     8     9   ar
     9     9    10    1
    10    10    11    2
    11    10    12   am
    12    12    13    1
    13    13    14    1
    14    14    15    1
    15    15    16   ar
    16    16    17   ar
    17    17    18    1
    18    18    19    1
    19    17    20   ar
    20    20    21   ar
    21    21    22   ar
    22    15    22   ar
    23    22    23    1
    24    23    24    1
    25    14    25    1
    26    25    26    1
    27    26    27    1
    28    27    28    1
    29    28    29    1
    30    29    30    1
    31    25    30    1
    32     9    31   ar
    33    31    32    1
    34    31    33   ar
    35     6    33   ar
    36     1    34    1
    37     1    35    1
    38     1    36    1
    39     2    37    1
    40     2    38    1
    41     3    39    1
    42     3    40    1
    43     4    41    1
    44     4    42    1
    45     8    43    1
    46    12    44    1
    47    13    45    1
    48    13    46    1
    49    14    47    1
    50    16    48    1
    51    19    49    1
    52    19    50    1
    53    19    51    1
    54    20    52    1
    55    21    53    1
    56    24    54    1
    57    24    55    1
    58    24    56    1
    59    25    57    1
    60    26    58    1
    61    26    59    1
    62    27    60    1
    63    27    61    1
    64    28    62    1
    65    28    63    1
    66    29    64    1
    67    29    65    1
    68    30    66    1
    69    30    67    1
