REMARK  5 active torsions:
REMARK  status: ('A' for Active; 'I' for Inactive)
REMARK    1  A    between atoms: C_2  and  C_3 
REMARK       I    between atoms: C_3  and  N_5 
REMARK    2  A    between atoms: N_5  and  C_6 
REMARK    3  A    between atoms: C_10  and  C_11 
REMARK       I    between atoms: C_11  and  N_13 
REMARK    4  A    between atoms: N_13  and  N_14 
REMARK       I    between atoms: N_14  and  C_15 
REMARK    5  A    between atoms: C_15  and  C_17 
ROOT
ATOM      1  C   UNL d   1       4.451  -5.523   3.469  0.00  0.00     0.270 C 
ATOM      2  O   UNL d   1       5.048  -6.370   4.145  0.00  0.00    -0.266 OA
ATOM      3  N   UNL d   1       3.282  -5.831   2.790  0.00  0.00    -0.263 N 
ATOM      4  H   UNL d   1       2.741  -5.174   2.227  0.00  0.00     0.190 HD
ENDROOT
BRANCH   1   5
ATOM      5  C   UNL d   1       5.011  -4.129   3.341  0.00  0.00     0.035 A 
ATOM      6  C   UNL d   1       6.231  -3.806   3.958  0.00  0.00     0.017 A 
ATOM      7  C   UNL d   1       6.816  -2.544   3.771  0.00  0.00     0.003 A 
ATOM      8  C   UNL d   1       6.184  -1.581   2.977  0.00  0.00     0.029 A 
ATOM      9  C   UNL d   1       4.981  -1.891   2.344  0.00  0.00     0.035 A 
ATOM     10  C   UNL d   1       4.394  -3.149   2.555  0.00  0.00     0.046 A 
BRANCH   9  11
ATOM     11  N   UNL d   1       4.406  -0.980   1.421  0.00  0.00    -0.327 N 
ATOM     12  C   UNL d   1       3.038  -0.881   1.220  0.00  0.00     0.221 C 
ATOM     13  O   UNL d   1       2.206  -1.469   1.910  0.00  0.00    -0.273 OA
ATOM     14  H   UNL d   1       5.029  -0.334   0.950  0.00  0.00     0.169 HD
BRANCH  12  15
ATOM     15  C   UNL d   1       2.606   0.043   0.093  0.00  0.00     0.098 C 
ATOM     16  C   UNL d   1       1.081   0.091   0.028  0.00  0.00     0.014 C 
ENDBRANCH  12  15
ENDBRANCH   9  11
ENDBRANCH   1   5
BRANCH   3  17
ATOM     17  N   UNL d   1       2.740  -7.151   2.843  0.00  0.00    -0.265 N 
ATOM     18  C   UNL d   1       1.583  -7.387   2.125  0.00  0.00     0.265 C 
ATOM     19  O   UNL d   1       1.087  -6.464   1.463  0.00  0.00    -0.269 OA
ATOM     20  H   UNL d   1       3.227  -7.817   3.436  0.00  0.00     0.190 HD
BRANCH  18  21
ATOM     21  C   UNL d   1       0.858  -8.758   2.264  0.00  0.00     0.215 C 
ATOM     22  C   UNL d   1       1.580 -10.088   2.457  0.00  0.00     0.044 C 
ATOM     23  C   UNL d   1       0.649 -11.078   1.772  0.00  0.00     0.029 C 
ATOM     24  C   UNL d   1       0.114 -10.276   0.615  0.00  0.00     0.168 C 
ATOM     25  O   UNL d   1       0.037  -8.930   1.080  0.00  0.00    -0.376 OA
ENDBRANCH  18  21
ENDBRANCH   3  17
TORSDOF 5
