@<TRIPOS>MOLECULE
*****
 56 59 0 0 0
SMALL
GASTEIGER

@<TRIPOS>ATOM
      1 C          -2.6684    3.0917    2.0266 C.3     0  UNK0       -0.0613
      2 C          -1.8659    2.5885    0.8313 C.3     0  UNK0       -0.0305
      3 C          -0.4018    2.8092    1.1159 C.ar    0  UNK0       -0.0476
      4 C           0.3946    1.7914    1.6468 C.ar    0  UNK0       -0.0582
      5 C           1.6854    2.0769    2.1119 C.ar    0  UNK0       -0.0549
      6 C           2.2490    3.3600    1.9573 C.ar    0  UNK0       -0.0082
      7 C           3.7420    3.5625    2.1655 C.3     0  UNK0        0.1281
      8 N           4.1827    4.5505    3.1073 N.pl3   0  UNK0       -0.2424
      9 N           4.4552    5.7791    2.5424 N.2     0  UNK0       -0.1627
     10 C           4.5308    5.5650    1.2845 C.2     0  UNK0        0.1730
     11 S           4.9287    6.6616    0.0132 S.3     0  UNK0       -0.0798
     12 C           4.5469    8.2760    0.7461 C.3     0  UNK0        0.0774
     13 C           4.7400    9.4934   -0.1475 C.2     0  UNK0        0.2238
     14 O           5.0654    9.4664   -1.3040 O.2     0  UNK0       -0.2749
     15 N           4.4787   10.6754    0.5125 N.am    1  TRP1       -0.3063
     16 CA          3.8598   10.9290    1.8792 C.3     1  TRP1        0.0666
     17 CB          2.7952    9.7249    2.6307 C.3     1  TRP1       -0.0019
     18 CG          3.1586    8.3131    3.6425 C.ar    1  TRP1       -0.0203
     19 CD1         3.8119    8.8351    4.7450 C.ar    1  TRP1        0.0060
     20 NE1         4.7833    7.8632    4.7988 N.ar    1  TRP1       -0.3604
     21 CE2         4.0783    6.8128    5.3174 C.ar    1  TRP1        0.0467
     22 CZ2         4.5677    5.9556    6.3181 C.ar    1  TRP1       -0.0378
     23 CH2         3.8430    4.9228    6.8389 C.ar    1  TRP1       -0.0598
     24 CZ3         2.6012    4.7616    6.2570 C.ar    1  TRP1       -0.0611
     25 CE3         2.0918    5.6612    5.1107 C.ar    1  TRP1       -0.0523
     26 CD2         2.8641    6.8651    4.5863 C.ar    1  TRP1        0.0029
     27 C           2.9956   12.3262    1.6783 C.2     1  TRP1        0.0623
     28 O           1.8017   12.2900    2.0798 O.co2   1  TRP1       -0.5479
     29 OXT         3.6140   13.2558    1.0675 O.co2   1  TRP1       -0.5479
     30 N           4.3049    4.1940    0.9730 N.pl3   0  UNK0       -0.2996
     31 C           1.4201    4.3766    1.4508 C.ar    0  UNK0       -0.0549
     32 C           0.1242    4.0999    1.0129 C.ar    0  UNK0       -0.0582
     33 H          -3.7401    2.9607    1.8621 H       0  UNK0        0.0233
     34 H          -2.4817    4.1570    2.2091 H       0  UNK0        0.0233
     35 H          -2.3882    2.5532    2.9395 H       0  UNK0        0.0233
     36 H          -2.1597    3.1281   -0.0774 H       0  UNK0        0.0311
     37 H          -2.0763    1.5276    0.6518 H       0  UNK0        0.0311
     38 H           0.0097    0.7743    1.7106 H       0  UNK0        0.0620
     39 H           2.2457    1.2734    2.5870 H       0  UNK0        0.0621
     40 H           4.2368    2.6144    2.3957 H       0  UNK0        0.0772
     41 H           3.7804    4.5111    4.0379 H       0  UNK0        0.1705
     42 H           5.1464    8.4600    1.6447 H       0  UNK0        0.0475
     43 H           3.4807    8.2605    0.9490 H       0  UNK0        0.0475
     44 H           4.6117   11.5306   -0.0516 H       1  TRP1        0.1494
     45 HA          4.7046   11.2731    2.5085 H       1  TRP1        0.0563
     46 HB1         2.4107   10.3793    3.4260 H       1  TRP1        0.0335
     47 HB2         2.0353    9.5060    1.8909 H       1  TRP1        0.0335
     48 HD1         3.1825    9.0532    5.6156 H       1  TRP1        0.0810
     49 HE1         5.3942    7.6198    4.0329 H       1  TRP1        0.1653
     50 HZ2         5.5397    6.1980    6.7176 H       1  TRP1        0.0638
     51 HH2         4.2783    4.3255    7.6496 H       1  TRP1        0.0618
     52 HZ3         2.0241    3.9239    6.6870 H       1  TRP1        0.0618
     53 HE3         1.1400    5.2621    4.7449 H       1  TRP1        0.0624
     54 H           4.6725    3.7580    0.1559 H       0  UNK0        0.1501
     55 H           1.7673    5.4037    1.3734 H       0  UNK0        0.0621
     56 H          -0.4865    4.9049    0.6048 H       0  UNK0        0.0620
@<TRIPOS>UNITY_ATOM_ATTR
29 1
charge -1
@<TRIPOS>BOND
     1     1     2    1
     2     2     3    1
     3     3     4   ar
     4     4     5   ar
     5     5     6   ar
     6     6     7    1
     7     7     8    1
     8     8     9    1
     9     9    10    2
    10    10    11    1
    11    11    12    1
    12    12    13    1
    13    13    14    2
    14    13    15   am
    15    17    18    1
    16    18    19   ar
    17    19    20   ar
    18    20    21   ar
    19    21    22   ar
    20    22    23   ar
    21    23    24   ar
    22    24    25   ar
    23    25    26   ar
    24    18    26   ar
    25    21    26   ar
    26    16    27    1
    27    27    28   ar
    28    27    29   ar
    29    10    30    1
    30     7    30    1
    31     6    31   ar
    32    31    32   ar
    33     3    32   ar
    34    16    17    1
    35    16    15    1
    36     1    33    1
    37     1    34    1
    38     1    35    1
    39     2    36    1
    40     2    37    1
    41     4    38    1
    42     5    39    1
    43     7    40    1
    44     8    41    1
    45    12    42    1
    46    12    43    1
    47    15    44    1
    48    16    45    1
    49    17    46    1
    50    17    47    1
    51    19    48    1
    52    20    49    1
    53    22    50    1
    54    23    51    1
    55    24    52    1
    56    25    53    1
    57    30    54    1
    58    31    55    1
    59    32    56    1
