REMARK  9 active torsions:
REMARK  status: ('A' for Active; 'I' for Inactive)
REMARK    1  A    between atoms: O_2  and  C_3 
REMARK    2  A    between atoms: C_6  and  C_7 
REMARK    3  A    between atoms: N_8  and  N_9 
REMARK       I    between atoms: N_9  and  C_10 
REMARK    4  A    between atoms: C_10  and  C_12 
REMARK    5  A    between atoms: C_12  and  S_13 
REMARK    6  A    between atoms: S_13  and  C_14 
REMARK    7  A    between atoms: C_24  and  O_25 
REMARK    8  A    between atoms: O_25  and  C_26 
REMARK    9  A    between atoms: C_26  and  C_27 
ROOT
ATOM      1  C   UNL d   1       5.408   2.312   4.349  0.00  0.00     0.150 C 
ATOM      2  N   UNL d   1       4.968   2.248   5.574  0.00  0.00    -0.184 NA
ENDROOT
BRANCH   2   3
ATOM      3  N   UNL d   1       5.686   2.828   6.614  0.00  0.00    -0.247 N 
ATOM      4  C   UNL d   1       5.149   2.736   7.912  0.00  0.00     0.247 C 
ATOM      5  O   UNL d   1       4.100   2.136   8.159  0.00  0.00    -0.271 OA
ATOM      6  H   UNL d   1       6.551   3.302   6.380  0.00  0.00     0.192 HD
BRANCH   4   7
ATOM      7  C   UNL d   1       5.942   3.418   9.086  0.00  0.00     0.182 C 
BRANCH   7   8
ATOM      8  S   UNL d   1       4.807   3.394  10.697  0.00  0.00    -0.104 SA
BRANCH   8   9
ATOM      9  C   UNL d   1       5.814   3.866  12.138  0.00  0.00     0.385 C 
ATOM     10  N   UNL d   1       5.863   2.806  13.192  0.00  0.00     0.139 N 
ATOM     11  C   UNL d   1       6.362   3.470  14.200  0.00  0.00     0.265 C 
ATOM     12  H   UNL d   1       4.868   2.527  13.265  0.00  0.00     0.321 HD
ATOM     13  C   UNL d   1       7.748   4.071  14.371  0.00  0.00     0.024 C 
ATOM     14  C   UNL d   1       5.489   4.640  14.418  0.00  0.00     0.053 C 
ATOM     15  C   UNL d   1       7.947   4.682  15.558  0.00  0.00    -0.001 C 
ATOM     16  C   UNL d   1       6.825   4.767  16.459  0.00  0.00     0.002 C 
ATOM     17  C   UNL d   1       5.575   4.889  15.929  0.00  0.00     0.028 C 
ATOM     18  N   UNL d   1       5.401   5.081  13.177  0.00  0.00    -0.353 N 
ATOM     19  H   UNL d   1       5.615   6.025  12.830  0.00  0.00     0.162 HD
ENDBRANCH   8   9
ENDBRANCH   7   8
ENDBRANCH   4   7
ENDBRANCH   2   3
BRANCH   1  20
ATOM     20  C   UNL d   1       4.625   1.742   3.197  0.00  0.00    -0.014 A 
ATOM     21  C   UNL d   1       5.046   1.860   1.869  0.00  0.00     0.016 A 
ATOM     22  C   UNL d   1       4.219   1.407   0.810  0.00  0.00     0.040 A 
ATOM     23  C   UNL d   1       2.986   0.759   1.041  0.00  0.00     0.101 A 
ATOM     24  C   UNL d   1       2.594   0.614   2.399  0.00  0.00     0.103 A 
ATOM     25  C   UNL d   1       3.409   1.111   3.441  0.00  0.00     0.052 A 
BRANCH  23  26
ATOM     26  O   UNL d   1       2.499   0.120  -0.089  0.00  0.00    -0.353 OA
ATOM     27  C   UNL d   1       1.172   0.275  -0.623  0.00  0.00     0.210 C 
ENDBRANCH  23  26
BRANCH  24  28
ATOM     28  O   UNL d   1       1.488  -0.005   2.959  0.00  0.00    -0.344 OA
BRANCH  28  29
ATOM     29  C   UNL d   1       0.601  -0.396   1.955  0.00  0.00     0.214 C 
BRANCH  29  30
ATOM     30  C   UNL d   1      -0.704  -1.001   2.318  0.00  0.00    -0.034 C 
ATOM     31  C   UNL d   1      -1.771  -0.174   2.667  0.00  0.00     0.009 C 
ATOM     32  C   UNL d   1      -2.903  -0.747   3.212  0.00  0.00     0.001 C 
ATOM     33  C   UNL d   1      -3.014  -2.138   3.264  0.00  0.00     0.000 C 
ATOM     34  C   UNL d   1      -2.017  -2.958   2.736  0.00  0.00     0.001 C 
ATOM     35  C   UNL d   1      -0.860  -2.386   2.244  0.00  0.00     0.009 C 
ENDBRANCH  29  30
ENDBRANCH  28  29
ENDBRANCH  24  28
ENDBRANCH   1  20
TORSDOF 9
