REMARK  12 active torsions:
REMARK  status: ('A' for Active; 'I' for Inactive)
REMARK    1  A    between atoms: C_2  and  O_3 
REMARK    2  A    between atoms: O_3  and  C_4 
REMARK    3  A    between atoms: C_4  and  C_5 
REMARK    4  A    between atoms: C_5  and  O_6 
REMARK    5  A    between atoms: O_6  and  C_7 
REMARK    6  A    between atoms: C_10  and  C_11 
REMARK       I    between atoms: C_11  and  N_13 
REMARK    7  A    between atoms: N_13  and  C_14 
REMARK    8  A    between atoms: C_14  and  N_16 
REMARK    9  A    between atoms: N_16  and  N_17 
REMARK       I    between atoms: N_17  and  C_18 
REMARK   10  A    between atoms: C_18  and  C_20 
REMARK   11  A    between atoms: C_23  and  N_24 
REMARK       I    between atoms: N_24  and  C_25 
REMARK   12  A    between atoms: C_25  and  C_27 
ROOT
ATOM      1  N   UNL d   1       9.549  -8.246   7.337  0.00  0.00    -0.273 N 
ATOM      2  H   UNL d   1       8.677  -8.647   6.997  0.00  0.00     0.189 HD
ENDROOT
BRANCH   1   3
ATOM      3  C   UNL d   1      10.064  -6.970   7.033  0.00  0.00     0.193 C 
ATOM      4  S   UNL d   1      11.532  -6.492   7.719  0.00  0.00    -0.039 SA
BRANCH   3   5
ATOM      5  N   UNL d   1       9.280  -6.185   6.147  0.00  0.00    -0.298 N 
ATOM      6  C   UNL d   1       9.589  -4.875   5.688  0.00  0.00     0.257 C 
ATOM      7  O   UNL d   1      10.612  -4.271   6.007  0.00  0.00    -0.267 OA
ATOM      8  H   UNL d   1       8.411  -6.588   5.837  0.00  0.00     0.171 HD
BRANCH   6   9
ATOM      9  C   UNL d   1       8.660  -4.096   4.787  0.00  0.00     0.032 A 
ATOM     10  C   UNL d   1       9.038  -2.773   4.447  0.00  0.00     0.020 A 
ATOM     11  C   UNL d   1       8.196  -1.928   3.710  0.00  0.00     0.038 A 
ATOM     12  C   UNL d   1       6.987  -2.406   3.216  0.00  0.00     0.068 A 
ATOM     13  C   UNL d   1       6.614  -3.718   3.515  0.00  0.00     0.038 A 
ATOM     14  C   UNL d   1       7.442  -4.559   4.294  0.00  0.00     0.020 A 
BRANCH  12  15
ATOM     15  O   UNL d   1       6.328  -1.562   2.366  0.00  0.00    -0.349 OA
BRANCH  15  16
ATOM     16  C   UNL d   1       4.903  -1.657   2.310  0.00  0.00     0.201 C 
BRANCH  16  17
ATOM     17  C   UNL d   1       4.401  -0.778   1.164  0.00  0.00     0.194 C 
BRANCH  17  18
ATOM     18  O   UNL d   1       2.972  -0.774   1.133  0.00  0.00    -0.389 OA
BRANCH  18  19
ATOM     19  C   UNL d   1       2.488   0.053   0.074  0.00  0.00     0.163 C 
ATOM     20  C   UNL d   1       0.973   0.046   0.084  0.00  0.00     0.033 C 
ENDBRANCH  18  19
ENDBRANCH  17  18
ENDBRANCH  16  17
ENDBRANCH  15  16
ENDBRANCH  12  15
ENDBRANCH   6   9
ENDBRANCH   3   5
ENDBRANCH   1   3
BRANCH   1  21
ATOM     21  N   UNL d   1      10.298  -9.107   8.245  0.00  0.00    -0.264 N 
ATOM     22  C   UNL d   1       9.891 -10.404   8.528  0.00  0.00     0.270 C 
ATOM     23  O   UNL d   1       8.870 -10.896   8.054  0.00  0.00    -0.266 OA
ATOM     24  H   UNL d   1      11.184  -8.721   8.574  0.00  0.00     0.190 HD
BRANCH  22  25
ATOM     25  C   UNL d   1      10.730 -11.215   9.485  0.00  0.00     0.033 A 
ATOM     26  C   UNL d   1      10.828 -12.613   9.344  0.00  0.00     0.019 A 
ATOM     27  C   UNL d   1      11.414 -13.419  10.352  0.00  0.00     0.030 A 
ATOM     28  C   UNL d   1      11.983 -12.831  11.487  0.00  0.00     0.034 A 
ATOM     29  C   UNL d   1      11.883 -11.441  11.608  0.00  0.00     0.030 A 
ATOM     30  C   UNL d   1      11.280 -10.638  10.627  0.00  0.00     0.019 A 
BRANCH  28  31
ATOM     31  N   UNL d   1      12.658 -13.630  12.454  0.00  0.00    -0.327 N 
ATOM     32  C   UNL d   1      13.349 -13.139  13.553  0.00  0.00     0.226 C 
ATOM     33  O   UNL d   1      13.441 -11.962  13.895  0.00  0.00    -0.273 OA
ATOM     34  H   UNL d   1      12.701 -14.626  12.279  0.00  0.00     0.169 HD
BRANCH  32  35
ATOM     35  C   UNL d   1      14.064 -14.111  14.423  0.00  0.00     0.078 A 
ATOM     36  C   UNL d   1      14.387 -15.540  14.098  0.00  0.00     0.015 A 
ATOM     37  C   UNL d   1      15.476 -14.506  14.037  0.00  0.00     0.015 A 
ENDBRANCH  32  35
ENDBRANCH  28  31
ENDBRANCH  22  25
ENDBRANCH   1  21
TORSDOF 12
