@<TRIPOS>MOLECULE
*****
 55 59 0 0 0
SMALL
GASTEIGER

@<TRIPOS>ATOM
      1 O           1.0618    0.0032   -0.0991 O.2     1  UNL1       -0.2755
      2 C           2.2710   -0.0031   -0.0959 C.2     1  UNL1        0.2162
      3 N           3.0275    1.0494    0.4570 N.am    1  UNL1       -0.3148
      4 C           2.3654    2.1433    1.1453 C.3     1  UNL1        0.0155
      5 C           3.3103    3.1575    1.8167 C.3     1  UNL1       -0.0092
      6 C           2.5914    4.2618    2.5434 C.2     1  UNL1        0.0091
      7 C           1.5803    4.1639    3.4184 C.ar    1  UNL1        0.0509
      8 C           0.8470    3.0786    3.9767 C.ar    1  UNL1       -0.0482
      9 C          -0.1431    3.3366    4.8426 C.ar    1  UNL1       -0.0608
     10 C          -0.4575    4.6928    5.2534 C.ar    1  UNL1       -0.0555
     11 C           0.1956    5.7770    4.7967 C.ar    1  UNL1        0.0098
     12 C           1.2837    5.5593    3.8150 C.ar    1  UNL1        0.2086
     13 N           2.0404    6.3952    3.2373 N.2     1  UNL1       -0.2369
     14 C           2.9858    5.7004    2.3375 C.3     1  UNL1        0.1661
     15 C           3.1349   -1.1641   -0.6601 C.3     1  UNL1        0.0379
     16 C           2.4754   -2.2510   -1.5436 C.3     1  UNL1       -0.0290
     17 C           1.7591   -3.4704   -0.7928 C.3     1  UNL1        0.0020
     18 N           2.6743   -4.1990    0.2013 N.3     1  UNL1       -0.2757
     19 C           2.0202   -5.4397    1.0675 C.3     1  UNL1        0.1289
     20 N           2.0482   -7.1162    1.0900 N.pl3   1  UNL1       -0.3178
     21 C           1.4957   -7.4938    2.4320 C.ar    1  UNL1        0.0612
     22 C           1.1462   -8.7000    3.0768 C.ar    1  UNL1       -0.0368
     23 C           0.5018   -8.6240    4.3589 C.ar    1  UNL1       -0.0418
     24 C           0.1310   -7.3831    4.8574 C.ar    1  UNL1        0.0290
     25 N           0.6192   -6.2523    4.3667 N.ar    1  UNL1       -0.2468
     26 C           1.3596   -6.4015    3.2675 C.ar    1  UNL1        0.1206
     27 S           2.4405   -5.1422    2.8284 S.3     1  UNL1       -0.0657
     28 C           3.0008   -3.0043    1.0997 C.3     1  UNL1        0.0020
     29 C           3.8464   -1.8817    0.4690 C.3     1  UNL1       -0.0290
     30 H           4.0359    0.9792    0.4961 H       1  UNL1        0.1487
     31 H           1.7184    1.6713    1.8821 H       1  UNL1        0.0465
     32 H           1.7152    2.6621    0.4323 H       1  UNL1        0.0465
     33 H           3.9601    3.5996    1.0508 H       1  UNL1        0.0327
     34 H           3.9815    2.6603    2.5291 H       1  UNL1        0.0327
     35 H           1.0707    2.0515    3.7219 H       1  UNL1        0.0626
     36 H          -0.7192    2.5146    5.2629 H       1  UNL1        0.0618
     37 H          -1.2624    4.7863    5.9817 H       1  UNL1        0.0620
     38 H          -0.0638    6.7710    5.1410 H       1  UNL1        0.0683
     39 H           1.9911    7.4070    3.3897 H       1  UNL1        0.4459
     40 H           4.0071    5.9076    2.6669 H       1  UNL1        0.1077
     41 H           2.8125    6.0402    1.3130 H       1  UNL1        0.1077
     42 H           3.8730   -0.6362   -1.2873 H       1  UNL1        0.0395
     43 H           3.2891   -2.6879   -2.1425 H       1  UNL1        0.0285
     44 H           1.8026   -1.7699   -2.2676 H       1  UNL1        0.0285
     45 H           1.3770   -4.1466   -1.5640 H       1  UNL1        0.0428
     46 H           0.8844   -3.0271   -0.2896 H       1  UNL1        0.0428
     47 H           0.9460   -5.2835    0.9198 H       1  UNL1        0.0794
     48 H           2.9867   -7.5218    1.0374 H       1  UNL1        0.1484
     49 H           1.2969   -9.7138    2.7033 H       1  UNL1        0.0637
     50 H           0.2574   -9.4891    4.9776 H       1  UNL1        0.0633
     51 H          -0.5432   -7.2394    5.6938 H       1  UNL1        0.0830
     52 H           3.6204   -3.2828    1.9479 H       1  UNL1        0.0428
     53 H           2.0673   -2.5618    1.4946 H       1  UNL1        0.0428
     54 H           4.7800   -2.3101    0.0921 H       1  UNL1        0.0285
     55 H           4.1278   -1.1732    1.2591 H       1  UNL1        0.0285
@<TRIPOS>UNITY_ATOM_ATTR
13 1
charge 1
@<TRIPOS>BOND
     1     1     2    2
     2     2     3   am
     3     3     4    1
     4     4     5    1
     5     5     6    1
     6     6     7    2
     7     7     8   ar
     8     8     9   ar
     9     9    10   ar
    10    10    11   ar
    11    11    12   ar
    12     7    12   ar
    13    12    13    2
    14    13    14    1
    15     6    14    1
    16     2    15    1
    17    15    16    1
    18    16    17    1
    19    17    18    1
    20    18    19    1
    21    19    20    1
    22    20    21    1
    23    21    22   ar
    24    22    23   ar
    25    23    24   ar
    26    24    25   ar
    27    25    26   ar
    28    21    26   ar
    29    26    27    1
    30    19    27    1
    31    18    28    1
    32    28    29    1
    33    15    29    1
    34     3    30    1
    35     4    31    1
    36     4    32    1
    37     5    33    1
    38     5    34    1
    39     8    35    1
    40     9    36    1
    41    10    37    1
    42    11    38    1
    43    13    39    1
    44    14    40    1
    45    14    41    1
    46    15    42    1
    47    16    43    1
    48    16    44    1
    49    17    45    1
    50    17    46    1
    51    19    47    1
    52    20    48    1
    53    22    49    1
    54    23    50    1
    55    24    51    1
    56    28    52    1
    57    28    53    1
    58    29    54    1
    59    29    55    1
