@<TRIPOS>MOLECULE
*****
 52 55 0 0 0
SMALL
GASTEIGER

@<TRIPOS>ATOM
      1 C           0.9879   -0.0133    0.0378 C.3     1  UNL1       -0.0305
      2 C           2.5168   -0.0693    0.0645 C.3     1  UNL1        0.0913
      3 O           2.9920   -1.0780    1.0000 O.3     1  UNL1       -0.4505
      4 C           4.3484   -1.0808    1.2444 C.2     1  UNL1        0.4032
      5 O           5.1257   -0.3145    0.6864 O.2     1  UNL1       -0.2262
      6 N           4.7381   -1.9675    2.2451 N.am    1  UNL1       -0.2623
      7 C           4.1744   -3.3190    2.3712 C.3     1  UNL1        0.0222
      8 C           5.1952   -4.3840    1.9364 C.3     1  UNL1       -0.0101
      9 C           6.5140   -4.1240    2.5747 C.ar    1  UNL1       -0.0202
     10 C           6.8475   -2.8852    3.0814 C.ar    1  UNL1        0.0129
     11 S           8.4040   -2.8896    3.7855 S.2     1  UNL1       -0.0761
     12 C           8.6486   -4.5123    3.3303 C.ar    1  UNL1        0.0798
     13 C           7.5605   -5.0617    2.6954 C.ar    1  UNL1        0.0684
     14 C           7.5758   -6.4260    2.2225 C.2     1  UNL1        0.2483
     15 O           6.6375   -6.9785    1.6407 O.2     1  UNL1       -0.2701
     16 N           8.7131   -7.1020    2.4516 N.am    1  UNL1       -0.2890
     17 C           9.8786   -6.5455    3.0472 C.3     1  UNL1        0.1175
     18 C          11.0121   -6.6538    2.0762 C.ar    1  UNL1        0.0324
     19 C          10.8274   -5.9879    0.8317 C.ar    1  UNL1       -0.0483
     20 C          11.7182   -6.1358   -0.2205 C.ar    1  UNL1       -0.0194
     21 C          12.8807   -6.8632   -0.0215 C.ar    1  UNL1        0.1236
     22 O          13.7403   -6.8580   -1.0854 O.3     1  UNL1       -0.4950
     23 C          15.0078   -7.4627   -0.8692 C.3     1  UNL1        0.0788
     24 C          13.0914   -7.5014    1.2103 C.ar    1  UNL1        0.0221
     25 C          12.1718   -7.4052    2.2729 C.ar    1  UNL1        0.1301
     26 O          12.5712   -8.0871    3.3961 O.3     1  UNL1       -0.4946
     27 C          11.7601   -8.0514    4.5606 C.3     1  UNL1        0.0788
     28 N           9.7744   -5.2022    3.5379 N.pl3   1  UNL1       -0.3161
     29 C           5.9324   -1.6929    3.0763 C.3     1  UNL1        0.0493
     30 H           0.6273    0.7009   -0.7150 H       1  UNL1        0.0262
     31 H           0.5819    0.2951    1.0072 H       1  UNL1        0.0262
     32 H           0.5617   -0.9934   -0.1960 H       1  UNL1        0.0262
     33 H           2.8927    0.9273    0.3321 H       1  UNL1        0.0695
     34 H           2.8718   -0.3268   -0.9389 H       1  UNL1        0.0695
     35 H           3.2651   -3.4385    1.7806 H       1  UNL1        0.0469
     36 H           3.9344   -3.4707    3.4311 H       1  UNL1        0.0469
     37 H           5.3487   -4.3731    0.8512 H       1  UNL1        0.0329
     38 H           4.8358   -5.3776    2.2248 H       1  UNL1        0.0329
     39 H           8.7571   -8.0522    2.1116 H       1  UNL1        0.1511
     40 H           9.8914   -7.1412    3.9373 H       1  UNL1        0.0761
     41 H           9.9537   -5.3522    0.6781 H       1  UNL1        0.0624
     42 H          11.4979   -5.6812   -1.1841 H       1  UNL1        0.0654
     43 H          15.6196   -7.2981   -1.7608 H       1  UNL1        0.0660
     44 H          14.8914   -8.5418   -0.7339 H       1  UNL1        0.0660
     45 H          15.5319   -7.0099   -0.0199 H       1  UNL1        0.0660
     46 H          13.9796   -8.1036    1.3713 H       1  UNL1        0.0691
     47 H          12.2464   -8.5379    5.4044 H       1  UNL1        0.0660
     48 H          10.8467   -8.6341    4.3821 H       1  UNL1        0.0660
     49 H          11.5801   -7.0153    4.8800 H       1  UNL1        0.0660
     50 H          10.6024   -4.8155    3.9822 H       1  UNL1        0.1486
     51 H           6.4406   -0.7746    2.7724 H       1  UNL1        0.0520
     52 H           5.5561   -1.5576    4.0993 H       1  UNL1        0.0520
@<TRIPOS>BOND
     1     1     2    1
     2     2     3    1
     3     3     4    1
     4     4     5    2
     5     4     6   am
     6     6     7    1
     7     7     8    1
     8     8     9    1
     9     9    10   ar
    10    10    11   ar
    11    11    12   ar
    12    12    13   ar
    13     9    13   ar
    14    13    14    1
    15    14    15    2
    16    14    16   am
    17    16    17    1
    18    18    19   ar
    19    19    20   ar
    20    20    21   ar
    21    21    22    1
    22    22    23    1
    23    21    24   ar
    24    24    25   ar
    25    18    25   ar
    26    25    26    1
    27    26    27    1
    28    17    28    1
    29    12    28    1
    30    10    29    1
    31     6    29    1
    32    17    18    1
    33     1    30    1
    34     1    31    1
    35     1    32    1
    36     2    33    1
    37     2    34    1
    38     7    35    1
    39     7    36    1
    40     8    37    1
    41     8    38    1
    42    16    39    1
    43    17    40    1
    44    19    41    1
    45    20    42    1
    46    23    43    1
    47    23    44    1
    48    23    45    1
    49    24    46    1
    50    27    47    1
    51    27    48    1
    52    27    49    1
    53    28    50    1
    54    29    51    1
    55    29    52    1
