REMARK  16 active torsions:
REMARK  status: ('A' for Active; 'I' for Inactive)
REMARK    1  A    between atoms: C_2  and  C_3 
REMARK       I    between atoms: C_2  and  N_18 
REMARK    2  A    between atoms: C_3  and  C_4 
REMARK    3  A    between atoms: C_4  and  C_5 
REMARK    4  A    between atoms: C_5  and  C_6 
REMARK    5  A    between atoms: C_6  and  O_8 
REMARK    6  A    between atoms: O_8  and  C_9 
REMARK    7  A    between atoms: C_9  and  C_10 
REMARK    8  A    between atoms: C_10  and  C_11 
REMARK    9  A    between atoms: C_11  and  C_12 
REMARK   10  A    between atoms: N_18  and  C_19 
REMARK   11  A    between atoms: C_19  and  N_21 
REMARK   12  A    between atoms: N_21  and  C_22 
REMARK   13  A    between atoms: C_25  and  O_26 
REMARK   14  A    between atoms: O_26  and  C_27 
REMARK   15  A    between atoms: C_27  and  C_28 
REMARK   16  A    between atoms: C_28  and  C_29 
ROOT
ATOM      1  O   UNL d   1       1.039   0.202  -0.099  0.00  0.00    -0.273 OA
ATOM      2  C   UNL d   1       2.248  -0.017  -0.046  0.00  0.00     0.223 C 
ATOM      3  N   UNL d   1       3.171   1.016  -0.302  0.00  0.00    -0.304 N 
ATOM      4  H   UNL d   1       2.680   1.869  -0.545  0.00  0.00     0.171 HD
ENDROOT
BRANCH   3   5
ATOM      5  C   UNL d   1       4.582   1.067  -0.192  0.00  0.00     0.178 C 
ATOM      6  S   UNL d   1       5.543  -0.187   0.431  0.00  0.00    -0.040 SA
BRANCH   5   7
ATOM      7  N   UNL d   1       5.145   2.285  -0.628  0.00  0.00    -0.333 N 
ATOM      8  H   UNL d   1       4.599   3.137  -0.572  0.00  0.00     0.168 HD
BRANCH   7   9
ATOM      9  C   UNL d   1       6.562   2.445  -0.758  0.00  0.00     0.034 A 
ATOM     10  C   UNL d   1       7.260   3.506  -0.182  0.00  0.00     0.032 A 
ATOM     11  C   UNL d   1       8.667   3.555  -0.292  0.00  0.00     0.039 A 
ATOM     12  C   UNL d   1       9.384   2.521  -0.906  0.00  0.00     0.068 A 
ATOM     13  C   UNL d   1       8.678   1.469  -1.476  0.00  0.00     0.039 A 
ATOM     14  C   UNL d   1       7.290   1.467  -1.446  0.00  0.00     0.032 A 
BRANCH  12  15
ATOM     15  O   UNL d   1      10.754   2.629  -0.905  0.00  0.00    -0.351 OA
BRANCH  15  16
ATOM     16  C   UNL d   1      11.429   1.474  -1.415  0.00  0.00     0.180 C 
BRANCH  16  17
ATOM     17  C   UNL d   1      12.946   1.614  -1.313  0.00  0.00     0.065 C 
BRANCH  17  18
ATOM     18  C   UNL d   1      13.675   0.419  -1.897  0.00  0.00    -0.056 A 
ATOM     19  C   UNL d   1      13.169  -0.884  -1.751  0.00  0.00     0.007 A 
ATOM     20  C   UNL d   1      13.885  -1.991  -2.197  0.00  0.00     0.001 A 
ATOM     21  C   UNL d   1      15.093  -1.811  -2.856  0.00  0.00     0.000 A 
ATOM     22  C   UNL d   1      15.608  -0.525  -3.023  0.00  0.00     0.001 A 
ATOM     23  C   UNL d   1      14.912   0.584  -2.534  0.00  0.00     0.007 A 
ENDBRANCH  17  18
ENDBRANCH  16  17
ENDBRANCH  15  16
ENDBRANCH  12  15
ENDBRANCH   7   9
ENDBRANCH   5   7
ENDBRANCH   3   5
BRANCH   2  24
ATOM     24  C   UNL d   1       2.823  -1.382   0.288  0.00  0.00     0.103 C 
BRANCH  24  25
ATOM     25  C   UNL d   1       1.874  -2.517   0.566  0.00  0.00     0.019 C 
BRANCH  25  26
ATOM     26  C   UNL d   1       2.646  -3.810   0.899  0.00  0.00     0.111 C 
BRANCH  26  27
ATOM     27  C   UNL d   1       1.653  -4.907   1.173  0.00  0.00     0.258 C 
ATOM     28  O   UNL d   1       0.428  -4.751   1.139  0.00  0.00    -0.265 OA
BRANCH  27  29
ATOM     29  O   UNL d   1       2.255  -6.090   1.459  0.00  0.00    -0.321 OA
BRANCH  29  30
ATOM     30  C   UNL d   1       1.306  -7.142   1.713  0.00  0.00     0.179 C 
BRANCH  30  31
ATOM     31  C   UNL d   1       2.059  -8.421   2.027  0.00  0.00     0.031 C 
BRANCH  31  32
ATOM     32  C   UNL d   1       1.113  -9.589   2.317  0.00  0.00     0.041 C 
BRANCH  32  33
ATOM     33  C   UNL d   1       1.837 -10.871   2.659  0.00  0.00    -0.058 A 
ATOM     34  C   UNL d   1       1.306 -12.108   2.272  0.00  0.00     0.007 A 
ATOM     35  C   UNL d   1       1.891 -13.296   2.718  0.00  0.00     0.001 A 
ATOM     36  C   UNL d   1       3.053 -13.261   3.488  0.00  0.00     0.000 A 
ATOM     37  C   UNL d   1       3.607 -12.040   3.852  0.00  0.00     0.001 A 
ATOM     38  C   UNL d   1       2.991 -10.857   3.457  0.00  0.00     0.007 A 
ENDBRANCH  32  33
ENDBRANCH  31  32
ENDBRANCH  30  31
ENDBRANCH  29  30
ENDBRANCH  27  29
ENDBRANCH  26  27
ENDBRANCH  25  26
ENDBRANCH  24  25
ENDBRANCH   2  24
TORSDOF 16
