REMARK  3 active torsions:
REMARK  status: ('A' for Active; 'I' for Inactive)
REMARK    1  A    between atoms: C_4  and  O_5 
REMARK    2  A    between atoms: C_6  and  N_7 
REMARK       I    between atoms: N_7  and  C_8 
REMARK    3  A    between atoms: C_8  and  C_10 
ROOT
ATOM      1  N   UNL d   1      -2.137  -2.293  -0.025  0.00  0.00    -0.320 N 
ATOM      2  C   UNL d   1      -3.526  -2.172  -0.009  0.00  0.00     0.257 C 
ATOM      3  O   UNL d   1      -4.238  -1.170  -0.022  0.00  0.00    -0.267 OA
ATOM      4  H   UNL d   1      -1.762  -3.234   0.002  0.00  0.00     0.169 HD
ENDROOT
BRANCH   1   5
ATOM      5  C   UNL d   1      -1.165  -1.236  -0.014  0.00  0.00     0.069 A 
ATOM      6  C   UNL d   1      -1.488   0.127  -0.010  0.00  0.00     0.092 A 
ATOM      7  C   UNL d   1      -0.514   1.118  -0.003  0.00  0.00     0.046 A 
ATOM      8  C   UNL d   1       0.839   0.796   0.001  0.00  0.00    -0.053 A 
ATOM      9  C   UNL d   1       1.829   1.925   0.005  0.00  0.00     0.049 C 
ATOM     10  C   UNL d   1       1.218  -0.558  -0.001  0.00  0.00    -0.054 A 
ATOM     11  C   UNL d   1       0.212  -1.564  -0.005  0.00  0.00     0.039 A 
ATOM     12  C   UNL d   1       2.684  -0.911  -0.003  0.00  0.00     0.049 C 
BRANCH   6  13
ATOM     13  O   UNL d   1      -2.769   0.565  -0.015  0.00  0.00    -0.358 OA
ATOM     14  H   UNL d   1      -2.855   1.523  -0.001  0.00  0.00     0.217 HD
ENDBRANCH   6  13
ENDBRANCH   1   5
BRANCH   2  15
ATOM     15  C   UNL d   1      -4.349  -3.393   0.002  0.00  0.00     0.049 A 
ATOM     16  C   UNL d   1      -5.498  -3.362  -0.823  0.00  0.00     0.018 A 
ATOM     17  C   UNL d   1      -6.431  -4.394  -0.793  0.00  0.00     0.001 A 
ATOM     18  C   UNL d   1      -6.234  -5.455   0.082  0.00  0.00     0.001 A 
ATOM     19  C   UNL d   1      -5.119  -5.476   0.928  0.00  0.00     0.020 A 
ATOM     20  C   UNL d   1      -4.173  -4.446   0.896  0.00  0.00     0.026 A 
ATOM     21 BR   UNL d   1      -2.759  -4.526   2.158  0.00  0.00    -0.050 Br
ENDBRANCH   2  15
TORSDOF 3
