@<TRIPOS>MOLECULE
*****
 53 56 0 0 0
SMALL
GASTEIGER

@<TRIPOS>ATOM
      1 C           0.9769   -0.0420   -0.0586 C.3     1  UNL1       -0.0014
      2 C           2.4880   -0.0498   -0.0677 C.2     1  UNL1        0.1602
      3 O           3.1445   -1.0443    0.2242 O.2     1  UNL1       -0.2924
      4 C           3.1957    1.1899   -0.4904 C.ar    1  UNL1        0.0199
      5 C           2.8040    2.4390   -0.0063 C.ar    1  UNL1       -0.0494
      6 C           3.4698    3.6113   -0.4170 C.ar    1  UNL1       -0.0372
      7 C           4.5126    3.5768   -1.3534 C.ar    1  UNL1        0.0657
      8 N           4.9989    4.7593   -1.8934 N.pl3   1  UNL1       -0.3176
      9 C           5.0690    4.9208   -3.3462 C.3     1  UNL1        0.0526
     10 C           6.5217    4.8242   -3.8641 C.3     1  UNL1       -0.0154
     11 N           7.4487    5.8189   -3.1370 N.4     1  UNL1        0.2408
     12 C           8.9180    5.6418   -3.6048 C.3     1  UNL1       -0.0023
     13 C           9.8572    6.6805   -3.0608 C.ar    1  UNL1        0.0386
     14 C          10.0175    6.7935   -1.6875 C.ar    1  UNL1       -0.0466
     15 C          10.6053    7.9500   -1.2840 C.ar    1  UNL1       -0.0435
     16 C          10.9855    9.0361   -1.9971 C.ar    1  UNL1       -0.0407
     17 C          11.3303    8.6300   -3.3270 C.ar    1  UNL1       -0.0163
     18 C          10.6328    7.5354   -3.8746 C.ar    1  UNL1        0.1253
     19 O          10.6591    7.3424   -5.2243 O.3     1  UNL1       -0.5063
     20 C          11.6269   10.3120   -0.6319 C.3     1  UNL1       -0.0270
     21 C          12.4424    9.6434   -1.5379 C.3     1  UNL1       -0.0450
     22 C          11.2092    8.7074   -0.2841 C.3     1  UNL1       -0.0271
     23 C           7.2465    5.7188   -1.5989 C.3     1  UNL1       -0.0154
     24 C           5.7679    5.7553   -1.1563 C.3     1  UNL1        0.0526
     25 C           4.9006    2.2922   -1.7954 C.ar    1  UNL1        0.1450
     26 F           5.9053    2.1751   -2.6777 F       1  UNL1       -0.2035
     27 C           4.2755    1.1127   -1.3680 C.ar    1  UNL1       -0.0141
     28 H           0.6061   -1.0162    0.2779 H       1  UNL1        0.0309
     29 H           0.6013    0.1323   -1.0710 H       1  UNL1        0.0309
     30 H           0.5876    0.7145    0.6257 H       1  UNL1        0.0309
     31 H           1.9778    2.5185    0.6959 H       1  UNL1        0.0625
     32 H           3.1003    4.5647   -0.0459 H       1  UNL1        0.0637
     33 H           4.6853    5.9247   -3.5732 H       1  UNL1        0.0516
     34 H           4.4048    4.2156   -3.8538 H       1  UNL1        0.0516
     35 H           6.5518    5.0524   -4.9350 H       1  UNL1        0.0830
     36 H           6.9472    3.8338   -3.6946 H       1  UNL1        0.0830
     37 H           7.1992    6.7722   -3.4307 H       1  UNL1        0.2038
     38 H           8.8947    5.6856   -4.7004 H       1  UNL1        0.0868
     39 H           9.2404    4.6416   -3.2998 H       1  UNL1        0.0868
     40 H           9.6721    6.0670   -0.9647 H       1  UNL1        0.0626
     41 H          12.1609    9.0721   -3.8900 H       1  UNL1        0.0657
     42 H          11.2385    8.0240   -5.6191 H       1  UNL1        0.2921
     43 H          12.4923   10.1375    0.1520 H       1  UNL1        0.0313
     44 H          11.1355   11.2306   -0.6361 H       1  UNL1        0.0313
     45 H          13.4973    9.6770   -1.4357 H       1  UNL1        0.0272
     46 H          12.1795   10.6105   -2.2150 H       1  UNL1        0.0272
     47 H          10.2100    9.2714    0.0684 H       1  UNL1        0.0313
     48 H          11.6331    8.2446    0.5856 H       1  UNL1        0.0313
     49 H           7.7015    6.5991   -1.1425 H       1  UNL1        0.0830
     50 H           7.7372    4.7950   -1.2753 H       1  UNL1        0.0830
     51 H           5.3826    6.7532   -1.4095 H       1  UNL1        0.0516
     52 H           5.6910    5.6599   -0.0668 H       1  UNL1        0.0516
     53 H           4.6191    0.1533   -1.7489 H       1  UNL1        0.0654
@<TRIPOS>UNITY_ATOM_ATTR
11 1
charge 1
@<TRIPOS>BOND
     1     1     2    1
     2     2     3    2
     3     2     4    1
     4     4     5   ar
     5     5     6   ar
     6     6     7   ar
     7     7     8    1
     8     8     9    1
     9     9    10    1
    10    10    11    1
    11    11    12    1
    12    12    13    1
    13    13    14   ar
    14    14    15   ar
    15    15    16   ar
    16    16    17   ar
    17    17    18   ar
    18    13    18   ar
    19    18    19    1
    20    16    20    1
    21    20    21    1
    22    21    22    1
    23    15    22    1
    24    11    23    1
    25    23    24    1
    26     8    24    1
    27     7    25   ar
    28    25    26    1
    29    25    27   ar
    30     4    27   ar
    31     1    28    1
    32     1    29    1
    33     1    30    1
    34     5    31    1
    35     6    32    1
    36     9    33    1
    37     9    34    1
    38    10    35    1
    39    10    36    1
    40    11    37    1
    41    12    38    1
    42    12    39    1
    43    14    40    1
    44    17    41    1
    45    19    42    1
    46    20    43    1
    47    20    44    1
    48    21    45    1
    49    21    46    1
    50    22    47    1
    51    22    48    1
    52    23    49    1
    53    23    50    1
    54    24    51    1
    55    24    52    1
    56    27    53    1
