REMARK  6 active torsions:
REMARK  status: ('A' for Active; 'I' for Inactive)
REMARK    1  A    between atoms: C_5  and  S_6 
REMARK    2  A    between atoms: S_6  and  N_9 
REMARK       I    between atoms: N_12  and  C_13 
REMARK    3  A    between atoms: C_13  and  C_15 
REMARK    4  A    between atoms: C_15  and  S_16 
REMARK    5  A    between atoms: S_16  and  C_17 
REMARK    6  A    between atoms: C_19  and  N_20 
ROOT
ATOM      1  N   UNL d   1      -2.559  -3.461   0.385  0.00  0.00    -0.304 N 
ATOM      2  C   UNL d   1      -2.811  -3.389   1.828  0.00  0.00     0.155 C 
ATOM      3  C   UNL d   1      -4.123  -4.130   2.001  0.00  0.00     0.146 C 
ATOM      4  N   UNL d   1      -3.814  -5.552   1.879  0.00  0.00    -0.348 N 
ATOM      5  C   UNL d   1      -3.857  -6.277   3.067  0.00  0.00     0.229 C 
ATOM      6  O   UNL d   1      -4.212  -5.707   4.105  0.00  0.00    -0.273 OA
ATOM      7  C   UNL d   1      -3.255  -5.909   0.542  0.00  0.00     0.146 C 
ATOM      8  C   UNL d   1      -2.165  -4.857   0.009  0.00  0.00     0.155 C 
ENDROOT
BRANCH   5   9
ATOM      9  C   UNL d   1      -3.457  -7.758   3.070  0.00  0.00     0.185 C 
BRANCH   9  10
ATOM     10  S   UNL d   1      -3.802  -8.492   4.718  0.00  0.00    -0.083 SA
BRANCH  10  11
ATOM     11  C   UNL d   1      -3.225 -10.119   4.588  0.00  0.00     0.171 A 
ATOM     12  N   UNL d   1      -1.989 -10.407   4.366  0.00  0.00    -0.207 NA
ATOM     13  C   UNL d   1      -1.631 -11.735   4.382  0.00  0.00     0.129 A 
ATOM     14  C   UNL d   1      -2.522 -12.720   4.584  0.00  0.00     0.124 A 
ATOM     15  C   UNL d   1      -3.931 -12.371   4.799  0.00  0.00     0.250 A 
ATOM     16  O   UNL d   1      -4.790 -13.233   4.936  0.00  0.00    -0.268 OA
ATOM     17  N   UNL d   1      -4.197 -11.039   4.819  0.00  0.00    -0.302 N 
ATOM     18  H   UNL d   1      -5.143 -10.746   5.006  0.00  0.00     0.171 HD
BRANCH  13  19
ATOM     19  N   UNL d   1      -0.321 -12.046   4.182  0.00  0.00    -0.384 N 
ATOM     20  H   UNL d   1       0.317 -11.269   4.070  0.00  0.00     0.157 HD
ATOM     21  H   UNL d   1       0.011 -13.000   4.155  0.00  0.00     0.157 HD
ENDBRANCH  13  19
ENDBRANCH  10  11
ENDBRANCH   9  10
ENDBRANCH   5   9
BRANCH   1  22
ATOM     22  S   UNL d   1      -2.808  -1.980  -0.364  0.00  0.00     0.261 S 
ATOM     23  O   UNL d   1      -3.785  -1.329   0.515  0.00  0.00    -0.200 OA
ATOM     24  O   UNL d   1      -3.074  -2.088  -1.764  0.00  0.00    -0.200 OA
BRANCH  22  25
ATOM     25  C   UNL d   1      -1.269  -1.065  -0.144  0.00  0.00     0.085 A 
ATOM     26  C   UNL d   1      -0.058  -1.770  -0.067  0.00  0.00     0.026 A 
ATOM     27  C   UNL d   1       1.161  -1.082   0.001  0.00  0.00     0.008 A 
ATOM     28  C   UNL d   1       1.194   0.315   0.005  0.00  0.00    -0.061 A 
ATOM     29  C   UNL d   1       2.504   1.056   0.015  0.00  0.00     0.048 C 
ATOM     30  C   UNL d   1      -0.020   1.016  -0.008  0.00  0.00     0.015 A 
ATOM     31  C   UNL d   1      -1.264   0.344  -0.066  0.00  0.00    -0.038 A 
ATOM     32  C   UNL d   1      -2.504   1.200  -0.061  0.00  0.00     0.050 C 
ENDBRANCH  22  25
ENDBRANCH   1  22
TORSDOF 6
