@<TRIPOS>MOLECULE
*****
 55 57 0 0 0
SMALL
GASTEIGER

@<TRIPOS>ATOM
      1 C           0.9859    0.1631    0.2457 C.3     1  UNL1        0.0788
      2 O           2.4010    0.0856    0.0424 O.3     1  UNL1       -0.4941
      3 C           2.9982   -1.0444    0.5446 C.ar    1  UNL1        0.1351
      4 C           2.6463   -2.3426    0.1056 C.ar    1  UNL1       -0.0070
      5 C           1.6042   -2.6186   -0.9383 C.3     1  UNL1       -0.0362
      6 C           3.3038   -3.4738    0.6329 C.ar    1  UNL1       -0.0413
      7 C           4.3393   -3.3297    1.5401 C.ar    1  UNL1        0.0191
      8 BR          5.2172   -4.8625    2.2154 Br      1  UNL1       -0.0503
      9 C           4.7351   -2.0561    1.9247 C.ar    1  UNL1       -0.0321
     10 C           4.0835   -0.8925    1.4243 C.ar    1  UNL1        0.0799
     11 C           4.6469    0.4123    1.8989 C.2     1  UNL1        0.2531
     12 O           5.6014    0.2933    2.6764 O.2     1  UNL1       -0.2697
     13 N           4.1449    1.6613    1.4701 N.am    1  UNL1       -0.2635
     14 C           4.5888    2.9287    1.9312 C.2     1  UNL1        0.1411
     15 S           5.7438    3.1024    3.1601 S.2     1  UNL1       -0.0182
     16 N           3.9511    4.0456    1.3173 N.am    1  UNL1       -0.2965
     17 C           4.2735    5.4126    1.6716 C.ar    1  UNL1        0.0341
     18 C           5.6004    5.8508    1.6909 C.ar    1  UNL1       -0.0387
     19 C           5.9651    7.1092    2.1979 C.ar    1  UNL1       -0.0375
     20 C           5.0215    8.0290    2.6743 C.ar    1  UNL1        0.0487
     21 N           5.4718    9.2789    3.0827 N.pl3   1  UNL1       -0.3186
     22 C           5.1887    9.9218    4.3741 C.3     1  UNL1        0.0525
     23 C           4.4383   11.2615    4.1718 C.3     1  UNL1       -0.0160
     24 N           5.1696   12.1607    3.1630 N.4     1  UNL1        0.2353
     25 C           4.4135   13.4329    2.9098 C.3     1  UNL1       -0.0430
     26 C           5.4464   11.4102    1.8571 C.3     1  UNL1       -0.0160
     27 C           6.2158   10.0990    2.1200 C.3     1  UNL1        0.0525
     28 C           3.6747    7.6011    2.6013 C.ar    1  UNL1        0.0637
     29 CL          2.3810    8.6441    3.0954 Cl      1  UNL1       -0.0816
     30 C           3.2996    6.3293    2.0744 C.ar    1  UNL1       -0.0204
     31 H           0.6723    1.1443   -0.1206 H       1  UNL1        0.0660
     32 H           0.7240    0.0675    1.3020 H       1  UNL1        0.0660
     33 H           0.4044   -0.5551   -0.3318 H       1  UNL1        0.0660
     34 H           1.3462   -1.7279   -1.5097 H       1  UNL1        0.0279
     35 H           0.7104   -3.0305   -0.4579 H       1  UNL1        0.0279
     36 H           1.9808   -3.3201   -1.6867 H       1  UNL1        0.0279
     37 H           3.0127   -4.4723    0.3083 H       1  UNL1        0.0632
     38 H           5.5711   -1.9673    2.6219 H       1  UNL1        0.0637
     39 H           3.4021    1.6094    0.7823 H       1  UNL1        0.1568
     40 H           3.0335    3.8965    0.9124 H       1  UNL1        0.1538
     41 H           6.3970    5.1952    1.3439 H       1  UNL1        0.0637
     42 H           7.0280    7.3408    2.2443 H       1  UNL1        0.0637
     43 H           6.1539   10.1557    4.8487 H       1  UNL1        0.0516
     44 H           4.6536    9.2706    5.0719 H       1  UNL1        0.0516
     45 H           4.3754   11.8252    5.1088 H       1  UNL1        0.0830
     46 H           3.4347   11.1087    3.7713 H       1  UNL1        0.0830
     47 H           6.0780   12.4085    3.5758 H       1  UNL1        0.2032
     48 H           3.4420   13.1812    2.4750 H       1  UNL1        0.0778
     49 H           4.9995   14.0459    2.2198 H       1  UNL1        0.0778
     50 H           4.2911   13.9541    3.8626 H       1  UNL1        0.0778
     51 H           6.0319   12.0793    1.2197 H       1  UNL1        0.0830
     52 H           4.4724   11.2082    1.3981 H       1  UNL1        0.0830
     53 H           7.2059   10.3266    2.5340 H       1  UNL1        0.0516
     54 H           6.3691    9.5854    1.1647 H       1  UNL1        0.0516
     55 H           2.2467    6.0598    2.0535 H       1  UNL1        0.0651
@<TRIPOS>UNITY_ATOM_ATTR
24 1
charge 1
@<TRIPOS>BOND
     1     1     2    1
     2     2     3    1
     3     3     4   ar
     4     4     5    1
     5     4     6   ar
     6     6     7   ar
     7     7     8    1
     8     7     9   ar
     9     9    10   ar
    10     3    10   ar
    11    10    11    1
    12    11    12    2
    13    11    13   am
    14    13    14    1
    15    14    15    2
    16    14    16    1
    17    16    17    1
    18    17    18   ar
    19    18    19   ar
    20    19    20   ar
    21    20    21    1
    22    21    22    1
    23    22    23    1
    24    23    24    1
    25    24    25    1
    26    24    26    1
    27    26    27    1
    28    21    27    1
    29    20    28   ar
    30    28    29    1
    31    28    30   ar
    32    17    30   ar
    33     1    31    1
    34     1    32    1
    35     1    33    1
    36     5    34    1
    37     5    35    1
    38     5    36    1
    39     6    37    1
    40     9    38    1
    41    13    39    1
    42    16    40    1
    43    18    41    1
    44    19    42    1
    45    22    43    1
    46    22    44    1
    47    23    45    1
    48    23    46    1
    49    24    47    1
    50    25    48    1
    51    25    49    1
    52    25    50    1
    53    26    51    1
    54    26    52    1
    55    27    53    1
    56    27    54    1
    57    30    55    1
