@<TRIPOS>MOLECULE
*****
 50 52 0 0 0
SMALL
GASTEIGER

@<TRIPOS>ATOM
      1 C           1.0308    0.0983    0.0121 C.3     1  UNL1       -0.0639
      2 C           2.5536    0.0914    0.0231 C.3     1  UNL1       -0.0402
      3 C           3.0941   -0.5880    1.2780 C.3     1  UNL1        0.0116
      4 N           4.5441   -0.6456    1.3132 N.am    1  UNL1       -0.3113
      5 C           5.1906   -1.2797    2.3609 C.2     1  UNL1        0.2441
      6 O           4.6045   -1.8305    3.2869 O.2     1  UNL1       -0.2702
      7 C           6.6745   -1.2444    2.3789 C.ar    1  UNL1        0.0384
      8 C           7.4210   -2.3431    2.8019 C.ar    1  UNL1       -0.0495
      9 C           8.8000   -2.2095    2.9972 C.ar    1  UNL1       -0.0593
     10 C           9.4266   -0.9692    2.8003 C.ar    1  UNL1       -0.0404
     11 C           8.6652    0.1537    2.4496 C.ar    1  UNL1        0.0344
     12 N           9.2741    1.4368    2.3506 N.am    1  UNL1       -0.2814
     13 C           8.6272    2.5552    1.8196 C.2     1  UNL1        0.2500
     14 O           7.4182    2.7057    1.6562 O.2     1  UNL1       -0.2698
     15 C           9.4503    3.6897    1.3515 C.ar    1  UNL1        0.0582
     16 C           8.9187    4.9567    1.6761 C.ar    1  UNL1       -0.0478
     17 C           9.4927    6.1220    1.1860 C.ar    1  UNL1       -0.0609
     18 C          10.6496    6.0337    0.4226 C.ar    1  UNL1       -0.0600
     19 C          11.1917    4.7784    0.0932 C.ar    1  UNL1       -0.0397
     20 C          10.5839    3.5823    0.5221 C.ar    1  UNL1        0.0458
     21 N          11.1714    2.3511    0.1021 N.am    1  UNL1       -0.2808
     22 C          10.4413    1.1921   -0.1413 C.2     1  UNL1        0.2488
     23 O           9.2468    1.1908   -0.3873 O.2     1  UNL1       -0.2698
     24 C          11.1888   -0.0705   -0.1082 C.ar    1  UNL1        0.0440
     25 C          12.5574   -0.3455    0.2214 C.ar    1  UNL1       -0.0426
     26 C          12.8955   -1.6608   -0.0297 C.ar    1  UNL1       -0.0236
     27 S          11.5420   -2.6093   -0.4616 S.2     1  UNL1       -0.1043
     28 C          10.5133   -1.2595   -0.3490 C.ar    1  UNL1       -0.0122
     29 C           7.3087   -0.0263    2.1727 C.ar    1  UNL1       -0.0284
     30 H           0.6552    0.5841   -0.8943 H       1  UNL1        0.0230
     31 H           0.6339    0.6412    0.8763 H       1  UNL1        0.0230
     32 H           0.6338   -0.9219    0.0380 H       1  UNL1        0.0230
     33 H           2.9209    1.1228   -0.0358 H       1  UNL1        0.0278
     34 H           2.9187   -0.4283   -0.8704 H       1  UNL1        0.0278
     35 H           2.7213   -1.6166    1.3419 H       1  UNL1        0.0462
     36 H           2.7510   -0.0586    2.1753 H       1  UNL1        0.0462
     37 H           5.0791   -0.1919    0.5814 H       1  UNL1        0.1490
     38 H           6.9267   -3.2923    2.9914 H       1  UNL1        0.0625
     39 H           9.3803   -3.0635    3.3412 H       1  UNL1        0.0618
     40 H          10.5094   -0.9199    2.8966 H       1  UNL1        0.0636
     41 H          10.2764    1.4824    2.4833 H       1  UNL1        0.1551
     42 H           8.0233    5.0243    2.2952 H       1  UNL1        0.0626
     43 H           9.0269    7.0840    1.3893 H       1  UNL1        0.0618
     44 H          11.1221    6.9502    0.0736 H       1  UNL1        0.0618
     45 H          12.0634    4.7654   -0.5565 H       1  UNL1        0.0636
     46 H          12.0652    2.3940   -0.3684 H       1  UNL1        0.1552
     47 H          13.2809    0.3799    0.5731 H       1  UNL1        0.0630
     48 H          13.8688   -2.1275    0.0282 H       1  UNL1        0.0693
     49 H           9.4442   -1.3726   -0.4921 H       1  UNL1        0.0701
     50 H           6.6909    0.7895    1.8327 H       1  UNL1        0.0644
@<TRIPOS>BOND
     1     1     2    1
     2     2     3    1
     3     3     4    1
     4     4     5   am
     5     5     6    2
     6     5     7    1
     7     7     8   ar
     8     8     9   ar
     9     9    10   ar
    10    10    11   ar
    11    11    12    1
    12    12    13   am
    13    13    14    2
    14    13    15    1
    15    15    16   ar
    16    16    17   ar
    17    17    18   ar
    18    18    19   ar
    19    19    20   ar
    20    15    20   ar
    21    20    21    1
    22    21    22   am
    23    22    23    2
    24    22    24    1
    25    24    25   ar
    26    25    26   ar
    27    26    27   ar
    28    27    28   ar
    29    24    28   ar
    30    11    29   ar
    31     7    29   ar
    32     1    30    1
    33     1    31    1
    34     1    32    1
    35     2    33    1
    36     2    34    1
    37     3    35    1
    38     3    36    1
    39     4    37    1
    40     8    38    1
    41     9    39    1
    42    10    40    1
    43    12    41    1
    44    16    42    1
    45    17    43    1
    46    18    44    1
    47    19    45    1
    48    21    46    1
    49    25    47    1
    50    26    48    1
    51    28    49    1
    52    29    50    1
