REMARK  5 active torsions:
REMARK  status: ('A' for Active; 'I' for Inactive)
REMARK    1  A    between atoms: C_2  and  N_3 
REMARK    2  A    between atoms: C_2  and  C_16 
REMARK    3  A    between atoms: C_4  and  N_3 
REMARK    4  A    between atoms: C_4  and  C_6 
REMARK       I    between atoms: C_16  and  N_18 
REMARK    5  A    between atoms: N_18  and  C_19 
ROOT
ATOM      1  C   UNL d   1      -3.069  -2.121   3.031  0.00  0.00     0.055 A 
ATOM      2  C   UNL d   1      -3.738  -0.916   3.284  0.00  0.00     0.031 A 
ATOM      3  C   UNL d   1      -5.137  -0.882   3.276  0.00  0.00     0.002 A 
ATOM      4  C   UNL d   1      -5.869  -2.053   3.082  0.00  0.00     0.002 A 
ATOM      5  C   UNL d   1      -5.208  -3.259   2.858  0.00  0.00     0.025 A 
ATOM      6  C   UNL d   1      -3.814  -3.301   2.802  0.00  0.00     0.071 A 
ATOM      7  C   UNL d   1      -3.193  -4.587   2.545  0.00  0.00     0.102 C 
ATOM      8  N   UNL d   1      -2.694  -5.600   2.333  0.00  0.00    -0.191 NA
ENDROOT
BRANCH   1   9
ATOM      9  N   UNL d   1      -1.653  -2.109   2.965  0.00  0.00    -0.324 N 
ATOM     10  C   UNL d   1      -1.053  -2.656   1.848  0.00  0.00     0.255 C 
ATOM     11  O   UNL d   1      -1.710  -3.160   0.933  0.00  0.00    -0.271 OA
ATOM     12  H   UNL d   1      -1.133  -1.452   3.531  0.00  0.00     0.169 HD
BRANCH  10  13
ATOM     13  C   UNL d   1       0.455  -2.706   1.798  0.00  0.00     0.308 C 
ATOM     14  C   UNL d   1       0.719  -3.406   0.440  0.00  0.00     0.053 C 
BRANCH  13  15
ATOM     15  N   UNL d   1       1.125  -1.397   1.850  0.00  0.00     0.105 N 
ATOM     16  H   UNL d   1       0.845  -0.886   2.683  0.00  0.00     0.317 HD
BRANCH  15  17
ATOM     17  C   UNL d   1       2.620  -1.526   1.841  0.00  0.00     0.251 C 
ATOM     18  C   UNL d   1       3.147  -1.207   0.432  0.00  0.00     0.048 C 
BRANCH  17  19
ATOM     19  C   UNL d   1       3.214  -2.822   2.471  0.00  0.00    -0.015 C 
ATOM     20  C   UNL d   1       2.912  -4.120   1.994  0.00  0.00     0.010 C 
ATOM     21  C   UNL d   1       3.119  -5.346   2.579  0.00  0.00     0.002 C 
ATOM     22  C   UNL d   1       3.872  -5.359   3.691  0.00  0.00     0.012 C 
ATOM     23  C   UNL d   1       4.376  -4.143   4.152  0.00  0.00    -0.025 A 
ATOM     24  C   UNL d   1       5.240  -4.233   5.213  0.00  0.00     0.012 A 
ATOM     25  C   UNL d   1       4.050  -2.854   3.582  0.00  0.00    -0.018 A 
ATOM     26  C   UNL d   1       5.796  -3.081   5.744  0.00  0.00     0.001 A 
ATOM     27  C   UNL d   1       5.487  -1.825   5.225  0.00  0.00     0.001 A 
ATOM     28  C   UNL d   1       4.611  -1.702   4.154  0.00  0.00     0.013 A 
ENDBRANCH  17  19
ENDBRANCH  15  17
ENDBRANCH  13  15
ENDBRANCH  10  13
ENDBRANCH   1   9
TORSDOF 5
