REMARK  14 active torsions:
REMARK  status: ('A' for Active; 'I' for Inactive)
REMARK    1  A    between atoms: C_2  and  C_3 
REMARK    2  A    between atoms: C_3  and  C_4 
REMARK    3  A    between atoms: C_4  and  N_5 
REMARK       I    between atoms: N_5  and  C_6 
REMARK    4  A    between atoms: C_8  and  C_6 
REMARK    5  A    between atoms: C_8  and  N_18 
REMARK    6  A    between atoms: C_8  and  C_9 
REMARK    7  A    between atoms: C_10  and  O_11 
REMARK    8  A    between atoms: C_13  and  O_14 
REMARK    9  A    between atoms: C_16  and  O_17 
REMARK   10  A    between atoms: N_18  and  C_19 
REMARK       I    between atoms: N_18  and  C_22 
REMARK   11  A    between atoms: C_19  and  C_20 
REMARK   12  A    between atoms: C_22  and  C_24 
REMARK   13  A    between atoms: C_24  and  N_25 
REMARK       I    between atoms: N_25  and  C_26 
REMARK   14  A    between atoms: C_26  and  C_28 
ROOT
ATOM      1  C   UNL d   1       6.921   4.351  -1.097  0.00  0.00     0.218 C 
ENDROOT
BRANCH   1   2
ATOM      2  N   UNL d   1       8.472   4.268  -1.276  0.00  0.00    -0.333 N 
ATOM      3  C   UNL d   1       9.153   5.408  -1.765  0.00  0.00     0.238 C 
ATOM      4  O   UNL d   1       8.545   6.390  -2.212  0.00  0.00    -0.272 OA
BRANCH   2   5
ATOM      5  C   UNL d   1       9.294   3.057  -1.014  0.00  0.00     0.127 C 
BRANCH   5   6
ATOM      6  C   UNL d   1       8.550   1.778  -0.771  0.00  0.00     0.015 C 
ATOM      7  C   UNL d   1       9.205   0.504  -0.344  0.00  0.00     0.006 C 
ENDBRANCH   5   6
ENDBRANCH   2   5
BRANCH   3   8
ATOM      8  C   UNL d   1      10.699   5.469  -1.668  0.00  0.00     0.225 C 
BRANCH   8   9
ATOM      9  N   UNL d   1      11.219   6.799  -2.001  0.00  0.00    -0.348 N 
ATOM     10  C   UNL d   1      12.579   7.027  -2.121  0.00  0.00     0.252 C 
ATOM     11  O   UNL d   1      13.415   6.157  -1.947  0.00  0.00    -0.268 OA
ATOM     12  H   UNL d   1      10.547   7.519  -2.242  0.00  0.00     0.163 HD
BRANCH  10  13
ATOM     13  C   UNL d   1      13.011   8.417  -2.466  0.00  0.00     0.032 A 
ATOM     14  C   UNL d   1      14.107   8.616  -3.321  0.00  0.00     0.017 A 
ATOM     15  C   UNL d   1      14.621   9.903  -3.523  0.00  0.00     0.001 A 
ATOM     16  C   UNL d   1      14.011  11.001  -2.917  0.00  0.00     0.000 A 
ATOM     17  C   UNL d   1      12.915  10.809  -2.076  0.00  0.00     0.001 A 
ATOM     18  C   UNL d   1      12.419   9.521  -1.844  0.00  0.00     0.017 A 
ENDBRANCH  10  13
ENDBRANCH   8   9
ENDBRANCH   3   8
ENDBRANCH   1   2
BRANCH   1  19
ATOM     19  C   UNL d   1       6.091   3.083  -0.809  0.00  0.00     0.040 C 
ATOM     20  C   UNL d   1       5.367   2.404  -1.803  0.00  0.00     0.080 C 
ATOM     21  C   UNL d   1       4.694   1.208  -1.517  0.00  0.00     0.073 C 
ATOM     22  C   UNL d   1       4.787   0.635  -0.253  0.00  0.00     0.071 C 
ATOM     23  C   UNL d   1       5.491   1.262   0.757  0.00  0.00     0.073 C 
ATOM     24  C   UNL d   1       6.058   2.512   0.502  0.00  0.00     0.080 C 
BRANCH  20  25
ATOM     25  O   UNL d   1       5.290   2.789  -3.114  0.00  0.00    -0.360 OA
ATOM     26  H   UNL d   1       5.856   3.550  -3.305  0.00  0.00     0.217 HD
ENDBRANCH  20  25
BRANCH  22  27
ATOM     27  O   UNL d   1       4.206  -0.563   0.040  0.00  0.00    -0.361 OA
ATOM     28  H   UNL d   1       3.609  -0.800  -0.689  0.00  0.00     0.217 HD
ENDBRANCH  22  27
BRANCH  24  29
ATOM     29  O   UNL d   1       6.809   3.089   1.508  0.00  0.00    -0.360 OA
ATOM     30  H   UNL d   1       7.005   2.414   2.182  0.00  0.00     0.217 HD
ENDBRANCH  24  29
ENDBRANCH   1  19
BRANCH   1  31
ATOM     31  C   UNL d   1       6.417   5.438  -0.087  0.00  0.00     0.245 C 
ATOM     32  N   UNL d   1       7.122   6.608  -0.098  0.00  0.00    -0.359 N 
ATOM     33  H   UNL d   1       7.654   6.829  -0.936  0.00  0.00     0.162 HD
ATOM     34  O   UNL d   1       5.372   5.353   0.562  0.00  0.00    -0.271 OA
BRANCH  32  35
ATOM     35  C   UNL d   1       6.782   7.663   0.795  0.00  0.00     0.122 C 
BRANCH  35  36
ATOM     36  C   UNL d   1       7.691   8.846   0.547  0.00  0.00     0.019 C 
BRANCH  36  37
ATOM     37  C   UNL d   1       7.377   9.928   1.561  0.00  0.00    -0.003 C 
ATOM     38  C   UNL d   1       8.264  11.134   1.347  0.00  0.00     0.005 C 
ENDBRANCH  36  37
ENDBRANCH  35  36
ENDBRANCH  32  35
ENDBRANCH   1  31
TORSDOF 14
