REMARK  5 active torsions:
REMARK  status: ('A' for Active; 'I' for Inactive)
REMARK    1  A    between atoms: C_13  and  C_14 
REMARK    2  A    between atoms: C_18  and  O_19 
REMARK    3  A    between atoms: O_19  and  C_20 
REMARK    4  A    between atoms: C_23  and  N_24 
REMARK    5  A    between atoms: C_28  and  N_29 
ROOT
ATOM      1  C   UNL d   1       9.866  -1.109  -3.075  0.00  0.00    -0.014 A 
ATOM      2  C   UNL d   1      11.245  -1.163  -3.288  0.00  0.00     0.011 A 
ATOM      3  C   UNL d   1      11.752  -1.139  -4.590  0.00  0.00     0.003 A 
ATOM      4  C   UNL d   1      10.887  -1.127  -5.690  0.00  0.00     0.037 A 
ATOM      5  C   UNL d   1       9.508  -1.111  -5.486  0.00  0.00     0.076 A 
ATOM      6  C   UNL d   1       9.014  -1.143  -4.185  0.00  0.00     0.048 A 
ENDROOT
BRANCH   1   7
ATOM      7  C   UNL d   1       9.267  -0.877  -1.708  0.00  0.00     0.219 A 
ATOM      8  N   UNL d   1       8.824   0.494  -1.607  0.00  0.00    -0.332 N 
ATOM      9  C   UNL d   1       7.564   0.923  -1.353  0.00  0.00     0.256 A 
ATOM     10  H   UNL d   1       9.499   1.232  -1.762  0.00  0.00     0.165 HD
ATOM     11  C   UNL d   1       6.561  -0.107  -1.212  0.00  0.00     0.073 A 
ATOM     12  O   UNL d   1       7.293   2.120  -1.250  0.00  0.00    -0.267 OA
ATOM     13  C   UNL d   1       6.922  -1.429  -1.290  0.00  0.00     0.088 A 
ATOM     14  C   UNL d   1       5.167   0.055  -0.975  0.00  0.00    -0.023 A 
ATOM     15  S   UNL d   1       5.577  -2.470  -1.107  0.00  0.00    -0.074 SA
ATOM     16  N   UNL d   1       8.193  -1.827  -1.487  0.00  0.00    -0.358 N 
ATOM     17  C   UNL d   1       4.511  -1.156  -0.863  0.00  0.00     0.018 A 
ATOM     18  C   UNL d   1       3.040  -1.301  -0.599  0.00  0.00     0.281 C 
ATOM     19  N   UNL d   1       2.445   0.039  -0.140  0.00  0.00    -0.070 N 
ATOM     20  C   UNL d   1       0.950   0.033  -0.083  0.00  0.00     0.270 C 
ATOM     21  C   UNL d   1       2.951   1.189  -1.005  0.00  0.00     0.239 C 
ATOM     22  H   UNL d   1       2.794   0.196   0.816  0.00  0.00     0.279 HD
ATOM     23  C   UNL d   1       4.458   1.360  -0.820  0.00  0.00     0.068 C 
ATOM     24  H   UNL d   1       8.445  -2.800  -1.640  0.00  0.00     0.162 HD
ENDBRANCH   1   7
BRANCH   5  25
ATOM     25  O   UNL d   1       8.702  -0.938  -6.592  0.00  0.00    -0.308 OA
BRANCH  25  26
ATOM     26  C   UNL d   1       7.386  -0.559  -6.413  0.00  0.00     0.109 A 
ATOM     27  C   UNL d   1       6.452  -1.426  -7.014  0.00  0.00     0.042 A 
ATOM     28  C   UNL d   1       5.077  -1.162  -6.960  0.00  0.00     0.039 A 
ATOM     29  C   UNL d   1       4.617  -0.074  -6.216  0.00  0.00     0.105 A 
ATOM     30  C   UNL d   1       5.525   0.804  -5.613  0.00  0.00     0.075 A 
ATOM     31  C   UNL d   1       6.915   0.590  -5.744  0.00  0.00     0.139 A 
BRANCH  29  32
ATOM     32  N   UNL d   1       3.174   0.107  -5.995  0.00  0.00    -0.116 N 
ATOM     33  O   UNL d   1       2.401  -0.696  -6.533  0.00  0.00    -0.532 OA
ATOM     34  O   UNL d   1       2.821   1.006  -5.215  0.00  0.00    -0.532 OA
ENDBRANCH  29  32
BRANCH  31  35
ATOM     35  N   UNL d   1       7.794   1.583  -5.092  0.00  0.00    -0.113 N 
ATOM     36  O   UNL d   1       7.249   2.367  -4.303  0.00  0.00    -0.532 OA
ATOM     37  O   UNL d   1       9.001   1.597  -5.344  0.00  0.00    -0.532 OA
ENDBRANCH  31  35
ENDBRANCH  25  26
ENDBRANCH   5  25
TORSDOF 5
