@<TRIPOS>MOLECULE
*****
 66 68 0 0 0
SMALL
GASTEIGER

@<TRIPOS>ATOM
      1 C           0.9704   -0.0091   -0.0592 C.3     1  UNL1        0.0788
      2 O           2.3892    0.1128   -0.1476 O.3     1  UNL1       -0.4951
      3 C           3.0234    0.6349    0.9461 C.ar    1  UNL1        0.1202
      4 C           4.2452    1.2760    0.7213 C.ar    1  UNL1       -0.0182
      5 C           5.0380    1.7204    1.8001 C.ar    1  UNL1       -0.0359
      6 C           4.5804    1.5956    3.1169 C.ar    1  UNL1        0.0483
      7 N           5.3887    2.0743    4.2121 N.pl3   1  UNL1       -0.2163
      8 S           4.7782    2.0275    5.7882 S.O2    1  UNL1        0.0723
      9 O           3.5500    2.8087    5.8166 O.2     1  UNL1       -0.1500
     10 O           4.7799    0.6522    6.2233 O.2     1  UNL1       -0.1500
     11 C           5.9397    2.9105    6.8101 C.ar    1  UNL1        0.1086
     12 C           6.7549    2.2482    7.7391 C.ar    1  UNL1       -0.0333
     13 C           7.4329    2.9802    8.7467 C.ar    1  UNL1       -0.0386
     14 C           7.3515    4.3811    8.7910 C.ar    1  UNL1        0.0335
     15 N           8.1214    5.1401    9.7332 N.am    1  UNL1       -0.2855
     16 C           8.1621    6.5331    9.7555 C.2     1  UNL1        0.2172
     17 O           7.5114    7.2595    9.0056 O.2     1  UNL1       -0.2755
     18 C           9.0940    7.1978   10.7665 C.3     1  UNL1        0.0248
     19 C           8.9416    8.7302   10.6221 C.3     1  UNL1       -0.0347
     20 C           9.8017    9.5692   11.5639 C.3     1  UNL1        0.0454
     21 C           9.5527   11.0512   11.3216 C.2     1  UNL1        0.3071
     22 O           8.7761   11.5041   10.4896 O.2     1  UNL1       -0.2509
     23 O          10.3103   11.8237   12.1524 O.3     1  UNL1       -0.4646
     24 C          10.1083   13.2373   11.9542 C.3     1  UNL1        0.0928
     25 C          11.0040   13.9962   12.9155 C.3     1  UNL1       -0.0146
     26 C          10.8712   15.5144   12.7703 C.3     1  UNL1       -0.0246
     27 C          11.6995   16.3019   13.7618 C.ar    1  UNL1       -0.0472
     28 C          12.5076   15.6860   14.7289 C.ar    1  UNL1       -0.0586
     29 C          13.0787   16.4275   15.7586 C.ar    1  UNL1       -0.0615
     30 C          12.9421   17.8105   15.7737 C.ar    1  UNL1       -0.0617
     31 C          12.2071   18.4482   14.7760 C.ar    1  UNL1       -0.0615
     32 C          11.5835   17.6985   13.7775 C.ar    1  UNL1       -0.0586
     33 C           6.5064    4.9980    7.8595 C.ar    1  UNL1       -0.0386
     34 C           5.8122    4.2882    6.8817 C.ar    1  UNL1       -0.0333
     35 C           3.3592    0.9474    3.3193 C.ar    1  UNL1       -0.0359
     36 C           2.5866    0.4785    2.2533 C.ar    1  UNL1       -0.0182
     37 H           0.6264   -0.6071   -0.9092 H       1  UNL1        0.0660
     38 H           0.5173    0.9836   -0.1313 H       1  UNL1        0.0660
     39 H           0.6192   -0.5272    0.8382 H       1  UNL1        0.0660
     40 H           4.5847    1.4307   -0.3015 H       1  UNL1        0.0655
     41 H           6.0146    2.1438    1.5822 H       1  UNL1        0.0638
     42 H           6.1846    2.6755    4.0161 H       1  UNL1        0.1737
     43 H           6.8377    1.1623    7.7113 H       1  UNL1        0.0638
     44 H           7.9899    2.4240    9.4986 H       1  UNL1        0.0637
     45 H           8.7305    4.6248   10.3583 H       1  UNL1        0.1548
     46 H          10.1278    6.9053   10.5571 H       1  UNL1        0.0358
     47 H           8.8221    6.8868   11.7793 H       1  UNL1        0.0358
     48 H           7.8864    9.0009   10.7750 H       1  UNL1        0.0275
     49 H           9.1734    9.0194    9.5860 H       1  UNL1        0.0275
     50 H          10.8593    9.3524   11.3845 H       1  UNL1        0.0378
     51 H           9.5475    9.3304   12.6011 H       1  UNL1        0.0378
     52 H           9.0597   13.4898   12.1516 H       1  UNL1        0.0697
     53 H          10.3684   13.5065   10.9243 H       1  UNL1        0.0697
     54 H          12.0451   13.6936   12.7489 H       1  UNL1        0.0301
     55 H          10.7517   13.6923   13.9403 H       1  UNL1        0.0301
     56 H           9.8200   15.7898   12.9359 H       1  UNL1        0.0314
     57 H          11.1325   15.8228   11.7504 H       1  UNL1        0.0314
     58 H          12.6852   14.6143   14.7238 H       1  UNL1        0.0620
     59 H          13.6090   15.9156   16.5567 H       1  UNL1        0.0618
     60 H          13.4099   18.3886   16.5644 H       1  UNL1        0.0618
     61 H          12.0919   19.5282   14.7940 H       1  UNL1        0.0618
     62 H          10.9844   18.2075   13.0251 H       1  UNL1        0.0620
     63 H           6.3132    6.0623    7.8664 H       1  UNL1        0.0637
     64 H           5.1390    4.8352    6.2254 H       1  UNL1        0.0638
     65 H           2.9628    0.7679    4.3133 H       1  UNL1        0.0638
     66 H           1.6637   -0.0307    2.5018 H       1  UNL1        0.0655
@<TRIPOS>BOND
     1     1     2    1
     2     2     3    1
     3     3     4   ar
     4     4     5   ar
     5     5     6   ar
     6     6     7    1
     7     7     8    1
     8     8     9    2
     9     8    10    2
    10     8    11    1
    11    11    12   ar
    12    12    13   ar
    13    13    14   ar
    14    14    15    1
    15    15    16   am
    16    16    17    2
    17    16    18    1
    18    18    19    1
    19    19    20    1
    20    20    21    1
    21    21    22    2
    22    21    23    1
    23    23    24    1
    24    24    25    1
    25    25    26    1
    26    26    27    1
    27    27    28   ar
    28    28    29   ar
    29    29    30   ar
    30    30    31   ar
    31    31    32   ar
    32    27    32   ar
    33    14    33   ar
    34    33    34   ar
    35    11    34   ar
    36     6    35   ar
    37    35    36   ar
    38     3    36   ar
    39     1    37    1
    40     1    38    1
    41     1    39    1
    42     4    40    1
    43     5    41    1
    44     7    42    1
    45    12    43    1
    46    13    44    1
    47    15    45    1
    48    18    46    1
    49    18    47    1
    50    19    48    1
    51    19    49    1
    52    20    50    1
    53    20    51    1
    54    24    52    1
    55    24    53    1
    56    25    54    1
    57    25    55    1
    58    26    56    1
    59    26    57    1
    60    28    58    1
    61    29    59    1
    62    30    60    1
    63    31    61    1
    64    32    62    1
    65    33    63    1
    66    34    64    1
    67    35    65    1
    68    36    66    1
