@<TRIPOS>MOLECULE
*****
 42 43 0 0 0
SMALL
GASTEIGER

@<TRIPOS>ATOM
      1 C           0.9331   -0.1726   -0.0076 C.3     1  UNL1       -0.0381
      2 C           2.4603   -0.0584   -0.0206 C.3     1  UNL1        0.0949
      3 N           2.9384    1.2954   -0.3753 N.pl3   1  UNL1       -0.3331
      4 C           2.6243    1.9539   -1.5561 C.ar    1  UNL1        0.0279
      5 C           3.6198    2.5768   -2.3143 C.ar    1  UNL1       -0.0374
      6 C           3.3095    3.2443   -3.5144 C.ar    1  UNL1       -0.0182
      7 C           2.0136    3.2175   -4.0305 C.ar    1  UNL1        0.1211
      8 O           1.8249    3.7926   -5.2519 O.3     1  UNL1       -0.4873
      9 C           0.5210    3.6334   -5.8326 C.3     1  UNL1        0.1160
     10 C           0.4694    4.2614   -7.2033 C.ar    1  UNL1        0.0079
     11 C           1.6469    4.7007   -7.8294 C.ar    1  UNL1       -0.0540
     12 C           1.5937    5.4255   -9.0164 C.ar    1  UNL1       -0.0613
     13 C           0.3721    5.6348   -9.6483 C.ar    1  UNL1       -0.0604
     14 C          -0.8018    5.1449   -9.0769 C.ar    1  UNL1       -0.0430
     15 C          -0.7551    4.4611   -7.8604 C.ar    1  UNL1        0.0474
     16 CL         -2.2444    3.8767   -7.2037 Cl      1  UNL1       -0.0831
     17 C           1.0150    2.6248   -3.2828 C.ar    1  UNL1       -0.0182
     18 C           1.3220    2.0469   -2.0537 C.ar    1  UNL1       -0.0374
     19 C           2.9119   -0.4939    1.4017 C.2     1  UNL1        0.2404
     20 O           2.0855   -0.7925    2.2705 O.2     1  UNL1       -0.2733
     21 N           4.2710   -0.5807    1.6441 N.am    1  UNL1       -0.2388
     22 C           4.8514   -0.9843    2.8215 C.2     1  UNL1        0.3034
     23 N           4.0206   -1.3237    3.8314 N.am    1  UNL1       -0.3130
     24 O           6.0744   -1.0370    2.9576 O.2     1  UNL1       -0.2527
     25 H           0.4967   -0.0984   -1.0015 H       1  UNL1        0.0252
     26 H           0.4964    0.5931    0.6480 H       1  UNL1        0.0252
     27 H           0.6045   -1.1529    0.3491 H       1  UNL1        0.0252
     28 H           2.8690   -0.7786   -0.7404 H       1  UNL1        0.0591
     29 H           3.5475    1.7884    0.2698 H       1  UNL1        0.1468
     30 H           4.6578    2.5401   -1.9941 H       1  UNL1        0.0637
     31 H           4.0891    3.7789   -4.0515 H       1  UNL1        0.0655
     32 H          -0.2013    4.1620   -5.1974 H       1  UNL1        0.0748
     33 H           0.2624    2.5699   -5.9198 H       1  UNL1        0.0748
     34 H           2.6181    4.5026   -7.3791 H       1  UNL1        0.0622
     35 H           2.5079    5.8392   -9.4335 H       1  UNL1        0.0618
     36 H           0.3368    6.1747  -10.5901 H       1  UNL1        0.0618
     37 H          -1.7525    5.3165   -9.5745 H       1  UNL1        0.0632
     38 H          -0.0233    2.6092   -3.5956 H       1  UNL1        0.0655
     39 H           0.4640    1.7287   -1.4807 H       1  UNL1        0.0637
     40 H           4.9316   -0.3518    0.9155 H       1  UNL1        0.1591
     41 H           3.0114   -1.2793    3.6957 H       1  UNL1        0.1465
     42 H           4.3782   -1.6251    4.7253 H       1  UNL1        0.1465
@<TRIPOS>BOND
     1     1     2    1
     2     2     3    1
     3     3     4    1
     4     4     5   ar
     5     5     6   ar
     6     6     7   ar
     7     7     8    1
     8     8     9    1
     9     9    10    1
    10    10    11   ar
    11    11    12   ar
    12    12    13   ar
    13    13    14   ar
    14    14    15   ar
    15    10    15   ar
    16    15    16    1
    17     7    17   ar
    18    17    18   ar
    19     4    18   ar
    20     2    19    1
    21    19    20    2
    22    19    21   am
    23    21    22   am
    24    22    23   am
    25    22    24    2
    26     1    25    1
    27     1    26    1
    28     1    27    1
    29     2    28    1
    30     3    29    1
    31     5    30    1
    32     6    31    1
    33     9    32    1
    34     9    33    1
    35    11    34    1
    36    12    35    1
    37    13    36    1
    38    14    37    1
    39    17    38    1
    40    18    39    1
    41    21    40    1
    42    23    41    1
    43    23    42    1
