@<TRIPOS>MOLECULE
*****
 47 49 0 0 0
SMALL
GASTEIGER

@<TRIPOS>ATOM
      1 C           2.5050    1.0668    0.0070 C.3     1  UNL1       -0.0397
      2 C           1.1997    0.3229   -0.0079 C.ar    1  UNL1       -0.0502
      3 C           1.1841   -1.0735    0.0024 C.ar    1  UNL1       -0.0582
      4 C          -0.0285   -1.7677   -0.0019 C.ar    1  UNL1       -0.0520
      5 C          -1.2527   -1.0827   -0.0283 C.ar    1  UNL1        0.0039
      6 C          -2.4788   -1.8678   -0.0193 C.ar    1  UNL1        0.0805
      7 C          -3.4548   -1.8083   -0.9968 C.ar    1  UNL1        0.0049
      8 S          -4.7643   -2.8462   -0.5599 S.2     1  UNL1       -0.0599
      9 C          -3.9165   -3.2931    0.8573 C.ar    1  UNL1        0.1652
     10 N          -4.5274   -4.2028    1.6934 N.am    1  UNL1       -0.2607
     11 C          -3.8987   -4.5658    2.8751 C.2     1  UNL1        0.2497
     12 O          -2.8431   -4.1124    3.3104 O.2     1  UNL1       -0.2698
     13 C          -4.5163   -5.6410    3.6988 C.ar    1  UNL1        0.0371
     14 C          -4.3374   -5.6313    5.0927 C.ar    1  UNL1       -0.0493
     15 C          -4.6485   -6.7632    5.8630 C.ar    1  UNL1       -0.0564
     16 C          -5.2174   -7.9020    5.2684 C.ar    1  UNL1       -0.0302
     17 C          -5.6412   -9.0591    6.1533 C.3     1  UNL1        0.0383
     18 N          -6.2865  -10.1619    5.4683 N.am    1  UNL1       -0.2955
     19 C          -6.8050  -11.2889    5.9833 C.2     1  UNL1        0.2973
     20 N          -6.7407  -11.4586    7.3105 N.am    1  UNL1       -0.3134
     21 O          -7.3228  -12.1328    5.2518 O.2     1  UNL1       -0.2531
     22 C          -5.3922   -7.8868    3.8745 C.ar    1  UNL1       -0.0564
     23 C          -5.0553   -6.7724    3.0967 C.ar    1  UNL1       -0.0493
     24 N          -2.7454   -2.7352    1.0138 N.ar    1  UNL1       -0.2246
     25 C          -1.2563    0.3252   -0.0179 C.ar    1  UNL1       -0.0410
     26 C          -2.5290    1.1288    0.0141 C.3     1  UNL1       -0.0391
     27 C          -0.0228    1.0133   -0.0167 C.ar    1  UNL1       -0.0553
     28 H           3.3573    0.3774    0.0026 H       1  UNL1        0.0278
     29 H           2.5849    1.6838    0.9077 H       1  UNL1        0.0278
     30 H           2.5931    1.7045   -0.8783 H       1  UNL1        0.0278
     31 H           2.1151   -1.6356    0.0206 H       1  UNL1        0.0620
     32 H          -0.0158   -2.8559    0.0226 H       1  UNL1        0.0624
     33 H          -3.4672   -1.1938   -1.8881 H       1  UNL1        0.0716
     34 H          -5.4280   -4.5654    1.4194 H       1  UNL1        0.1571
     35 H          -3.9193   -4.7514    5.5821 H       1  UNL1        0.0625
     36 H          -4.4172   -6.7533    6.9287 H       1  UNL1        0.0621
     37 H          -6.3620   -8.6838    6.8905 H       1  UNL1        0.0512
     38 H          -4.7799   -9.4633    6.6987 H       1  UNL1        0.0512
     39 H          -6.4053  -10.1379    4.4689 H       1  UNL1        0.1506
     40 H          -6.3391  -10.7849    7.9394 H       1  UNL1        0.1465
     41 H          -7.1353  -12.3087    7.6883 H       1  UNL1        0.1465
     42 H          -5.7608   -8.7538    3.3384 H       1  UNL1        0.0621
     43 H          -5.1610   -6.8413    2.0195 H       1  UNL1        0.0625
     44 H          -3.4257    0.5107    0.0916 H       1  UNL1        0.0278
     45 H          -2.6203    1.7171   -0.9035 H       1  UNL1        0.0278
     46 H          -2.5471    1.7874    0.8870 H       1  UNL1        0.0278
     47 H          -0.0167    2.1027   -0.0115 H       1  UNL1        0.0623
@<TRIPOS>BOND
     1     1     2    1
     2     2     3   ar
     3     3     4   ar
     4     4     5   ar
     5     5     6    1
     6     6     7   ar
     7     7     8   ar
     8     8     9   ar
     9     9    10    1
    10    10    11   am
    11    11    12    2
    12    11    13    1
    13    13    14   ar
    14    14    15   ar
    15    15    16   ar
    16    16    17    1
    17    17    18    1
    18    18    19   am
    19    19    20   am
    20    19    21    2
    21    16    22   ar
    22    22    23   ar
    23    13    23   ar
    24     9    24   ar
    25     6    24   ar
    26     5    25   ar
    27    25    26    1
    28    25    27   ar
    29     2    27   ar
    30     1    28    1
    31     1    29    1
    32     1    30    1
    33     3    31    1
    34     4    32    1
    35     7    33    1
    36    10    34    1
    37    14    35    1
    38    15    36    1
    39    17    37    1
    40    17    38    1
    41    18    39    1
    42    20    40    1
    43    20    41    1
    44    22    42    1
    45    23    43    1
    46    26    44    1
    47    26    45    1
    48    26    46    1
    49    27    47    1
