REMARK  6 active torsions:
REMARK  status: ('A' for Active; 'I' for Inactive)
REMARK    1  A    between atoms: O_2  and  C_3 
REMARK    2  A    between atoms: C_6  and  N_7 
REMARK       I    between atoms: N_7  and  C_8 
REMARK    3  A    between atoms: C_12  and  N_13 
REMARK       I    between atoms: N_13  and  C_14 
REMARK    4  A    between atoms: C_14  and  C_16 
REMARK    5  A    between atoms: C_16  and  N_17 
REMARK    6  A    between atoms: C_21  and  C_23 
ROOT
ATOM      1  N   UNL d   1       1.701   0.040  -2.552  0.00  0.00    -0.323 N 
ATOM      2  C   UNL d   1       1.225   1.174  -1.914  0.00  0.00     0.240 C 
ATOM      3  O   UNL d   1       1.900   1.810  -1.109  0.00  0.00    -0.271 OA
ATOM      4  H   UNL d   1       1.425  -0.135  -3.512  0.00  0.00     0.169 HD
ENDROOT
BRANCH   2   5
ATOM      5  C   UNL d   1      -0.217   1.574  -2.219  0.00  0.00     0.240 C 
BRANCH   5   6
ATOM      6  N   UNL d   1      -0.822   2.268  -1.074  0.00  0.00    -0.259 N 
ATOM      7  C   UNL d   1      -1.922   1.873  -0.359  0.00  0.00     0.326 C 
ATOM      8  O   UNL d   1      -2.312   0.751  -0.141  0.00  0.00    -0.247 OA
ATOM      9  N   UNL d   1      -2.547   3.024   0.107  0.00  0.00    -0.321 N 
ATOM     10  C   UNL d   1      -1.640   4.149   0.118  0.00  0.00     0.141 C 
ATOM     11  H   UNL d   1      -3.488   3.022   0.481  0.00  0.00     0.165 HD
ATOM     12  C   UNL d   1      -1.178   4.364   1.570  0.00  0.00     0.055 C 
ATOM     13  C   UNL d   1      -0.503   3.559  -0.737  0.00  0.00     0.261 C 
ATOM     14  O   UNL d   1       0.489   4.179  -1.093  0.00  0.00    -0.270 OA
BRANCH  10  15
ATOM     15  C   UNL d   1      -2.204   5.414  -0.526  0.00  0.00    -0.004 A 
ATOM     16  C   UNL d   1      -2.162   6.628   0.204  0.00  0.00     0.011 A 
ATOM     17  C   UNL d   1      -2.694   7.814  -0.287  0.00  0.00     0.001 A 
ATOM     18  C   UNL d   1      -3.191   7.852  -1.575  0.00  0.00     0.001 A 
ATOM     19  C   UNL d   1      -3.202   6.693  -2.346  0.00  0.00     0.020 A 
ATOM     20  C   UNL d   1      -2.727   5.480  -1.833  0.00  0.00     0.020 A 
ATOM     21 BR   UNL d   1      -2.845   4.020  -3.047  0.00  0.00    -0.050 Br
ENDBRANCH  10  15
ENDBRANCH   5   6
ENDBRANCH   2   5
BRANCH   1  22
ATOM     22  C   UNL d   1       2.761  -0.750  -2.015  0.00  0.00     0.070 C 
ATOM     23  C   UNL d   1       3.563  -1.427  -2.941  0.00  0.00     0.062 C 
ATOM     24  C   UNL d   1       4.580  -2.323  -2.599  0.00  0.00     0.037 C 
ATOM     25  C   UNL d   1       4.963  -2.351  -1.259  0.00  0.00     0.032 C 
ATOM     26  C   UNL d   1       4.206  -1.648  -0.306  0.00  0.00     0.041 C 
ATOM     27  C   UNL d   1       3.065  -0.908  -0.664  0.00  0.00     0.095 C 
BRANCH  24  28
ATOM     28  N   UNL d   1       5.222  -3.185  -3.520  0.00  0.00    -0.327 N 
ATOM     29  C   UNL d   1       4.951  -3.512  -4.824  0.00  0.00     0.218 C 
ATOM     30  C   UNL d   1       3.833  -2.887  -5.619  0.00  0.00     0.117 C 
ATOM     31  O   UNL d   1       5.660  -4.362  -5.376  0.00  0.00    -0.274 OA
ATOM     32  H   UNL d   1       5.966  -3.776  -3.154  0.00  0.00     0.169 HD
ENDBRANCH  24  28
BRANCH  27  33
ATOM     33  O   UNL d   1       2.413  -0.335   0.389  0.00  0.00    -0.354 OA
ATOM     34  C   UNL d   1       0.996  -0.467   0.436  0.00  0.00     0.210 C 
ENDBRANCH  27  33
ENDBRANCH   1  22
TORSDOF 6
