@<TRIPOS>MOLECULE
*****
 58 60 0 0 0
SMALL
GASTEIGER

@<TRIPOS>ATOM
      1 C           0.6654   -0.5068   -0.2250 C.3     1  UNL1       -0.0307
      2 C           2.1793   -0.5926   -0.3547 C.3     1  UNL1        0.0870
      3 O           2.8775   -1.4057    0.5977 O.3     1  UNL1       -0.4884
      4 C           4.2683   -1.3494    0.7090 C.ar    1  UNL1        0.1663
      5 C           4.8831   -2.6238    0.6493 C.ar    1  UNL1       -0.0039
      6 C           6.2488   -2.8660    0.9980 C.ar    1  UNL1        0.0442
      7 C           6.6997   -4.2955    1.0968 C.2     1  UNL1        0.2498
      8 O           5.8754   -5.1270    0.6730 O.2     1  UNL1       -0.2698
      9 N           7.9658   -4.6733    1.5855 N.am    1  UNL1       -0.2636
     10 C           8.3131   -5.9786    2.0129 C.2     1  UNL1        0.1412
     11 S           7.1779   -7.1747    2.3774 S.2     1  UNL1       -0.0182
     12 N           9.6969   -6.1853    2.1541 N.am    1  UNL1       -0.2933
     13 C          10.3035   -7.4932    2.3016 C.ar    1  UNL1        0.0824
     14 C          11.1684   -7.7023    3.4154 C.ar    1  UNL1        0.1386
     15 O          11.3919   -6.7697    4.3985 O.3     1  UNL1       -0.5049
     16 C          11.7992   -8.9233    3.6252 C.ar    1  UNL1       -0.0177
     17 C          11.6129   -9.9439    2.7070 C.ar    1  UNL1       -0.0505
     18 C          10.8469   -9.7480    1.5515 C.ar    1  UNL1       -0.0159
     19 C          10.8871  -10.7485    0.5780 C.ar    1  UNL1       -0.0540
     20 C          10.3372  -10.5332   -0.6679 C.ar    1  UNL1       -0.0612
     21 C           9.1623   -9.8499   -0.6107 C.ar    1  UNL1       -0.0611
     22 C           9.2167   -8.6792    0.1565 C.ar    1  UNL1       -0.0521
     23 C          10.0952   -8.5699    1.3212 C.ar    1  UNL1        0.0069
     24 C           7.0536   -1.7783    1.3152 C.ar    1  UNL1       -0.0039
     25 C           6.4823   -0.4950    1.4028 C.ar    1  UNL1        0.1663
     26 O           7.3979    0.4678    1.8257 O.3     1  UNL1       -0.4884
     27 C           6.8903    1.7906    2.0254 C.3     1  UNL1        0.0870
     28 C           7.9281    2.7605    2.5140 C.3     1  UNL1       -0.0307
     29 C           5.0874   -0.2758    1.1446 C.ar    1  UNL1        0.2038
     30 O           4.7090    0.9973    1.5011 O.3     1  UNL1       -0.4855
     31 C           3.5062    1.4793    1.0365 C.3     1  UNL1        0.0871
     32 C           3.1013    2.9180    1.1754 C.3     1  UNL1       -0.0307
     33 H           0.3297    0.4184   -0.7294 H       1  UNL1        0.0262
     34 H           0.3778   -0.3850    0.8280 H       1  UNL1        0.0262
     35 H           0.1388   -1.3466   -0.6624 H       1  UNL1        0.0262
     36 H           2.2511    0.4174   -0.0731 H       1  UNL1        0.0694
     37 H           2.6029   -0.6142   -1.3613 H       1  UNL1        0.0694
     38 H           4.2567   -3.4781    0.3782 H       1  UNL1        0.0663
     39 H           8.6439   -3.9449    1.7599 H       1  UNL1        0.1568
     40 H          10.2502   -5.4265    2.5404 H       1  UNL1        0.1540
     41 H          10.5787   -6.2586    4.5312 H       1  UNL1        0.2922
     42 H          12.4409   -9.0910    4.4887 H       1  UNL1        0.0655
     43 H          12.1128  -10.8966    2.8733 H       1  UNL1        0.0625
     44 H          11.3302  -11.7188    0.7632 H       1  UNL1        0.0624
     45 H          11.0186   -9.9034   -1.3021 H       1  UNL1        0.0618
     46 H           8.3960  -10.1754   -1.3093 H       1  UNL1        0.0618
     47 H           8.5540   -7.8703   -0.1378 H       1  UNL1        0.0624
     48 H           8.1073   -1.8881    1.5441 H       1  UNL1        0.0663
     49 H           6.1300    1.7812    2.8173 H       1  UNL1        0.0694
     50 H           6.5182    2.1882    1.0715 H       1  UNL1        0.0694
     51 H           8.3126    2.4414    3.4844 H       1  UNL1        0.0262
     52 H           7.4603    3.7463    2.6236 H       1  UNL1        0.0262
     53 H           8.7511    2.8266    1.8028 H       1  UNL1        0.0262
     54 H           2.7614    0.9226    1.6132 H       1  UNL1        0.0694
     55 H           3.5992    1.3813   -0.0496 H       1  UNL1        0.0694
     56 H           3.2251    3.2894    2.1886 H       1  UNL1        0.0262
     57 H           2.0409    2.9721    0.8873 H       1  UNL1        0.0262
     58 H           3.6583    3.5421    0.4723 H       1  UNL1        0.0262
@<TRIPOS>BOND
     1     1     2    1
     2     2     3    1
     3     3     4    1
     4     4     5   ar
     5     5     6   ar
     6     6     7    1
     7     7     8    2
     8     7     9   am
     9     9    10    1
    10    10    11    2
    11    10    12    1
    12    12    13    1
    13    13    14   ar
    14    14    15    1
    15    14    16   ar
    16    16    17   ar
    17    17    18   ar
    18    18    19   ar
    19    19    20   ar
    20    20    21   ar
    21    21    22   ar
    22    22    23   ar
    23    13    23   ar
    24    18    23   ar
    25     6    24   ar
    26    24    25   ar
    27    25    26    1
    28    26    27    1
    29    27    28    1
    30    25    29   ar
    31     4    29   ar
    32    29    30    1
    33    30    31    1
    34    31    32    1
    35     1    33    1
    36     1    34    1
    37     1    35    1
    38     2    36    1
    39     2    37    1
    40     5    38    1
    41     9    39    1
    42    12    40    1
    43    15    41    1
    44    16    42    1
    45    17    43    1
    46    19    44    1
    47    20    45    1
    48    21    46    1
    49    22    47    1
    50    24    48    1
    51    27    49    1
    52    27    50    1
    53    28    51    1
    54    28    52    1
    55    28    53    1
    56    31    54    1
    57    31    55    1
    58    32    56    1
    59    32    57    1
    60    32    58    1
