REMARK  7 active torsions:
REMARK  status: ('A' for Active; 'I' for Inactive)
REMARK    1  A    between atoms: O_2  and  C_3 
REMARK    2  A    between atoms: C_3  and  C_5 
REMARK    3  A    between atoms: C_14  and  N_15 
REMARK       I    between atoms: N_15  and  C_16 
REMARK    4  A    between atoms: C_16  and  C_18 
REMARK    5  A    between atoms: C_18  and  N_20 
REMARK    6  A    between atoms: N_23  and  C_24 
REMARK    7  A    between atoms: C_28  and  C_29 
ROOT
ATOM      1  N   UNL d   1       5.006  -0.557   1.754  0.00  0.00    -0.322 N 
ATOM      2  C   UNL d   1       5.844  -0.459   2.863  0.00  0.00     0.253 C 
ATOM      3  O   UNL d   1       7.074  -0.479   2.900  0.00  0.00    -0.271 OA
ATOM      4  H   UNL d   1       3.996  -0.559   1.871  0.00  0.00     0.169 HD
ENDROOT
BRANCH   2   5
ATOM      5  C   UNL d   1       5.238  -0.317   4.271  0.00  0.00     0.275 C 
ATOM      6  C   UNL d   1       4.411  -1.546   4.580  0.00  0.00     0.050 C 
BRANCH   5   7
ATOM      7  N   UNL d   1       6.437  -0.177   5.361  0.00  0.00    -0.056 N 
ATOM      8  C   UNL d   1       6.422   1.180   6.080  0.00  0.00     0.255 C 
ATOM      9  C   UNL d   1       7.516   1.298   7.171  0.00  0.00     0.150 C 
ATOM     10  N   UNL d   1       7.504   0.157   8.085  0.00  0.00    -0.378 N 
ATOM     11  C   UNL d   1       7.691  -1.138   7.419  0.00  0.00     0.150 C 
ATOM     12  C   UNL d   1       6.591  -1.354   6.352  0.00  0.00     0.255 C 
ATOM     13  H   UNL d   1       7.287  -0.193   4.755  0.00  0.00     0.281 HD
BRANCH  10  14
ATOM     14  C   UNL d   1       6.977   0.208   9.366  0.00  0.00     0.030 A 
ATOM     15  C   UNL d   1       7.688  -0.363  10.434  0.00  0.00     0.029 A 
ATOM     16  C   UNL d   1       7.179  -0.397  11.740  0.00  0.00     0.003 A 
ATOM     17  C   UNL d   1       5.953   0.190  12.024  0.00  0.00     0.016 A 
ATOM     18  C   UNL d   1       5.215   0.780  10.992  0.00  0.00     0.050 A 
ATOM     19  C   UNL d   1       5.743   0.796   9.677  0.00  0.00     0.045 A 
BRANCH  18  20
ATOM     20  C   UNL d   1       3.842   1.334  11.294  0.00  0.00     0.417 C 
ATOM     21  F   UNL d   1       3.006   0.385  11.799  0.00  0.00    -0.166 F 
ATOM     22  F   UNL d   1       3.861   2.347  12.200  0.00  0.00    -0.166 F 
ATOM     23  F   UNL d   1       3.216   1.825  10.187  0.00  0.00    -0.166 F 
ENDBRANCH  18  20
ENDBRANCH  10  14
ENDBRANCH   5   7
ENDBRANCH   2   5
BRANCH   1  24
ATOM     24  C   UNL d   1       5.416  -0.708   0.406  0.00  0.00     0.080 A 
ATOM     25  C   UNL d   1       6.755  -0.741  -0.146  0.00  0.00     0.021 A 
ATOM     26  C   UNL d   1       8.065  -0.595   0.360  0.00  0.00     0.040 A 
ATOM     27  C   UNL d   1       6.658  -0.970  -1.519  0.00  0.00     0.045 A 
ATOM     28  C   UNL d   1       9.195  -0.672  -0.441  0.00  0.00     0.035 A 
ATOM     29  C   UNL d   1       9.065  -0.906  -1.791  0.00  0.00     0.026 A 
ATOM     30 CL   UNL d   1      10.735  -0.443   0.295  0.00  0.00    -0.084 Cl
ATOM     31  C   UNL d   1       7.791  -1.061  -2.357  0.00  0.00     0.032 A 
ATOM     32  N   UNL d   1       5.318  -1.068  -1.809  0.00  0.00    -0.349 N 
ATOM     33  C   UNL d   1       4.535  -0.882  -0.675  0.00  0.00     0.136 A 
ATOM     34  H   UNL d   1       4.948  -1.223  -2.741  0.00  0.00     0.166 HD
BRANCH  33  35
ATOM     35  C   UNL d   1       3.087  -0.940  -0.787  0.00  0.00     0.312 C 
ATOM     36  O   UNL d   1       2.480  -1.685  -1.553  0.00  0.00    -0.258 OA
BRANCH  35  37
ATOM     37  O   UNL d   1       2.489  -0.034   0.040  0.00  0.00    -0.321 OA
ATOM     38  C   UNL d   1       1.053   0.012  -0.065  0.00  0.00     0.213 C 
ENDBRANCH  35  37
ENDBRANCH  33  35
ENDBRANCH   1  24
TORSDOF 7
