@<TRIPOS>MOLECULE
*****
 51 53 0 0 0
SMALL
GASTEIGER

@<TRIPOS>ATOM
      1 C           0.3534   -2.3737   -0.0067 C.3     1  UNL1       -0.0385
      2 C           1.0378   -1.0373    0.0011 C.ar    1  UNL1       -0.0330
      3 C           2.4473   -1.0066   -0.0011 C.ar    1  UNL1       -0.0160
      4 C           3.1494    0.1937   -0.0004 C.ar    1  UNL1        0.1215
      5 O           4.5159    0.2883    0.0006 O.3     1  UNL1       -0.4828
      6 C           5.3377   -0.9120    0.0167 C.3     1  UNL1        0.1655
      7 C           6.8378   -0.4899    0.0288 C.2     1  UNL1        0.2561
      8 O           7.0923    0.7187    0.0291 O.2     1  UNL1       -0.2717
      9 N           7.8567   -1.4846    0.0396 N.am    1  UNL1       -0.2639
     10 C           9.2611   -1.2432    0.0498 C.2     1  UNL1        0.1531
     11 S           9.9836    0.2854    0.0518 S.2     1  UNL1       -0.0170
     12 N          10.0956   -2.3812    0.0592 N.am    1  UNL1       -0.2455
     13 N          11.5591   -2.1910    0.0694 N.am    1  UNL1       -0.2323
     14 C          12.4417   -3.2674    0.0732 C.2     1  UNL1        0.2667
     15 O          12.0136   -4.4277    0.0735 O.2     1  UNL1       -0.2705
     16 C          13.9727   -2.9153    0.0866 C.3     1  UNL1        0.1666
     17 O          14.7820   -4.1036    0.0297 O.3     1  UNL1       -0.4827
     18 C          16.1481   -3.9706    0.0838 C.ar    1  UNL1        0.1218
     19 C          16.8257   -3.1165    0.9482 C.ar    1  UNL1       -0.0193
     20 C          18.2305   -3.1124    0.9833 C.ar    1  UNL1       -0.0506
     21 C          18.9873   -3.9809    0.1790 C.ar    1  UNL1       -0.0177
     22 C          20.3946   -3.9970    0.2364 C.ar    1  UNL1       -0.0540
     23 C          21.1371   -4.8657   -0.5648 C.ar    1  UNL1       -0.0612
     24 C          20.4812   -5.7306   -1.4339 C.ar    1  UNL1       -0.0612
     25 C          19.0829   -5.7294   -1.4982 C.ar    1  UNL1       -0.0539
     26 C          18.3139   -4.8622   -0.6932 C.ar    1  UNL1       -0.0144
     27 C          16.8972   -4.8466   -0.7200 C.ar    1  UNL1       -0.0122
     28 C           2.4187    1.3933   -0.0026 C.ar    1  UNL1       -0.0189
     29 C           1.0137    1.3841    0.0029 C.ar    1  UNL1       -0.0441
     30 C           0.3261    0.1705    0.0049 C.ar    1  UNL1        0.0210
     31 BR         -1.5742    0.2141    0.0059 Br      1  UNL1       -0.0500
     32 H           1.0837   -3.1899   -0.0042 H       1  UNL1        0.0278
     33 H          -0.2556   -2.4835   -0.9089 H       1  UNL1        0.0278
     34 H          -0.2689   -2.4904    0.8854 H       1  UNL1        0.0278
     35 H           2.9812   -1.9486   -0.0065 H       1  UNL1        0.0657
     36 H           5.1353   -1.4945   -0.8878 H       1  UNL1        0.0795
     37 H           5.1182   -1.4840    0.9240 H       1  UNL1        0.0795
     38 H           7.5548   -2.4503    0.0395 H       1  UNL1        0.1566
     39 H           9.8033   -3.3582    0.0587 H       1  UNL1        0.1718
     40 H          11.8644   -1.2163    0.0657 H       1  UNL1        0.1729
     41 H          14.1801   -2.3426    0.9977 H       1  UNL1        0.0795
     42 H          14.2008   -2.3000   -0.7927 H       1  UNL1        0.0795
     43 H          16.2967   -2.4722    1.6407 H       1  UNL1        0.0654
     44 H          18.7380   -2.4293    1.6622 H       1  UNL1        0.0625
     45 H          20.9255   -3.3335    0.9160 H       1  UNL1        0.0624
     46 H          22.2233   -4.8663   -0.5081 H       1  UNL1        0.0618
     47 H          21.0573   -6.4091   -2.0592 H       1  UNL1        0.0618
     48 H          18.5952   -6.4168   -2.1863 H       1  UNL1        0.0624
     49 H          16.3685   -5.5352   -1.3764 H       1  UNL1        0.0660
     50 H           2.9321    2.3537   -0.0098 H       1  UNL1        0.0654
     51 H           0.4640    2.3245    0.0040 H       1  UNL1        0.0630
@<TRIPOS>BOND
     1     1     2    1
     2     2     3   ar
     3     3     4   ar
     4     4     5    1
     5     5     6    1
     6     6     7    1
     7     7     8    2
     8     7     9   am
     9     9    10    1
    10    10    11    2
    11    10    12    1
    12    12    13    1
    13    13    14   am
    14    14    15    2
    15    14    16    1
    16    16    17    1
    17    17    18    1
    18    18    19   ar
    19    19    20   ar
    20    20    21   ar
    21    21    22   ar
    22    22    23   ar
    23    23    24   ar
    24    24    25   ar
    25    25    26   ar
    26    21    26   ar
    27    26    27   ar
    28    18    27   ar
    29     4    28   ar
    30    28    29   ar
    31    29    30   ar
    32     2    30   ar
    33    30    31    1
    34     1    32    1
    35     1    33    1
    36     1    34    1
    37     3    35    1
    38     6    36    1
    39     6    37    1
    40     9    38    1
    41    12    39    1
    42    13    40    1
    43    16    41    1
    44    16    42    1
    45    19    43    1
    46    20    44    1
    47    22    45    1
    48    23    46    1
    49    24    47    1
    50    25    48    1
    51    27    49    1
    52    28    50    1
    53    29    51    1
