@<TRIPOS>MOLECULE
*****
 60 62 0 0 0
SMALL
GASTEIGER

@<TRIPOS>ATOM
      1 C           1.8615    1.4628   -0.0132 C.3     1  UNL1       -0.0394
      2 C           0.5815    0.6600    0.0082 C.ar    1  UNL1       -0.0458
      3 C          -0.6187    1.3832    0.0253 C.ar    1  UNL1       -0.0585
      4 C          -1.8274    0.7171    0.0195 C.ar    1  UNL1       -0.0597
      5 C          -1.8516   -0.6735   -0.0123 C.ar    1  UNL1       -0.0402
      6 C          -0.6882   -1.4578   -0.0102 C.ar    1  UNL1        0.0370
      7 N          -0.8054   -2.8888   -0.0513 N.am    1  UNL1       -0.2775
      8 C          -2.0126   -3.6075   -0.0979 C.2     1  UNL1        0.3048
      9 O          -3.1556   -3.1883    0.0297 O.2     1  UNL1       -0.2648
     10 C          -1.9112   -5.1282   -0.3090 C.2     1  UNL1        0.3184
     11 O          -0.8158   -5.6595   -0.2712 O.2     1  UNL1       -0.2634
     12 N          -3.1801   -5.7566   -0.4312 N.am    1  UNL1       -0.1992
     13 N          -3.2390   -7.1176   -0.6382 N.2     1  UNL1       -0.1872
     14 C          -4.3008   -7.8081   -0.3461 C.2     1  UNL1        0.0563
     15 C          -4.1950   -9.3020   -0.1778 C.ar    1  UNL1        0.0362
     16 C          -5.0278  -10.1153   -0.9679 C.ar    1  UNL1       -0.0496
     17 C          -5.0255  -11.5136   -0.8179 C.ar    1  UNL1       -0.0609
     18 C          -4.1538  -12.1226    0.0784 C.ar    1  UNL1       -0.0583
     19 C          -3.3425  -11.3272    0.8832 C.ar    1  UNL1       -0.0193
     20 C          -3.3716   -9.9204    0.7939 C.ar    1  UNL1        0.1298
     21 O          -2.5958   -9.3527    1.7780 O.3     1  UNL1       -0.4821
     22 C          -2.3807   -7.9613    1.7164 C.3     1  UNL1        0.1655
     23 C          -1.4383   -7.3646    2.7306 C.2     1  UNL1        0.2548
     24 O          -0.7349   -8.0812    3.4379 O.2     1  UNL1       -0.2717
     25 N          -1.4389   -5.9640    2.7636 N.am    1  UNL1       -0.2827
     26 C          -0.4409   -5.2516    3.4468 C.ar    1  UNL1        0.0340
     27 C          -0.7065   -4.0314    4.0656 C.ar    1  UNL1       -0.0405
     28 C           0.3209   -3.3720    4.7513 C.ar    1  UNL1       -0.0595
     29 C           1.5981   -3.9368    4.8232 C.ar    1  UNL1       -0.0500
     30 C           1.8778   -5.1335    4.1566 C.ar    1  UNL1        0.0566
     31 C           3.2577   -5.7242    4.1298 C.3     1  UNL1        0.4175
     32 F           4.1632   -4.8584    3.5951 F       1  UNL1       -0.1659
     33 F           3.7208   -6.0409    5.3682 F       1  UNL1       -0.1659
     34 F           3.3571   -6.8622    3.3868 F       1  UNL1       -0.1659
     35 C           0.8506   -5.7717    3.4696 C.ar    1  UNL1       -0.0288
     36 C           0.5619   -0.7756    0.0066 C.ar    1  UNL1       -0.0263
     37 C           1.8951   -1.4853    0.0250 C.3     1  UNL1       -0.0377
     38 H           1.6584    2.5418   -0.0255 H       1  UNL1        0.0278
     39 H           2.4409    1.2403   -0.9142 H       1  UNL1        0.0278
     40 H           2.4597    1.2594    0.8791 H       1  UNL1        0.0278
     41 H          -0.6227    2.4712    0.0387 H       1  UNL1        0.0620
     42 H          -2.7649    1.2655    0.0314 H       1  UNL1        0.0618
     43 H          -2.8406   -1.1082   -0.0442 H       1  UNL1        0.0636
     44 H           0.0457   -3.4440   -0.0699 H       1  UNL1        0.1553
     45 H          -4.0100   -5.2193   -0.1815 H       1  UNL1        0.1777
     46 H          -5.2768   -7.3603   -0.0826 H       1  UNL1        0.0852
     47 H          -5.6788   -9.6804   -1.7215 H       1  UNL1        0.0625
     48 H          -5.7007  -12.1361   -1.4028 H       1  UNL1        0.0618
     49 H          -4.1087  -13.2076    0.1619 H       1  UNL1        0.0619
     50 H          -2.6855  -11.8069    1.6094 H       1  UNL1        0.0654
     51 H          -3.3376   -7.4433    1.8496 H       1  UNL1        0.0795
     52 H          -1.8402   -7.7775    0.7904 H       1  UNL1        0.0795
     53 H          -2.1682   -5.4308    2.3096 H       1  UNL1        0.1549
     54 H          -1.7104   -3.6163    4.0944 H       1  UNL1        0.0636
     55 H           0.1297   -2.4199    5.2419 H       1  UNL1        0.0618
     56 H           2.3815   -3.4402    5.3925 H       1  UNL1        0.0623
     57 H           1.0753   -6.6863    2.9215 H       1  UNL1        0.0642
     58 H           1.8096   -2.5715    0.0343 H       1  UNL1        0.0278
     59 H           2.4582   -1.2033    0.9227 H       1  UNL1        0.0278
     60 H           2.4832   -1.2154   -0.8600 H       1  UNL1        0.0278
@<TRIPOS>BOND
     1     1     2    1
     2     2     3   ar
     3     3     4   ar
     4     4     5   ar
     5     5     6   ar
     6     6     7    1
     7     7     8   am
     8     8     9    2
     9     8    10    1
    10    10    11    2
    11    10    12   am
    12    12    13    1
    13    13    14    2
    14    14    15    1
    15    15    16   ar
    16    16    17   ar
    17    17    18   ar
    18    18    19   ar
    19    19    20   ar
    20    15    20   ar
    21    20    21    1
    22    21    22    1
    23    22    23    1
    24    23    24    2
    25    23    25   am
    26    25    26    1
    27    26    27   ar
    28    27    28   ar
    29    28    29   ar
    30    29    30   ar
    31    30    31    1
    32    31    32    1
    33    31    33    1
    34    31    34    1
    35    30    35   ar
    36    26    35   ar
    37     6    36   ar
    38     2    36   ar
    39    36    37    1
    40     1    38    1
    41     1    39    1
    42     1    40    1
    43     3    41    1
    44     4    42    1
    45     5    43    1
    46     7    44    1
    47    12    45    1
    48    14    46    1
    49    16    47    1
    50    17    48    1
    51    18    49    1
    52    19    50    1
    53    22    51    1
    54    22    52    1
    55    25    53    1
    56    27    54    1
    57    28    55    1
    58    29    56    1
    59    35    57    1
    60    37    58    1
    61    37    59    1
    62    37    60    1
