REMARK  10 active torsions:
REMARK  status: ('A' for Active; 'I' for Inactive)
REMARK    1  A    between atoms: C_2  and  O_3 
REMARK    2  A    between atoms: O_3  and  C_4 
REMARK    3  A    between atoms: C_9  and  N_10 
REMARK       I    between atoms: N_10  and  C_11 
REMARK       I    between atoms: C_11  and  N_13 
REMARK    4  A    between atoms: N_13  and  C_14 
REMARK    5  A    between atoms: C_15  and  C_14 
REMARK    6  A    between atoms: C_15  and  C_17 
REMARK    7  A    between atoms: C_15  and  O_16 
REMARK    8  A    between atoms: C_17  and  O_18 
REMARK    9  A    between atoms: O_18  and  C_19 
REMARK   10  A    between atoms: C_22  and  N_23 
ROOT
ATOM      1  N   UNL d   1       1.405   2.097   8.127  0.00  0.00    -0.306 N 
ATOM      2  C   UNL d   1       1.834   0.923   7.517  0.00  0.00     0.320 C 
ATOM      3  O   UNL d   1       2.825   0.280   7.859  0.00  0.00    -0.247 OA
ATOM      4  N   UNL d   1       1.169   0.658   6.330  0.00  0.00    -0.340 N 
ATOM      5  H   UNL d   1       0.410   2.218   8.245  0.00  0.00     0.171 HD
ATOM      6  H   UNL d   1       0.162   0.658   6.390  0.00  0.00     0.164 HD
ENDROOT
BRANCH   4   7
ATOM      7  C   UNL d   1       1.787  -0.114   5.232  0.00  0.00     0.158 C 
BRANCH   7   8
ATOM      8  C   UNL d   1       0.908  -1.043   4.363  0.00  0.00     0.160 C 
BRANCH   8   9
ATOM      9  C   UNL d   1      -0.579  -0.795   4.558  0.00  0.00     0.209 C 
BRANCH   9  10
ATOM     10  O   UNL d   1      -0.841  -0.930   5.956  0.00  0.00    -0.349 OA
BRANCH  10  11
ATOM     11  C   UNL d   1      -2.122  -0.748   6.360  0.00  0.00     0.069 A 
ATOM     12  C   UNL d   1      -2.298  -0.123   7.599  0.00  0.00     0.039 A 
ATOM     13  C   UNL d   1      -3.570  -0.041   8.161  0.00  0.00     0.039 A 
ATOM     14  C   UNL d   1      -4.665  -0.528   7.437  0.00  0.00     0.103 A 
ATOM     15  C   UNL d   1      -4.483  -1.157   6.198  0.00  0.00     0.039 A 
ATOM     16  C   UNL d   1      -3.204  -1.270   5.665  0.00  0.00     0.039 A 
BRANCH  14  17
ATOM     17  N   UNL d   1      -6.022  -0.331   7.950  0.00  0.00    -0.116 N 
ATOM     18  O   UNL d   1      -6.148   0.256   9.033  0.00  0.00    -0.532 OA
ATOM     19  O   UNL d   1      -6.964  -0.734   7.252  0.00  0.00    -0.532 OA
ENDBRANCH  14  17
ENDBRANCH  10  11
ENDBRANCH   9  10
ENDBRANCH   8   9
BRANCH   8  20
ATOM     20  O   UNL d   1       1.233  -0.917   2.968  0.00  0.00    -0.392 OA
ATOM     21  H   UNL d   1       1.093   0.005   2.691  0.00  0.00     0.210 HD
ENDBRANCH   8  20
ENDBRANCH   7   8
ENDBRANCH   4   7
BRANCH   1  22
ATOM     22  C   UNL d   1       2.260   3.005   8.838  0.00  0.00     0.069 A 
ATOM     23  C   UNL d   1       1.677   3.802   9.852  0.00  0.00     0.032 A 
ATOM     24  C   UNL d   1       2.450   4.664  10.655  0.00  0.00     0.002 A 
ATOM     25  C   UNL d   1       3.820   4.756  10.456  0.00  0.00     0.003 A 
ATOM     26  C   UNL d   1       4.396   4.050   9.403  0.00  0.00     0.039 A 
ATOM     27  C   UNL d   1       3.635   3.190   8.583  0.00  0.00     0.095 A 
BRANCH  27  28
ATOM     28  O   UNL d   1       4.407   2.576   7.635  0.00  0.00    -0.349 OA
BRANCH  28  29
ATOM     29  C   UNL d   1       3.935   2.514   6.293  0.00  0.00     0.171 C 
ATOM     30  C   UNL d   1       4.641   1.341   5.619  0.00  0.00     0.034 C 
ENDBRANCH  28  29
ENDBRANCH  27  28
ENDBRANCH   1  22
TORSDOF 10
