@<TRIPOS>MOLECULE
*****
 69 72 0 0 0
SMALL
GASTEIGER

@<TRIPOS>ATOM
      1 C           4.5948   -0.7280    5.8506 C.3     1  UNL1       -0.0605
      2 C           4.5283   -2.0896    6.5664 C.3     1  UNL1       -0.0228
      3 C           5.2954   -2.0820    7.9076 C.3     1  UNL1       -0.0396
      4 C           4.7607   -0.9920    8.8352 C.3     1  UNL1       -0.0621
      5 C           6.8022   -1.9169    7.6750 C.3     1  UNL1       -0.0501
      6 C           7.3334   -2.9949    6.7310 C.3     1  UNL1       -0.0511
      7 C           6.5701   -3.0166    5.4084 C.3     1  UNL1       -0.0342
      8 C           5.0664   -3.2154    5.6471 C.3     1  UNL1        0.0259
      9 N           4.3373   -3.2759    4.3840 N.am    1  UNL1       -0.3120
     10 C           2.9688   -3.4615    4.3636 C.2     1  UNL1        0.2163
     11 O           2.2965   -3.6997    5.3609 O.2     1  UNL1       -0.2755
     12 C           2.3520   -3.4368    2.9828 C.3     1  UNL1        0.0356
     13 C           2.5019   -4.8412    2.4085 C.3     1  UNL1       -0.0416
     14 C           1.8682   -4.9503    1.0390 C.3     1  UNL1       -0.0481
     15 C           0.3861   -4.5502    1.0555 C.3     1  UNL1       -0.0255
     16 C          -0.2880   -4.5839   -0.3241 C.3     1  UNL1        0.0122
     17 N           0.4943   -5.3123   -1.3373 N.pl3   1  UNL1       -0.3355
     18 C           0.0447   -5.5882   -2.5397 C.2     1  UNL1        0.1491
     19 C          -0.1752   -6.7113   -3.2951 C.2     1  UNL1        0.1983
     20 O          -0.0686   -7.9758   -3.0986 O.2     1  UNL1       -0.5017
     21 C          -0.6218   -5.8902   -4.4371 C.2     1  UNL1        0.2940
     22 O          -1.0420   -6.0096   -5.5654 O.2     1  UNL1       -0.2768
     23 C          -0.3331   -4.6897   -3.6576 C.2     1  UNL1        0.2782
     24 N          -0.3566   -3.4278   -3.9149 N.2     1  UNL1       -0.2191
     25 C          -0.8172   -2.7822   -5.1928 C.3     1  UNL1        0.1690
     26 C          -1.9445   -1.8070   -4.8307 C.3     1  UNL1        0.1068
     27 O          -1.5206   -0.8598   -3.8380 O.3     1  UNL1       -0.3673
     28 C          -1.1089   -1.4967   -2.6233 C.3     1  UNL1        0.1068
     29 C           0.0875   -2.3962   -2.9175 C.3     1  UNL1        0.1690
     30 C           0.2583   -3.1288    1.6365 C.3     1  UNL1       -0.0481
     31 C           0.8681   -3.0440    3.0281 C.3     1  UNL1       -0.0416
     32 H           4.1272    0.0581    6.4453 H       1  UNL1        0.0233
     33 H           4.0747   -0.7523    4.8902 H       1  UNL1        0.0233
     34 H           5.6247   -0.4184    5.6556 H       1  UNL1        0.0233
     35 H           3.4756   -2.2833    6.8028 H       1  UNL1        0.0319
     36 H           5.1316   -3.0495    8.4061 H       1  UNL1        0.0301
     37 H           4.9050    0.0050    8.4094 H       1  UNL1        0.0233
     38 H           5.2759   -1.0065    9.7984 H       1  UNL1        0.0233
     39 H           3.6886   -1.1336    9.0120 H       1  UNL1        0.0233
     40 H           7.3412   -1.9578    8.6278 H       1  UNL1        0.0268
     41 H           7.0111   -0.9281    7.2500 H       1  UNL1        0.0268
     42 H           7.2468   -3.9756    7.2148 H       1  UNL1        0.0266
     43 H           8.3959   -2.8195    6.5350 H       1  UNL1        0.0266
     44 H           6.9678   -3.8004    4.7557 H       1  UNL1        0.0283
     45 H           6.7475   -2.0724    4.8790 H       1  UNL1        0.0283
     46 H           4.9122   -4.1893    6.1333 H       1  UNL1        0.0501
     47 H           4.8387   -3.0617    3.5313 H       1  UNL1        0.1490
     48 H           2.8844   -2.7088    2.3557 H       1  UNL1        0.0394
     49 H           2.0201   -5.5686    3.0763 H       1  UNL1        0.0273
     50 H           3.5568   -5.1282    2.3424 H       1  UNL1        0.0273
     51 H           1.9876   -5.9910    0.7246 H       1  UNL1        0.0269
     52 H           2.4139   -4.3133    0.3311 H       1  UNL1        0.0269
     53 H          -0.1592   -5.2440    1.7109 H       1  UNL1        0.0316
     54 H          -1.3058   -4.9827   -0.2457 H       1  UNL1        0.0464
     55 H          -0.4330   -3.5515   -0.6315 H       1  UNL1        0.0464
     56 H           1.0586   -6.0421   -0.8979 H       1  UNL1        0.1464
     57 H           0.2153   -8.1819   -2.1871 H       1  UNL1        0.2924
     58 H          -1.1356   -3.5257   -5.9226 H       1  UNL1        0.1050
     59 H           0.0460   -2.2251   -5.5785 H       1  UNL1        0.1050
     60 H          -2.8265   -2.3376   -4.4555 H       1  UNL1        0.0623
     61 H          -2.2411   -1.2345   -5.7150 H       1  UNL1        0.0623
     62 H          -1.9624   -2.0395   -2.1957 H       1  UNL1        0.0623
     63 H          -0.8278   -0.7140   -1.9107 H       1  UNL1        0.0623
     64 H           0.5111   -2.8640   -2.0427 H       1  UNL1        0.1050
     65 H           0.9013   -1.8315   -3.3796 H       1  UNL1        0.1050
     66 H          -0.7924   -2.8178    1.6664 H       1  UNL1        0.0269
     67 H           0.7838   -2.4203    0.9806 H       1  UNL1        0.0269
     68 H           0.3069   -3.7030    3.7037 H       1  UNL1        0.0273
     69 H           0.7536   -2.0245    3.4139 H       1  UNL1        0.0273
@<TRIPOS>UNITY_ATOM_ATTR
24 1
charge 1
@<TRIPOS>BOND
     1     1     2    1
     2     2     3    1
     3     3     5    1
     4     5     6    1
     5     6     7    1
     6     7     8    1
     7     2     8    1
     8     8     9    1
     9     9    10   am
    10    10    11    2
    11    12    13    1
    12    13    14    1
    13    14    15    1
    14    16    17    1
    15    17    18    1
    16    18    19    2
    17    19    20    1
    18    19    21    1
    19    21    22    2
    20    21    23    1
    21    18    23    1
    22    23    24    2
    23    24    25    1
    24    25    26    1
    25    26    27    1
    26    27    28    1
    27    28    29    1
    28    24    29    1
    29    15    30    1
    30    30    31    1
    31    12    31    1
    32    15    16    1
    33    12    10    1
    34     3     4    1
    35     1    32    1
    36     1    33    1
    37     1    34    1
    38     2    35    1
    39     3    36    1
    40     4    37    1
    41     4    38    1
    42     4    39    1
    43     5    40    1
    44     5    41    1
    45     6    42    1
    46     6    43    1
    47     7    44    1
    48     7    45    1
    49     8    46    1
    50     9    47    1
    51    12    48    1
    52    13    49    1
    53    13    50    1
    54    14    51    1
    55    14    52    1
    56    15    53    1
    57    16    54    1
    58    16    55    1
    59    17    56    1
    60    20    57    1
    61    25    58    1
    62    25    59    1
    63    26    60    1
    64    26    61    1
    65    28    62    1
    66    28    63    1
    67    29    64    1
    68    29    65    1
    69    30    66    1
    70    30    67    1
    71    31    68    1
    72    31    69    1
