@<TRIPOS>MOLECULE
*****
 58 60 0 0 0
SMALL
GASTEIGER

@<TRIPOS>ATOM
      1 C           1.1109    0.2939   -0.4469 C.3     1  UNL1        0.0790
      2 O           2.4535    0.0242   -0.0392 O.3     1  UNL1       -0.4915
      3 C           2.9548    0.4223    1.1816 C.ar    1  UNL1        0.1615
      4 C           4.1667    1.1477    1.0845 C.ar    1  UNL1       -0.0160
      5 C           4.9964    1.3897    2.2029 C.ar    1  UNL1       -0.0548
      6 C           4.5992    0.9838    3.4767 C.ar    1  UNL1       -0.0422
      7 C           5.3982    1.3391    4.7193 C.3     1  UNL1       -0.0119
      8 C           4.7533    0.8611    6.0385 C.3     1  UNL1        0.0159
      9 N           5.4588    1.2367    7.2504 N.am    1  UNL1       -0.3106
     10 C           5.0003    0.8302    8.4979 C.2     1  UNL1        0.2525
     11 O           3.9788    0.1289    8.5897 O.2     1  UNL1       -0.2696
     12 C           5.7591    1.2811    9.6537 C.ar    1  UNL1        0.0979
     13 S           5.9834    0.2655   11.0089 S.2     1  UNL1       -0.0471
     14 C           6.8246    1.4944   11.8684 C.ar    1  UNL1        0.1665
     15 N           7.3247    1.3020   13.1676 N.am    1  UNL1       -0.2482
     16 C           7.2374    0.1073   13.8679 C.2     1  UNL1        0.3096
     17 O           6.7083   -0.9052   13.4170 O.2     1  UNL1       -0.2521
     18 N           7.7759    0.1114   15.1603 N.am    1  UNL1       -0.2692
     19 C           7.7827   -1.0781   15.9669 C.ar    1  UNL1        0.0350
     20 C           7.5596   -1.0268   17.3489 C.ar    1  UNL1       -0.0404
     21 C           7.6431   -2.1951   18.1311 C.ar    1  UNL1       -0.0598
     22 C           7.9207   -3.4282   17.5407 C.ar    1  UNL1       -0.0587
     23 C           8.1533   -3.4983   16.1686 C.ar    1  UNL1       -0.0487
     24 C           8.5478   -4.7889   15.5150 C.3     1  UNL1       -0.0397
     25 C           8.0698   -2.3270   15.3966 C.ar    1  UNL1       -0.0375
     26 N           6.9410    2.6251   11.1937 N.ar    1  UNL1       -0.2290
     27 C           6.3332    2.5126    9.9262 C.ar    1  UNL1        0.0596
     28 C           6.2825    3.6860    9.0112 C.3     1  UNL1       -0.0210
     29 C           3.4057    0.2655    3.5640 C.ar    1  UNL1       -0.0131
     30 C           2.5881   -0.0304    2.4601 C.ar    1  UNL1        0.1617
     31 O           1.5509   -0.8090    2.9107 O.3     1  UNL1       -0.4914
     32 C           0.5665   -1.0718    1.9620 C.3     1  UNL1        0.0790
     33 H           1.0475    0.1955   -1.5333 H       1  UNL1        0.0660
     34 H           0.7435    1.2674   -0.1151 H       1  UNL1        0.0660
     35 H           0.4016   -0.4876   -0.1732 H       1  UNL1        0.0660
     36 H           4.4959    1.5188    0.1142 H       1  UNL1        0.0655
     37 H           5.9581    1.8817    2.0606 H       1  UNL1        0.0621
     38 H           5.4940    2.4323    4.7533 H       1  UNL1        0.0328
     39 H           6.4115    0.9269    4.6356 H       1  UNL1        0.0328
     40 H           4.6668   -0.2326    6.0363 H       1  UNL1        0.0465
     41 H           3.7402    1.2766    6.1259 H       1  UNL1        0.0465
     42 H           6.3574    1.6881    7.1669 H       1  UNL1        0.1490
     43 H           7.7826    2.1089   13.5642 H       1  UNL1        0.1583
     44 H           7.9962    0.9781   15.6297 H       1  UNL1        0.1564
     45 H           7.2516   -0.1075   17.8381 H       1  UNL1        0.0636
     46 H           7.4966   -2.1523   19.2088 H       1  UNL1        0.0618
     47 H           7.9596   -4.3284   18.1519 H       1  UNL1        0.0620
     48 H           8.5867   -5.6108   16.2373 H       1  UNL1        0.0278
     49 H           9.5466   -4.6849   15.0776 H       1  UNL1        0.0278
     50 H           7.8344   -5.0572   14.7302 H       1  UNL1        0.0278
     51 H           8.2730   -2.4016   14.3309 H       1  UNL1        0.0639
     52 H           6.7381    4.5716    9.4544 H       1  UNL1        0.0293
     53 H           5.2428    3.9182    8.7493 H       1  UNL1        0.0293
     54 H           6.8198    3.4665    8.0830 H       1  UNL1        0.0293
     55 H           3.0643   -0.1309    4.5184 H       1  UNL1        0.0658
     56 H          -0.2662   -1.6648    2.3369 H       1  UNL1        0.0660
     57 H           1.0338   -1.6693    1.1736 H       1  UNL1        0.0660
     58 H           0.1286   -0.1071    1.6874 H       1  UNL1        0.0660
@<TRIPOS>BOND
     1     1     2    1
     2     2     3    1
     3     3     4   ar
     4     4     5   ar
     5     5     6   ar
     6     6     7    1
     7     7     8    1
     8     8     9    1
     9     9    10   am
    10    10    11    2
    11    10    12    1
    12    12    13   ar
    13    13    14   ar
    14    14    15    1
    15    15    16   am
    16    16    17    2
    17    16    18   am
    18    18    19    1
    19    19    20   ar
    20    20    21   ar
    21    21    22   ar
    22    22    23   ar
    23    23    24    1
    24    23    25   ar
    25    19    25   ar
    26    14    26   ar
    27    26    27   ar
    28    12    27   ar
    29    27    28    1
    30     6    29   ar
    31    29    30   ar
    32     3    30   ar
    33    30    31    1
    34    31    32    1
    35     1    33    1
    36     1    34    1
    37     1    35    1
    38     4    36    1
    39     5    37    1
    40     7    38    1
    41     7    39    1
    42     8    40    1
    43     8    41    1
    44     9    42    1
    45    15    43    1
    46    18    44    1
    47    20    45    1
    48    21    46    1
    49    22    47    1
    50    24    48    1
    51    24    49    1
    52    24    50    1
    53    25    51    1
    54    28    52    1
    55    28    53    1
    56    28    54    1
    57    29    55    1
    58    32    56    1
    59    32    57    1
    60    32    58    1
