@<TRIPOS>MOLECULE
*****
 44 46 0 0 0
SMALL
GASTEIGER

@<TRIPOS>ATOM
      1 C           1.0943   -0.1021   -0.0362 C.3     1  UNL1       -0.0307
      2 C           2.6220   -0.1074   -0.0408 C.3     1  UNL1        0.0868
      3 O           3.1202   -0.6310    1.2009 O.3     1  UNL1       -0.4922
      4 C           4.4750   -0.5416    1.4214 C.ar    1  UNL1        0.1205
      5 C           5.0648   -1.5522    2.1802 C.ar    1  UNL1       -0.0192
      6 C           6.4646   -1.5214    2.4884 C.ar    1  UNL1       -0.0461
      7 C           7.3304   -0.4723    2.0471 C.ar    1  UNL1        0.0384
      8 C           8.8920   -0.4932    2.3195 C.2     1  UNL1        0.2601
      9 O           9.3382   -1.4386    2.9727 O.2     1  UNL1       -0.2687
     10 N           9.7710    0.5413    1.8040 N.am    1  UNL1       -0.2304
     11 N          11.3820    0.4195    1.8548 N.am    1  UNL1       -0.2339
     12 C          12.3215    1.4064    1.2607 C.2     1  UNL1        0.2335
     13 O          11.8568    2.4159    0.7221 O.2     1  UNL1       -0.2739
     14 C          14.0666    1.0727    1.3597 C.3     1  UNL1        0.0525
     15 C          15.3554    2.2302    1.2206 C.ar    1  UNL1       -0.0136
     16 C          15.2483    3.2080    2.2376 C.ar    1  UNL1        0.0064
     17 N          15.4619    4.2753    1.3722 N.ar    1  UNL1       -0.3603
     18 C          16.7891    4.1314    1.0527 C.ar    1  UNL1        0.0481
     19 C          17.7233    5.1498    1.0688 C.ar    1  UNL1       -0.0194
     20 C          19.0600    4.9664    0.8909 C.ar    1  UNL1        0.0430
     21 CL         20.1179    6.3202    1.0624 Cl      1  UNL1       -0.0835
     22 C          19.4285    3.6567    0.6295 C.ar    1  UNL1       -0.0427
     23 C          18.3963    2.5353    0.5498 C.ar    1  UNL1       -0.0509
     24 C          16.9265    2.7344    0.8112 C.ar    1  UNL1        0.0034
     25 C           6.6900    0.5484    1.3333 C.ar    1  UNL1       -0.0461
     26 C           5.2935    0.5169    1.0289 C.ar    1  UNL1       -0.0192
     27 H           0.7038    0.2315   -1.0052 H       1  UNL1        0.0262
     28 H           0.7104    0.5766    0.7333 H       1  UNL1        0.0262
     29 H           0.6873   -1.0949    0.1793 H       1  UNL1        0.0262
     30 H           2.9479    0.9222   -0.2087 H       1  UNL1        0.0694
     31 H           2.9723   -0.7412   -0.8638 H       1  UNL1        0.0694
     32 H           4.4341   -2.3757    2.5271 H       1  UNL1        0.0654
     33 H           6.8467   -2.3530    3.0835 H       1  UNL1        0.0626
     34 H           9.4272    1.3208    1.2543 H       1  UNL1        0.1731
     35 H          11.6737   -0.3339    2.4737 H       1  UNL1        0.1728
     36 H          14.3119    0.0681    1.0085 H       1  UNL1        0.0408
     37 H          14.0774    1.0425    2.4475 H       1  UNL1        0.0408
     38 H          15.8853    3.1964    3.1382 H       1  UNL1        0.0810
     39 H          14.8502    4.5337    0.6092 H       1  UNL1        0.1653
     40 H          17.3362    6.1323    1.3156 H       1  UNL1        0.0653
     41 H          20.5097    3.4912    0.5150 H       1  UNL1        0.0632
     42 H          18.9154    1.6033    0.2919 H       1  UNL1        0.0625
     43 H           7.2456    1.4120    0.9918 H       1  UNL1        0.0626
     44 H           4.8715    1.3672    0.5008 H       1  UNL1        0.0654
@<TRIPOS>BOND
     1     1     2    1
     2     2     3    1
     3     3     4    1
     4     4     5   ar
     5     5     6   ar
     6     6     7   ar
     7     7     8    1
     8     8     9    2
     9     8    10   am
    10    10    11    1
    11    11    12   am
    12    12    13    2
    13    12    14    1
    14    14    15    1
    15    15    16   ar
    16    16    17   ar
    17    17    18   ar
    18    18    19   ar
    19    19    20   ar
    20    20    21    1
    21    20    22   ar
    22    22    23   ar
    23    23    24   ar
    24    15    24   ar
    25    18    24   ar
    26     7    25   ar
    27    25    26   ar
    28     4    26   ar
    29     1    27    1
    30     1    28    1
    31     1    29    1
    32     2    30    1
    33     2    31    1
    34     5    32    1
    35     6    33    1
    36    10    34    1
    37    11    35    1
    38    14    36    1
    39    14    37    1
    40    16    38    1
    41    17    39    1
    42    19    40    1
    43    22    41    1
    44    23    42    1
    45    25    43    1
    46    26    44    1
