REMARK  6 active torsions:
REMARK  status: ('A' for Active; 'I' for Inactive)
REMARK    1  A    between atoms: C_6  and  C_7 
REMARK       I    between atoms: C_7  and  N_9 
REMARK    2  A    between atoms: N_9  and  C_10 
REMARK    3  A    between atoms: C_15  and  C_16 
REMARK    4  A    between atoms: C_16  and  C_17 
REMARK    5  A    between atoms: N_24  and  C_25 
REMARK    6  A    between atoms: C_29  and  C_30 
ROOT
ATOM      1  C   UNL d   1       1.051   0.018   0.069  0.00  0.00     0.070 C 
ATOM      2  C   UNL d   1       2.545   0.029  -0.189  0.00  0.00     0.036 C 
ATOM      3  C   UNL d   1       3.114   1.227  -0.344  0.00  0.00     0.084 C 
ATOM      4  C   UNL d   1       4.540   1.267  -0.681  0.00  0.00     0.209 C 
ATOM      5  O   UNL d   1       5.052   2.342  -0.908  0.00  0.00    -0.286 OA
ATOM      6  C   UNL d   1       5.321  -0.053  -0.622  0.00  0.00     0.195 C 
ATOM      7  N   UNL d   1       4.695  -1.201  -0.437  0.00  0.00    -0.158 NA
ATOM      8  N   UNL d   1       3.299  -1.163  -0.223  0.00  0.00    -0.238 N 
ENDROOT
BRANCH   6   9
ATOM      9  C   UNL d   1       6.873   0.028  -0.636  0.00  0.00     0.280 C 
ATOM     10  O   UNL d   1       7.417   1.093  -0.929  0.00  0.00    -0.265 OA
ATOM     11  N   UNL d   1       7.596  -1.094  -0.253  0.00  0.00    -0.321 N 
ATOM     12  H   UNL d   1       7.117  -1.984  -0.177  0.00  0.00     0.169 HD
BRANCH  11  13
ATOM     13  C   UNL d   1       8.998  -1.045  -0.011  0.00  0.00     0.041 A 
ATOM     14  C   UNL d   1       9.769  -1.929  -0.774  0.00  0.00     0.030 A 
ATOM     15  C   UNL d   1      11.164  -1.870  -0.751  0.00  0.00     0.002 A 
ATOM     16  C   UNL d   1      11.813  -0.967   0.082  0.00  0.00     0.001 A 
ATOM     17  C   UNL d   1      11.062  -0.140   0.914  0.00  0.00     0.010 A 
ATOM     18  C   UNL d   1       9.645  -0.168   0.901  0.00  0.00    -0.027 A 
BRANCH  18  19
ATOM     19  C   UNL d   1       8.990   0.731   1.945  0.00  0.00     0.079 C 
BRANCH  19  20
ATOM     20  C   UNL d   1       7.516   0.574   2.207  0.00  0.00    -0.054 C 
ATOM     21  C   UNL d   1       6.661   1.666   2.009  0.00  0.00     0.007 C 
ATOM     22  C   UNL d   1       5.287   1.504   2.135  0.00  0.00     0.001 C 
ATOM     23  C   UNL d   1       4.762   0.228   2.337  0.00  0.00     0.000 C 
ATOM     24  C   UNL d   1       5.607  -0.873   2.453  0.00  0.00     0.001 C 
ATOM     25  C   UNL d   1       6.979  -0.690   2.490  0.00  0.00     0.007 C 
ENDBRANCH  19  20
ENDBRANCH  18  19
ENDBRANCH  11  13
ENDBRANCH   6   9
BRANCH   8  26
ATOM     26  C   UNL d   1       2.660  -2.435  -0.068  0.00  0.00     0.059 A 
ATOM     27  C   UNL d   1       2.842  -3.288   1.034  0.00  0.00     0.031 A 
ATOM     28  C   UNL d   1       2.156  -4.513   1.122  0.00  0.00     0.003 A 
ATOM     29  C   UNL d   1       1.266  -4.891   0.119  0.00  0.00     0.016 A 
ATOM     30  C   UNL d   1       1.044  -4.043  -0.970  0.00  0.00     0.050 A 
ATOM     31  C   UNL d   1       1.746  -2.833  -1.048  0.00  0.00     0.047 A 
BRANCH  30  32
ATOM     32  C   UNL d   1       0.085  -4.423  -2.062  0.00  0.00     0.417 C 
ATOM     33  F   UNL d   1       0.460  -5.561  -2.704  0.00  0.00    -0.166 F 
ATOM     34  F   UNL d   1      -1.175  -4.643  -1.597  0.00  0.00    -0.166 F 
ATOM     35  F   UNL d   1      -0.038  -3.469  -3.027  0.00  0.00    -0.166 F 
ENDBRANCH  30  32
ENDBRANCH   8  26
TORSDOF 6
