@<TRIPOS>MOLECULE
*****
 51 52 0 0 0
SMALL
GASTEIGER

@<TRIPOS>ATOM
      1 C           0.9675    0.0740   -0.0538 C.3     1  UNL1       -0.0622
      2 C           2.4862    0.0470   -0.0710 C.3     1  UNL1       -0.0215
      3 C           3.0083   -1.0615   -0.9854 C.3     1  UNL1        0.0893
      4 O           4.4356   -1.0589   -0.9292 O.3     1  UNL1       -0.4920
      5 C           5.0544   -2.0002   -1.7054 C.ar    1  UNL1        0.1205
      6 C           6.1438   -2.6373   -1.1282 C.ar    1  UNL1       -0.0192
      7 C           6.9094   -3.5238   -1.8899 C.ar    1  UNL1       -0.0462
      8 C           6.5626   -3.8553   -3.2234 C.ar    1  UNL1        0.0373
      9 C           7.3608   -4.9433   -3.8742 C.2     1  UNL1        0.2495
     10 O           8.2436   -5.4041   -3.1516 O.2     1  UNL1       -0.2698
     11 N           7.0810   -5.4367   -5.1756 N.am    1  UNL1       -0.2636
     12 C           7.8191   -6.4650   -5.8256 C.2     1  UNL1        0.1411
     13 S           9.1977   -7.1822   -5.1483 S.2     1  UNL1       -0.0182
     14 N           7.3400   -6.8177   -7.1186 N.am    1  UNL1       -0.2966
     15 C           7.9363   -7.8561   -7.9317 C.ar    1  UNL1        0.0327
     16 C           8.2725   -7.6488   -9.2754 C.ar    1  UNL1       -0.0386
     17 C           8.9180   -8.6695  -10.0248 C.ar    1  UNL1       -0.0319
     18 C           9.2772   -9.8872   -9.4190 C.ar    1  UNL1        0.1237
     19 S          10.2522  -11.0822  -10.3057 S.O2    1  UNL1        0.1199
     20 O           9.4506  -11.6474  -11.3718 O.2     1  UNL1       -0.1354
     21 O          11.5457  -10.5186  -10.5912 O.2     1  UNL1       -0.1354
     22 N          10.6328  -12.4033   -9.4100 N.pl3   1  UNL1       -0.1391
     23 C          11.3589  -13.4152   -9.8817 C.cat   1  UNL1        0.3638
     24 N          11.8631  -13.4895  -11.1191 N.pl3   1  UNL1       -0.2903
     25 N          11.6209  -14.4660   -9.0670 N.pl3   1  UNL1       -0.2903
     26 C           8.9039  -10.1154   -8.1011 C.ar    1  UNL1       -0.0319
     27 C           8.2164   -9.1204   -7.3902 C.ar    1  UNL1       -0.0386
     28 C           5.4863   -3.1890   -3.8019 C.ar    1  UNL1       -0.0462
     29 C           4.7420   -2.2602   -3.0441 C.ar    1  UNL1       -0.0192
     30 H           0.6028    0.8716    0.6008 H       1  UNL1        0.0231
     31 H           0.5668   -0.8768    0.3121 H       1  UNL1        0.0231
     32 H           0.5694    0.2496   -1.0584 H       1  UNL1        0.0231
     33 H           2.8696   -0.0930    0.9469 H       1  UNL1        0.0295
     34 H           2.8713    1.0179   -0.4071 H       1  UNL1        0.0295
     35 H           2.6517   -0.8722   -2.0027 H       1  UNL1        0.0696
     36 H           2.6340   -2.0322   -0.6391 H       1  UNL1        0.0696
     37 H           6.3966   -2.4562   -0.0849 H       1  UNL1        0.0654
     38 H           7.7904   -3.9636   -1.4183 H       1  UNL1        0.0626
     39 H           6.3054   -5.0225   -5.6688 H       1  UNL1        0.1568
     40 H           6.7573   -6.1551   -7.6188 H       1  UNL1        0.1538
     41 H           8.1269   -6.6750   -9.7415 H       1  UNL1        0.0637
     42 H           9.1527   -8.4862  -11.0742 H       1  UNL1        0.0638
     43 H          10.3187  -12.4115   -8.4639 H       1  UNL1        0.2907
     44 H          11.7273  -12.7449  -11.7967 H       1  UNL1        0.2546
     45 H          12.4107  -14.2803  -11.4358 H       1  UNL1        0.2546
     46 H          11.2975  -14.5251   -8.1093 H       1  UNL1        0.2546
     47 H          12.1682  -15.2573   -9.3911 H       1  UNL1        0.2546
     48 H           9.1260  -11.0317   -7.5709 H       1  UNL1        0.0638
     49 H           7.9262   -9.3456   -6.3657 H       1  UNL1        0.0637
     50 H           5.2069   -3.3509   -4.8345 H       1  UNL1        0.0626
     51 H           3.9300   -1.7291   -3.5299 H       1  UNL1        0.0654
@<TRIPOS>UNITY_ATOM_ATTR
25 1
charge 1
@<TRIPOS>BOND
     1     1     2    1
     2     2     3    1
     3     3     4    1
     4     4     5    1
     5     5     6   ar
     6     6     7   ar
     7     7     8   ar
     8     8     9    1
     9     9    10    2
    10     9    11   am
    11    11    12    1
    12    12    13    2
    13    12    14    1
    14    14    15    1
    15    15    16   ar
    16    16    17   ar
    17    17    18   ar
    18    18    19    1
    19    19    20    2
    20    19    21    2
    21    19    22    1
    22    22    23    1
    23    23    24    1
    24    23    25    2
    25    18    26   ar
    26    26    27   ar
    27    15    27   ar
    28     8    28   ar
    29    28    29   ar
    30     5    29   ar
    31     1    30    1
    32     1    31    1
    33     1    32    1
    34     2    33    1
    35     2    34    1
    36     3    35    1
    37     3    36    1
    38     6    37    1
    39     7    38    1
    40    11    39    1
    41    14    40    1
    42    16    41    1
    43    17    42    1
    44    22    43    1
    45    24    44    1
    46    24    45    1
    47    25    46    1
    48    25    47    1
    49    26    48    1
    50    27    49    1
    51    28    50    1
    52    29    51    1
