@<TRIPOS>MOLECULE
*****
 56 59 0 0 0
SMALL
GASTEIGER

@<TRIPOS>ATOM
      1 O           0.9334   -0.0704    0.1201 O.2     1  UNL1       -0.2758
      2 C           2.1457   -0.0052    0.0506 C.2     1  UNL1        0.2131
      3 C           2.9101    0.7833   -0.9846 C.3     1  UNL1        0.0262
      4 C           1.9748    1.4812   -1.9474 C.3     1  UNL1       -0.0187
      5 C           2.7132    2.3465   -2.9668 C.3     1  UNL1        0.0700
      6 N           4.1763    2.1253   -3.0709 N.3     1  UNL1       -0.2422
      7 N           4.8703    3.3960   -3.3849 N.3     1  UNL1       -0.2341
      8 C           3.8963    4.5055   -3.5262 C.3     1  UNL1        0.1456
      9 C           3.4422    4.6319   -5.0024 C.2     1  UNL1        0.2457
     10 O           2.3284    4.2716   -5.3893 O.2     1  UNL1       -0.2728
     11 N           4.4170    5.1117   -5.8723 N.am    1  UNL1       -0.2835
     12 C           4.1322    5.3454   -7.2336 C.ar    1  UNL1        0.0335
     13 C           5.0798    5.0399   -8.2108 C.ar    1  UNL1       -0.0405
     14 C           4.8038    5.3197   -9.5541 C.ar    1  UNL1       -0.0600
     15 C           3.5773    5.8762   -9.9217 C.ar    1  UNL1       -0.0616
     16 C           2.6350    6.1852   -8.9471 C.ar    1  UNL1       -0.0600
     17 C           2.9134    5.9200   -7.6097 C.ar    1  UNL1       -0.0405
     18 S           2.4997    4.0727   -2.4930 S.3     1  UNL1       -0.1116
     19 N           2.9209   -0.6913    0.9447 N.am    1  UNL1       -0.3150
     20 C           4.3624   -0.6960    0.9501 C.3     1  UNL1        0.0155
     21 C           4.8884   -1.5641    2.0569 C.3     1  UNL1       -0.0092
     22 C           6.3701   -1.6872    2.1546 C.2     1  UNL1        0.0092
     23 C           6.9008   -2.3612    3.1718 C.ar    1  UNL1        0.0523
     24 C           6.2739   -2.9968    4.2731 C.ar    1  UNL1       -0.0298
     25 C           7.0448   -3.3717    5.2968 C.ar    1  UNL1        0.0419
     26 CL          6.2995   -3.8318    6.7748 Cl      1  UNL1       -0.0835
     27 C           8.4979   -3.3189    5.1969 C.ar    1  UNL1       -0.0372
     28 C           9.1632   -2.8170    4.1303 C.ar    1  UNL1        0.0112
     29 C           8.3525   -2.2549    3.0278 C.ar    1  UNL1        0.2086
     30 N           8.6720   -1.6485    1.9462 N.2     1  UNL1       -0.2369
     31 C           7.4436   -1.1084    1.2784 C.3     1  UNL1        0.1661
     32 H           3.5500    0.0879   -1.5406 H       1  UNL1        0.0359
     33 H           3.5373    1.5209   -0.4705 H       1  UNL1        0.0359
     34 H           1.2485    2.0708   -1.3711 H       1  UNL1        0.0293
     35 H           1.3765    0.7257   -2.4725 H       1  UNL1        0.0293
     36 H           2.2698    2.1658   -3.9544 H       1  UNL1        0.0589
     37 H           4.3600    1.3921   -3.7609 H       1  UNL1        0.1418
     38 H           5.4583    3.3293   -4.2154 H       1  UNL1        0.1424
     39 H           4.3157    5.4547   -3.1844 H       1  UNL1        0.0686
     40 H           5.3787    5.1947   -5.5707 H       1  UNL1        0.1549
     41 H           6.0022    4.5241   -7.9612 H       1  UNL1        0.0636
     42 H           5.5412    5.1010  -10.3223 H       1  UNL1        0.0618
     43 H           3.3507    6.0658  -10.9677 H       1  UNL1        0.0618
     44 H           1.6859    6.6401   -9.2170 H       1  UNL1        0.0618
     45 H           2.1725    6.1930   -6.8619 H       1  UNL1        0.0636
     46 H           2.3740   -1.2063    1.6292 H       1  UNL1        0.1487
     47 H           4.7136    0.3332    1.0757 H       1  UNL1        0.0465
     48 H           4.7106   -1.0736   -0.0159 H       1  UNL1        0.0465
     49 H           4.4714   -2.5748    1.9445 H       1  UNL1        0.0327
     50 H           4.5003   -1.1758    3.0107 H       1  UNL1        0.0327
     51 H           5.1919   -3.0699    4.3027 H       1  UNL1        0.0640
     52 H           9.0381   -3.7451    6.0400 H       1  UNL1        0.0634
     53 H          10.2464   -2.7993    4.1107 H       1  UNL1        0.0684
     54 H           9.6360   -1.5638    1.6238 H       1  UNL1        0.4459
     55 H           7.4001   -1.4588    0.2445 H       1  UNL1        0.1077
     56 H           7.4854   -0.0137    1.3243 H       1  UNL1        0.1077
@<TRIPOS>UNITY_ATOM_ATTR
30 1
charge 1
@<TRIPOS>BOND
     1     1     2    2
     2     2     3    1
     3     3     4    1
     4     4     5    1
     5     5     6    1
     6     6     7    1
     7     7     8    1
     8     8     9    1
     9     9    10    2
    10     9    11   am
    11    11    12    1
    12    12    13   ar
    13    13    14   ar
    14    14    15   ar
    15    15    16   ar
    16    16    17   ar
    17    12    17   ar
    18     8    18    1
    19     5    18    1
    20     2    19   am
    21    19    20    1
    22    20    21    1
    23    21    22    1
    24    22    23    2
    25    23    24   ar
    26    24    25   ar
    27    25    26    1
    28    25    27   ar
    29    27    28   ar
    30    28    29   ar
    31    23    29   ar
    32    29    30    2
    33    30    31    1
    34    22    31    1
    35     3    32    1
    36     3    33    1
    37     4    34    1
    38     4    35    1
    39     5    36    1
    40     6    37    1
    41     7    38    1
    42     8    39    1
    43    11    40    1
    44    13    41    1
    45    14    42    1
    46    15    43    1
    47    16    44    1
    48    17    45    1
    49    19    46    1
    50    20    47    1
    51    20    48    1
    52    21    49    1
    53    21    50    1
    54    24    51    1
    55    27    52    1
    56    28    53    1
    57    30    54    1
    58    31    55    1
    59    31    56    1
