REMARK  7 active torsions:
REMARK  status: ('A' for Active; 'I' for Inactive)
REMARK    1  A    between atoms: C_2  and  N_4 
REMARK       I    between atoms: N_4  and  C_5 
REMARK       I    between atoms: C_5  and  N_7 
REMARK    2  A    between atoms: N_7  and  N_8 
REMARK       I    between atoms: N_8  and  C_9 
REMARK    3  A    between atoms: C_9  and  C_11 
REMARK    4  A    between atoms: C_11  and  N_13 
REMARK       I    between atoms: N_13  and  C_14 
REMARK    5  A    between atoms: C_14  and  C_16 
REMARK    6  A    between atoms: C_16  and  O_17 
REMARK    7  A    between atoms: O_17  and  C_18 
ROOT
ATOM      1  C   UNL d   1       8.344   1.623  -4.597  0.00  0.00     0.174 C 
ATOM      2  C   UNL d   1       8.966   0.240  -4.404  0.00  0.00     0.042 C 
ENDROOT
BRANCH   1   3
ATOM      3  C   UNL d   1       6.788   1.560  -4.332  0.00  0.00     0.258 C 
ATOM      4  N   UNL d   1       6.370   1.122  -3.073  0.00  0.00    -0.264 N 
ATOM      5  H   UNL d   1       7.002   0.840  -2.322  0.00  0.00     0.190 HD
ATOM      6  O   UNL d   1       5.978   1.897  -5.202  0.00  0.00    -0.269 OA
BRANCH   4   7
ATOM      7  N   UNL d   1       4.966   0.994  -2.762  0.00  0.00    -0.249 N 
ATOM      8  C   UNL d   1       4.590   0.568  -1.495  0.00  0.00     0.335 C 
ATOM      9  N   UNL d   1       3.226   0.429  -1.294  0.00  0.00    -0.338 N 
ATOM     10  O   UNL d   1       5.432   0.307  -0.632  0.00  0.00    -0.246 OA
ATOM     11  H   UNL d   1       2.587   0.722  -2.019  0.00  0.00     0.164 HD
ATOM     12  H   UNL d   1       4.312   1.257  -3.492  0.00  0.00     0.192 HD
BRANCH   9  13
ATOM     13  C   UNL d   1       2.655  -0.038  -0.012  0.00  0.00     0.078 C 
ATOM     14  C   UNL d   1       1.117  -0.004   0.013  0.00  0.00     0.032 C 
ATOM     15  C   UNL d   1       3.097  -1.468   0.311  0.00  0.00     0.032 C 
ENDBRANCH   9  13
ENDBRANCH   4   7
ENDBRANCH   1   3
BRANCH   1  16
ATOM     16  N   UNL d   1       8.675   2.134  -5.959  0.00  0.00    -0.346 N 
ATOM     17  C   UNL d   1       9.988   2.337  -6.378  0.00  0.00     0.242 C 
ATOM     18  O   UNL d   1      10.937   2.144  -5.618  0.00  0.00    -0.271 OA
ATOM     19  H   UNL d   1       7.893   2.361  -6.564  0.00  0.00     0.163 HD
BRANCH  17  20
ATOM     20  C   UNL d   1      10.195   2.814  -7.836  0.00  0.00     0.278 C 
BRANCH  20  21
ATOM     21  O   UNL d   1      11.595   2.803  -8.156  0.00  0.00    -0.342 OA
BRANCH  21  22
ATOM     22  C   UNL d   1      11.967   3.341  -9.358  0.00  0.00     0.069 A 
ATOM     23  C   UNL d   1      13.032   2.720 -10.023  0.00  0.00     0.037 A 
ATOM     24  C   UNL d   1      13.536   3.254 -11.215  0.00  0.00     0.003 A 
ATOM     25  C   UNL d   1      12.946   4.385 -11.773  0.00  0.00     0.000 A 
ATOM     26  C   UNL d   1      11.900   5.018 -11.105  0.00  0.00     0.003 A 
ATOM     27  C   UNL d   1      11.426   4.510  -9.891  0.00  0.00     0.037 A 
ENDBRANCH  21  22
ENDBRANCH  20  21
ENDBRANCH  17  20
ENDBRANCH   1  16
TORSDOF 7
