@<TRIPOS>MOLECULE
*****
 53 53 0 0 0
SMALL
GASTEIGER

@<TRIPOS>ATOM
      1 C           0.9549    0.0817   -0.4945 C.3     1  UNL1        0.0788
      2 O           2.3519    0.0650   -0.1882 O.3     1  UNL1       -0.4944
      3 C           2.9797    1.2447    0.1332 C.ar    1  UNL1        0.1309
      4 C           4.1807    1.4904   -0.5797 C.ar    1  UNL1        0.0260
      5 C           4.9913    2.6116   -0.3155 C.ar    1  UNL1        0.1650
      6 O           6.1946    2.6478   -0.9925 O.3     1  UNL1       -0.4913
      7 C           7.1419    3.6557   -0.6142 C.3     1  UNL1        0.0790
      8 C           4.5229    3.5660    0.5957 C.ar    1  UNL1        0.1623
      9 O           5.2225    4.7368    0.6779 O.3     1  UNL1       -0.4914
     10 C           4.7889    5.7767    1.5296 C.3     1  UNL1        0.0790
     11 C           3.3674    3.2856    1.3530 C.ar    1  UNL1       -0.0057
     12 C           2.6074    2.0976    1.1895 C.ar    1  UNL1        0.0205
     13 C           1.4183    1.9040    2.0808 C.2     1  UNL1       -0.0460
     14 C           0.8121    0.7255    2.3554 C.2     1  UNL1        0.0023
     15 C          -0.6156    0.6539    2.8245 C.2     1  UNL1        0.2530
     16 O          -1.1265    1.5720    3.4783 O.2     1  UNL1       -0.2693
     17 N          -1.3337   -0.4672    2.4180 N.am    1  UNL1       -0.2316
     18 N          -2.6536   -0.7125    2.9550 N.am    1  UNL1       -0.2456
     19 C          -3.3506   -1.8921    2.6847 C.2     1  UNL1        0.1468
     20 S          -2.7973   -3.0221    1.5673 S.2     1  UNL1       -0.0174
     21 N          -4.5421   -2.0336    3.4046 N.am    1  UNL1       -0.3254
     22 C          -5.4267   -3.2088    3.2929 C.3     1  UNL1        0.0109
     23 C          -6.6682   -3.2139    4.1990 C.3     1  UNL1       -0.0351
     24 C          -7.5372   -4.4853    4.0016 C.3     1  UNL1       -0.0453
     25 C          -6.7602   -5.7678    4.3133 C.3     1  UNL1       -0.0626
     26 C          -8.7845   -4.4330    4.8892 C.3     1  UNL1       -0.0626
     27 H           0.6084   -0.9571   -0.4186 H       1  UNL1        0.0660
     28 H           0.7629    0.4769   -1.4887 H       1  UNL1        0.0660
     29 H           0.3111    0.6516    0.1709 H       1  UNL1        0.0660
     30 H           4.4928    0.7883   -1.3529 H       1  UNL1        0.0692
     31 H           8.1011    3.4660   -1.1063 H       1  UNL1        0.0660
     32 H           7.3404    3.6554    0.4663 H       1  UNL1        0.0660
     33 H           6.8098    4.6385   -0.9670 H       1  UNL1        0.0660
     34 H           5.4833    6.6151    1.4024 H       1  UNL1        0.0660
     35 H           4.8380    5.4590    2.5732 H       1  UNL1        0.0660
     36 H           3.7916    6.1241    1.2489 H       1  UNL1        0.0660
     37 H           3.0551    4.0027    2.1054 H       1  UNL1        0.0662
     38 H           0.9693    2.8319    2.4322 H       1  UNL1        0.0626
     39 H           1.2600   -0.2124    2.0442 H       1  UNL1        0.0670
     40 H          -1.0044   -1.1534    1.7375 H       1  UNL1        0.1731
     41 H          -2.9567   -0.0346    3.6503 H       1  UNL1        0.1718
     42 H          -4.7887   -1.3388    4.0972 H       1  UNL1        0.1478
     43 H          -4.8092   -4.0817    3.5220 H       1  UNL1        0.0462
     44 H          -5.7531   -3.2852    2.2494 H       1  UNL1        0.0462
     45 H          -7.2802   -2.3276    3.9886 H       1  UNL1        0.0283
     46 H          -6.3641   -3.1436    5.2504 H       1  UNL1        0.0283
     47 H          -7.8703   -4.5299    2.9558 H       1  UNL1        0.0296
     48 H          -6.4003   -5.7603    5.3475 H       1  UNL1        0.0232
     49 H          -5.8984   -5.8904    3.6521 H       1  UNL1        0.0232
     50 H          -7.3890   -6.6541    4.1769 H       1  UNL1        0.0232
     51 H          -8.5108   -4.3969    5.9491 H       1  UNL1        0.0232
     52 H          -9.4113   -5.3198    4.7365 H       1  UNL1        0.0232
     53 H          -9.3935   -3.5523    4.6629 H       1  UNL1        0.0232
@<TRIPOS>BOND
     1     1     2    1
     2     2     3    1
     3     3     4   ar
     4     4     5   ar
     5     5     6    1
     6     6     7    1
     7     5     8   ar
     8     8     9    1
     9     9    10    1
    10     8    11   ar
    11    11    12   ar
    12     3    12   ar
    13    12    13    1
    14    13    14    2
    15    14    15    1
    16    15    16    2
    17    15    17   am
    18    17    18    1
    19    18    19    1
    20    19    20    2
    21    19    21    1
    22    21    22    1
    23    22    23    1
    24    23    24    1
    25    24    25    1
    26    24    26    1
    27     1    27    1
    28     1    28    1
    29     1    29    1
    30     4    30    1
    31     7    31    1
    32     7    32    1
    33     7    33    1
    34    10    34    1
    35    10    35    1
    36    10    36    1
    37    11    37    1
    38    13    38    1
    39    14    39    1
    40    17    40    1
    41    18    41    1
    42    21    42    1
    43    22    43    1
    44    22    44    1
    45    23    45    1
    46    23    46    1
    47    24    47    1
    48    25    48    1
    49    25    49    1
    50    25    50    1
    51    26    51    1
    52    26    52    1
    53    26    53    1
