@<TRIPOS>MOLECULE
*****
 58 62 0 0 0
SMALL
GASTEIGER

@<TRIPOS>ATOM
      1 C           6.5234   -6.9632  -19.2497 C.3     1  UNL1        0.0820
      2 O           7.3529   -6.0923  -18.4512 O.3     1  UNL1       -0.4646
      3 C           7.5633   -6.5137  -17.1758 C.2     1  UNL1        0.3375
      4 O           7.1617   -7.5719  -16.7130 O.2     1  UNL1       -0.2452
      5 C           8.4192   -5.6045  -16.3614 C.2     1  UNL1        0.0670
      6 C           8.4792   -4.2371  -16.3197 C.2     1  UNL1       -0.0441
      7 C           7.6023   -3.2408  -17.0877 C.3     1  UNL1       -0.0298
      8 C           8.2665   -1.8611  -17.2007 C.3     1  UNL1       -0.0493
      9 C           8.5606   -1.3123  -15.8157 C.3     1  UNL1       -0.0515
     10 C           9.5516   -2.1831  -15.0963 C.3     1  UNL1       -0.0373
     11 C           9.4419   -3.7233  -15.2295 C.3     1  UNL1        0.0291
     12 S          10.6758   -5.0999  -15.2700 S.3     1  UNL1       -0.1257
     13 C           9.4515   -6.3431  -15.5104 C.3     1  UNL1        0.1034
     14 N           8.9514   -6.9688  -14.2530 N.am    1  UNL1       -0.2831
     15 C           9.4647   -6.7577  -12.9650 C.2     1  UNL1        0.3049
     16 O          10.2797   -5.8872  -12.6857 O.2     1  UNL1       -0.2525
     17 N           8.9985   -7.5949  -11.9418 N.am    1  UNL1       -0.2695
     18 C           9.4300   -7.3961  -10.5470 C.ar    1  UNL1        0.0348
     19 C           9.7045   -8.4301   -9.6628 C.ar    1  UNL1       -0.0400
     20 C          10.0872   -8.1673   -8.2661 C.ar    1  UNL1       -0.0502
     21 C          10.4194   -6.8609   -7.6774 C.ar    1  UNL1        0.0240
     22 C          10.9709   -6.5939   -6.0376 C.3     1  UNL1        0.1985
     23 C          12.4851   -6.5331   -5.0938 C.2     1  UNL1        0.0013
     24 C          13.2965   -7.5995   -5.2709 C.ar    1  UNL1        0.0497
     25 C          14.5034   -8.4078   -5.0654 C.ar    1  UNL1       -0.0300
     26 C          14.9030   -9.0505   -6.2002 C.ar    1  UNL1        0.0419
     27 CL         16.4647   -9.7352   -6.4422 Cl      1  UNL1       -0.0835
     28 C          14.0773   -9.0144   -7.3885 C.ar    1  UNL1       -0.0372
     29 C          12.7971   -8.6085   -7.3169 C.ar    1  UNL1        0.0112
     30 C          12.2686   -8.3013   -5.9924 C.ar    1  UNL1        0.2089
     31 N          11.0375   -8.0106   -5.6410 N.2     1  UNL1       -0.2304
     32 C           9.9986   -5.8580   -8.5686 C.ar    1  UNL1       -0.0502
     33 C           9.5353   -6.1260   -9.9480 C.ar    1  UNL1       -0.0400
     34 H           6.4394   -6.5453  -20.2597 H       1  UNL1        0.0661
     35 H           5.5145   -7.0233  -18.8269 H       1  UNL1        0.0661
     36 H           6.9562   -7.9670  -19.3387 H       1  UNL1        0.0661
     37 H           6.6400   -3.1146  -16.5698 H       1  UNL1        0.0311
     38 H           7.3488   -3.5821  -18.1005 H       1  UNL1        0.0311
     39 H           7.6322   -1.1375  -17.7280 H       1  UNL1        0.0268
     40 H           9.1931   -1.9484  -17.7840 H       1  UNL1        0.0268
     41 H           7.6531   -1.2162  -15.2153 H       1  UNL1        0.0266
     42 H           9.0156   -0.3155  -15.8919 H       1  UNL1        0.0266
     43 H           9.5783   -1.9289  -14.0334 H       1  UNL1        0.0279
     44 H          10.5184   -1.8496  -15.5339 H       1  UNL1        0.0279
     45 H          10.5030   -3.5132  -15.2341 H       1  UNL1        0.0458
     46 H           9.9922   -7.0938  -16.0961 H       1  UNL1        0.0668
     47 H           8.3794   -7.7779  -14.4448 H       1  UNL1        0.1516
     48 H           8.5994   -8.4836  -12.2180 H       1  UNL1        0.1564
     49 H           9.7028   -9.4611  -10.0290 H       1  UNL1        0.0636
     50 H          10.1627   -9.0917   -7.6837 H       1  UNL1        0.0623
     51 H          10.1599   -6.0909   -5.4956 H       1  UNL1        0.1166
     52 H          12.5735   -6.0839   -4.0811 H       1  UNL1        0.0649
     53 H          15.1390   -8.4815   -4.1822 H       1  UNL1        0.0640
     54 H          14.4541   -9.2374   -8.3744 H       1  UNL1        0.0634
     55 H          12.3286   -8.3042   -8.2282 H       1  UNL1        0.0684
     56 H          10.7973   -7.8911   -4.6490 H       1  UNL1        0.4466
     57 H           9.9079   -4.8221   -8.2554 H       1  UNL1        0.0623
     58 H           9.2069   -5.2773  -10.5530 H       1  UNL1        0.0636
@<TRIPOS>UNITY_ATOM_ATTR
31 1
charge 1
@<TRIPOS>BOND
     1     1     2    1
     2     2     3    1
     3     3     4    2
     4     3     5    1
     5     5     6    2
     6     6     7    1
     7     7     8    1
     8     8     9    1
     9     9    10    1
    10    10    11    1
    11     6    11    1
    12    11    12    1
    13    12    13    1
    14     5    13    1
    15    14    15   am
    16    15    16    2
    17    15    17   am
    18    17    18    1
    19    18    19   ar
    20    19    20   ar
    21    20    21   ar
    22    22    23    1
    23    23    24    2
    24    24    25   ar
    25    25    26   ar
    26    26    27    1
    27    26    28   ar
    28    28    29   ar
    29    29    30   ar
    30    24    30   ar
    31    30    31    2
    32    22    31    1
    33    21    32   ar
    34    32    33   ar
    35    18    33   ar
    36    13    14    1
    37    22    21    1
    38     1    34    1
    39     1    35    1
    40     1    36    1
    41     7    37    1
    42     7    38    1
    43     8    39    1
    44     8    40    1
    45     9    41    1
    46     9    42    1
    47    10    43    1
    48    10    44    1
    49    11    45    1
    50    13    46    1
    51    14    47    1
    52    17    48    1
    53    19    49    1
    54    20    50    1
    55    22    51    1
    56    23    52    1
    57    25    53    1
    58    28    54    1
    59    29    55    1
    60    31    56    1
    61    32    57    1
    62    33    58    1
