@<TRIPOS>MOLECULE
*****
 33 34 0 0 0
SMALL
GASTEIGER

@<TRIPOS>ATOM
      1 C           2.5134    1.1067    0.0079 C.3     1  UNL1       -0.0397
      2 C           1.2139    0.3605    0.0003 C.ar    1  UNL1       -0.0501
      3 C           1.2386   -1.0249    0.0060 C.ar    1  UNL1       -0.0571
      4 C           0.0523   -1.7457    0.0043 C.ar    1  UNL1       -0.0400
      5 C          -1.2046   -1.1300   -0.0002 C.ar    1  UNL1        0.0366
      6 N          -2.3821   -1.9246   -0.0080 N.am    1  UNL1       -0.2812
      7 C          -2.4281   -3.3093   -0.0035 C.2     1  UNL1        0.2518
      8 O          -1.4791   -4.0931    0.0397 O.2     1  UNL1       -0.2697
      9 C          -3.7593   -3.9446   -0.0149 C.ar    1  UNL1        0.0783
     10 C          -3.9287   -5.0713    0.8066 C.ar    1  UNL1       -0.0461
     11 C          -5.1154   -5.7959    0.7712 C.ar    1  UNL1       -0.0608
     12 C          -6.1266   -5.4125   -0.1074 C.ar    1  UNL1       -0.0583
     13 C          -5.9602   -4.2971   -0.9384 C.ar    1  UNL1       -0.0194
     14 C          -4.7806   -3.5522   -0.8805 C.ar    1  UNL1        0.1290
     15 O          -4.6133   -2.4539   -1.6762 O.3     1  UNL1       -0.5060
     16 C          -1.2524    0.2805   -0.0038 C.ar    1  UNL1       -0.0290
     17 C          -2.5324    1.0768   -0.0049 C.3     1  UNL1       -0.0379
     18 C          -0.0311    1.0089   -0.0069 C.ar    1  UNL1       -0.0542
     19 H           3.3636    0.4122    0.0028 H       1  UNL1        0.0278
     20 H           2.5973    1.7174    0.9108 H       1  UNL1        0.0278
     21 H           2.6012    1.7355   -0.8820 H       1  UNL1        0.0278
     22 H           2.1742   -1.5776    0.0104 H       1  UNL1        0.0621
     23 H           0.1688   -2.8205    0.0001 H       1  UNL1        0.0636
     24 H          -3.2771   -1.4569   -0.0697 H       1  UNL1        0.1551
     25 H          -3.1188   -5.3911    1.4614 H       1  UNL1        0.0626
     26 H          -5.2376   -6.6652    1.4129 H       1  UNL1        0.0618
     27 H          -7.0458   -5.9926   -0.1471 H       1  UNL1        0.0619
     28 H          -6.7579   -4.0368   -1.6274 H       1  UNL1        0.0654
     29 H          -5.3683   -2.3709   -2.2822 H       1  UNL1        0.2922
     30 H          -3.4296    0.4567    0.0266 H       1  UNL1        0.0278
     31 H          -2.5986    1.6881   -0.9114 H       1  UNL1        0.0278
     32 H          -2.5746    1.7322    0.8723 H       1  UNL1        0.0278
     33 H          -0.0517    2.0986   -0.0143 H       1  UNL1        0.0623
@<TRIPOS>BOND
     1     1     2    1
     2     2     3   ar
     3     3     4   ar
     4     4     5   ar
     5     5     6    1
     6     6     7   am
     7     7     8    2
     8     7     9    1
     9     9    10   ar
    10    10    11   ar
    11    11    12   ar
    12    12    13   ar
    13    13    14   ar
    14     9    14   ar
    15    14    15    1
    16     5    16   ar
    17    16    17    1
    18    16    18   ar
    19     2    18   ar
    20     1    19    1
    21     1    20    1
    22     1    21    1
    23     3    22    1
    24     4    23    1
    25     6    24    1
    26    10    25    1
    27    11    26    1
    28    12    27    1
    29    13    28    1
    30    15    29    1
    31    17    30    1
    32    17    31    1
    33    17    32    1
    34    18    33    1
