@<TRIPOS>MOLECULE
*****
 57 60 0 0 0
SMALL
GASTEIGER

@<TRIPOS>ATOM
      1 C           2.2194   -2.6574    0.5594 C.3     1  UNL1        0.0379
      2 O           2.2820   -1.6873    1.6108 O.3     1  UNL1       -0.3658
      3 C           2.9432   -0.4596    1.2797 C.3     1  UNL1        0.1605
      4 C           2.6512    0.0740   -0.1809 C.2     1  UNL1        0.2507
      5 O           2.7681   -0.6861   -1.1603 O.2     1  UNL1       -0.2722
      6 N           2.3065    1.4131   -0.3718 N.am    1  UNL1       -0.2828
      7 C           1.8928    1.8321   -1.6823 C.ar    1  UNL1        0.0386
      8 C           2.6172    2.8562   -2.3581 C.ar    1  UNL1       -0.0109
      9 C           2.1482    3.1817   -3.6645 C.ar    1  UNL1        0.1149
     10 N           2.6383    4.0270   -4.5973 N.ar    1  UNL1       -0.1470
     11 N           1.6842    3.9962   -5.5692 N.ar    1  UNL1       -0.1492
     12 C           1.7574    4.7651   -6.7600 C.ar    1  UNL1        0.0862
     13 C           0.6304    5.4634   -7.2172 C.ar    1  UNL1       -0.0343
     14 C           0.6428    6.0775   -8.4779 C.ar    1  UNL1       -0.0563
     15 C           1.7919    6.0452   -9.2841 C.ar    1  UNL1       -0.0447
     16 C           1.7507    6.6279  -10.6967 C.3     1  UNL1       -0.0215
     17 C           1.3743    8.1132  -10.6946 C.3     1  UNL1       -0.0587
     18 C           3.0645    6.4472  -11.4689 C.3     1  UNL1       -0.0587
     19 C           2.9376    5.4155   -8.7622 C.ar    1  UNL1       -0.0563
     20 C           2.9196    4.7550   -7.5273 C.ar    1  UNL1       -0.0343
     21 N           0.6556    3.1413   -5.3870 N.ar    1  UNL1       -0.1471
     22 C           0.9568    2.5519   -4.2237 C.ar    1  UNL1        0.1135
     23 C           0.2651    1.5287   -3.5604 C.ar    1  UNL1       -0.0277
     24 C           0.7453    1.1888   -2.2729 C.ar    1  UNL1       -0.0271
     25 C          -0.0629    0.1548   -1.5168 C.3     1  UNL1       -0.0379
     26 C           4.4687   -0.4982    1.4764 C.ar    1  UNL1        0.0083
     27 C           5.1246    0.7549    1.4192 C.ar    1  UNL1       -0.0542
     28 C           6.4972    0.8466    1.1893 C.ar    1  UNL1       -0.0613
     29 C           7.2597   -0.3069    1.0910 C.ar    1  UNL1       -0.0604
     30 C           6.6634   -1.5396    1.3130 C.ar    1  UNL1       -0.0430
     31 C           5.2865   -1.6446    1.5317 C.ar    1  UNL1        0.0471
     32 CL          4.7948   -3.2462    1.9628 Cl      1  UNL1       -0.0832
     33 H           2.0499   -3.6439    1.0005 H       1  UNL1        0.0524
     34 H           3.1469   -2.7081   -0.0219 H       1  UNL1        0.0524
     35 H           1.3863   -2.4462   -0.1105 H       1  UNL1        0.0524
     36 H           2.5421    0.2678    2.0023 H       1  UNL1        0.0744
     37 H           2.7688    2.0957    0.2178 H       1  UNL1        0.1549
     38 H           3.5009    3.3336   -1.9557 H       1  UNL1        0.0659
     39 H          -0.2535    5.5613   -6.5906 H       1  UNL1        0.0639
     40 H          -0.2614    6.5729   -8.8289 H       1  UNL1        0.0621
     41 H           0.9760    6.0799  -11.2538 H       1  UNL1        0.0343
     42 H           2.1021    8.6988  -10.1235 H       1  UNL1        0.0235
     43 H           0.3869    8.2839  -10.2535 H       1  UNL1        0.0235
     44 H           1.3426    8.5100  -11.7159 H       1  UNL1        0.0235
     45 H           3.8848    6.9746  -10.9679 H       1  UNL1        0.0235
     46 H           2.9929    6.8379  -12.4883 H       1  UNL1        0.0235
     47 H           3.3324    5.3867  -11.5429 H       1  UNL1        0.0235
     48 H           3.8704    5.3986   -9.3196 H       1  UNL1        0.0621
     49 H           3.7903    4.1781   -7.2260 H       1  UNL1        0.0639
     50 H          -0.5995    1.0532   -4.0040 H       1  UNL1        0.0643
     51 H          -0.9760   -0.1094   -2.0572 H       1  UNL1        0.0278
     52 H          -0.3555    0.5469   -0.5380 H       1  UNL1        0.0278
     53 H           0.4797   -0.7819   -1.3930 H       1  UNL1        0.0278
     54 H           4.5634    1.6819    1.5170 H       1  UNL1        0.0622
     55 H           6.9695    1.8175    1.0677 H       1  UNL1        0.0618
     56 H           8.3238   -0.2562    0.8852 H       1  UNL1        0.0618
     57 H           7.2785   -2.4365    1.3209 H       1  UNL1        0.0632
@<TRIPOS>BOND
     1     1     2    1
     2     4     5    2
     3     4     6   am
     4     6     7    1
     5     7     8   ar
     6     8     9   ar
     7     9    10   ar
     8    10    11   ar
     9    11    12    1
    10    12    13   ar
    11    13    14   ar
    12    14    15   ar
    13    15    16    1
    14    16    17    1
    15    16    18    1
    16    15    19   ar
    17    19    20   ar
    18    12    20   ar
    19    11    21   ar
    20    21    22   ar
    21     9    22   ar
    22    22    23   ar
    23    23    24   ar
    24     7    24   ar
    25    24    25    1
    26     3    26    1
    27    26    27   ar
    28    27    28   ar
    29    28    29   ar
    30    29    30   ar
    31    30    31   ar
    32    26    31   ar
    33    31    32    1
    34     3     4    1
    35     3     2    1
    36     1    33    1
    37     1    34    1
    38     1    35    1
    39     3    36    1
    40     6    37    1
    41     8    38    1
    42    13    39    1
    43    14    40    1
    44    16    41    1
    45    17    42    1
    46    17    43    1
    47    17    44    1
    48    18    45    1
    49    18    46    1
    50    18    47    1
    51    19    48    1
    52    20    49    1
    53    23    50    1
    54    25    51    1
    55    25    52    1
    56    25    53    1
    57    27    54    1
    58    28    55    1
    59    29    56    1
    60    30    57    1
