@<TRIPOS>MOLECULE
*****
 54 55 0 0 0
SMALL
GASTEIGER

@<TRIPOS>ATOM
      1 C           0.3536   -2.3733   -0.0067 C.3     1  UNL1       -0.0385
      2 C           1.0372   -1.0367    0.0012 C.ar    1  UNL1       -0.0330
      3 C           2.4466   -1.0054   -0.0011 C.ar    1  UNL1       -0.0160
      4 C           3.1482    0.1951   -0.0005 C.ar    1  UNL1        0.1215
      5 O           4.5147    0.2892    0.0006 O.3     1  UNL1       -0.4828
      6 C           5.3357   -0.9117    0.0167 C.3     1  UNL1        0.1655
      7 C           6.8359   -0.4892    0.0288 C.2     1  UNL1        0.2561
      8 O           7.0893    0.7169    0.0287 O.2     1  UNL1       -0.2717
      9 N           7.8539   -1.4857    0.0395 N.am    1  UNL1       -0.2639
     10 C           9.2588   -1.2441    0.0497 C.2     1  UNL1        0.1531
     11 S           9.9795    0.2845    0.0511 S.2     1  UNL1       -0.0170
     12 N          10.0913   -2.3843    0.0590 N.am    1  UNL1       -0.2455
     13 N          11.5499   -2.1982    0.0697 N.am    1  UNL1       -0.2351
     14 C          12.4324   -3.2714    0.0794 C.2     1  UNL1        0.2295
     15 O          12.0355   -4.4366    0.0793 O.2     1  UNL1       -0.2743
     16 C          13.9307   -2.9027    0.0905 C.3     1  UNL1        0.0336
     17 C          14.8618   -4.1343    0.1010 C.3     1  UNL1        0.0322
     18 C          16.3429   -3.7558    0.1010 C.2     1  UNL1        0.2137
     19 O          16.7333   -2.5861    0.1010 O.2     1  UNL1       -0.2758
     20 N          17.2142   -4.8218    0.0914 N.am    1  UNL1       -0.3112
     21 C          18.6626   -4.6350    0.0919 C.3     1  UNL1        0.0368
     22 C          19.4810   -5.9114    0.1335 C.ar    1  UNL1       -0.0303
     23 C          18.9235   -7.1817   -0.0678 C.ar    1  UNL1       -0.0571
     24 C          19.6756   -8.3390    0.1361 C.ar    1  UNL1       -0.0615
     25 C          21.0332   -8.2490    0.4198 C.ar    1  UNL1       -0.0617
     26 C          21.6314   -6.9978    0.5411 C.ar    1  UNL1       -0.0615
     27 C          20.8603   -5.8369    0.4088 C.ar    1  UNL1       -0.0571
     28 C           2.4172    1.3945   -0.0027 C.ar    1  UNL1       -0.0189
     29 C           1.0122    1.3847    0.0030 C.ar    1  UNL1       -0.0441
     30 C           0.3251    0.1708    0.0049 C.ar    1  UNL1        0.0210
     31 BR         -1.5752    0.2133    0.0058 Br      1  UNL1       -0.0500
     32 H           1.0843   -3.1892   -0.0042 H       1  UNL1        0.0278
     33 H          -0.2553   -2.4833   -0.9089 H       1  UNL1        0.0278
     34 H          -0.2686   -2.4903    0.8854 H       1  UNL1        0.0278
     35 H           2.9810   -1.9470   -0.0066 H       1  UNL1        0.0657
     36 H           5.1330   -1.4940   -0.8878 H       1  UNL1        0.0795
     37 H           5.1159   -1.4835    0.9241 H       1  UNL1        0.0795
     38 H           7.5524   -2.4509    0.0398 H       1  UNL1        0.1566
     39 H           9.7958   -3.3589    0.0594 H       1  UNL1        0.1718
     40 H          11.8637   -1.2254    0.0695 H       1  UNL1        0.1728
     41 H          14.1435   -2.2875    0.9740 H       1  UNL1        0.0363
     42 H          14.1570   -2.2928   -0.7935 H       1  UNL1        0.0363
     43 H          14.6682   -4.7547   -0.7830 H       1  UNL1        0.0363
     44 H          14.6600   -4.7484    0.9873 H       1  UNL1        0.0363
     45 H          16.8369   -5.7499    0.2094 H       1  UNL1        0.1490
     46 H          18.9072   -4.0384    0.9808 H       1  UNL1        0.0512
     47 H          18.9342   -4.0465   -0.7922 H       1  UNL1        0.0512
     48 H          17.8925   -7.3069   -0.3782 H       1  UNL1        0.0621
     49 H          19.1913   -9.3102    0.0788 H       1  UNL1        0.0618
     50 H          21.6221   -9.1547    0.5359 H       1  UNL1        0.0618
     51 H          22.6942   -6.9280    0.7613 H       1  UNL1        0.0618
     52 H          21.3483   -4.8709    0.5326 H       1  UNL1        0.0621
     53 H           2.9303    2.3551   -0.0100 H       1  UNL1        0.0654
     54 H           0.4620    2.3248    0.0041 H       1  UNL1        0.0630
@<TRIPOS>BOND
     1     1     2    1
     2     2     3   ar
     3     3     4   ar
     4     4     5    1
     5     5     6    1
     6     6     7    1
     7     7     8    2
     8     7     9   am
     9     9    10    1
    10    10    11    2
    11    10    12    1
    12    12    13    1
    13    13    14   am
    14    14    15    2
    15    14    16    1
    16    16    17    1
    17    17    18    1
    18    18    19    2
    19    18    20   am
    20    20    21    1
    21    21    22    1
    22    22    23   ar
    23    23    24   ar
    24    24    25   ar
    25    25    26   ar
    26    26    27   ar
    27    22    27   ar
    28     4    28   ar
    29    28    29   ar
    30    29    30   ar
    31     2    30   ar
    32    30    31    1
    33     1    32    1
    34     1    33    1
    35     1    34    1
    36     3    35    1
    37     6    36    1
    38     6    37    1
    39     9    38    1
    40    12    39    1
    41    13    40    1
    42    16    41    1
    43    16    42    1
    44    17    43    1
    45    17    44    1
    46    20    45    1
    47    21    46    1
    48    21    47    1
    49    23    48    1
    50    24    49    1
    51    25    50    1
    52    26    51    1
    53    27    52    1
    54    28    53    1
    55    29    54    1
