REMARK  11 active torsions:
REMARK  status: ('A' for Active; 'I' for Inactive)
REMARK    1  A    between atoms: C_2  and  O_3 
REMARK    2  A    between atoms: O_3  and  C_4 
REMARK    3  A    between atoms: C_4  and  C_6 
REMARK    4  A    between atoms: C_6  and  C_7 
REMARK    5  A    between atoms: C_7  and  C_8 
REMARK    6  A    between atoms: C_8  and  C_9 
REMARK    7  A    between atoms: C_9  and  C_10 
REMARK    8  A    between atoms: C_10  and  C_11 
REMARK    9  A    between atoms: C_11  and  N_12 
REMARK       I    between atoms: N_12  and  C_13 
REMARK       I    between atoms: C_13  and  N_15 
REMARK   10  A    between atoms: N_15  and  N_16 
REMARK   11  A    between atoms: N_16  and  C_17 
ROOT
ATOM      1  C   UNL d   1      14.778   8.425   6.189  0.00  0.00     0.049 A 
ATOM      2  C   UNL d   1      14.177   8.675   7.428  0.00  0.00     0.031 A 
ATOM      3  C   UNL d   1      14.684   9.651   8.306  0.00  0.00     0.004 A 
ATOM      4  C   UNL d   1      15.812  10.395   7.965  0.00  0.00     0.023 A 
ATOM      5  C   UNL d   1      16.454  10.146   6.752  0.00  0.00     0.046 A 
ATOM      6  C   UNL d   1      17.665  10.861   6.442  0.00  0.00     0.099 C 
ATOM      7  N   UNL d   1      18.652  11.430   6.238  0.00  0.00    -0.191 NA
ATOM      8  C   UNL d   1      15.932   9.177   5.871  0.00  0.00     0.053 A 
ENDROOT
BRANCH   1   9
ATOM      9  N   UNL d   1      14.271   7.513   5.228  0.00  0.00    -0.297 N 
ATOM     10  H   UNL d   1      14.925   6.785   4.915  0.00  0.00     0.187 HD
BRANCH   9  11
ATOM     11  N   UNL d   1      12.912   7.071   5.311  0.00  0.00    -0.251 N 
ATOM     12  C   UNL d   1      12.525   6.056   4.425  0.00  0.00     0.334 C 
ATOM     13  N   UNL d   1      11.153   5.883   4.301  0.00  0.00    -0.342 N 
ATOM     14  O   UNL d   1      13.335   5.338   3.842  0.00  0.00    -0.246 OA
ATOM     15  H   UNL d   1      10.516   6.525   4.747  0.00  0.00     0.164 HD
ATOM     16  H   UNL d   1      12.256   7.789   5.589  0.00  0.00     0.191 HD
BRANCH  13  17
ATOM     17  C   UNL d   1      10.594   4.803   3.476  0.00  0.00     0.124 C 
BRANCH  17  18
ATOM     18  C   UNL d   1       9.059   4.769   3.450  0.00  0.00     0.020 C 
BRANCH  18  19
ATOM     19  C   UNL d   1       8.521   3.611   2.595  0.00  0.00     0.002 C 
BRANCH  19  20
ATOM     20  C   UNL d   1       6.987   3.592   2.580  0.00  0.00     0.001 C 
BRANCH  20  21
ATOM     21  C   UNL d   1       6.458   2.438   1.729  0.00  0.00     0.010 C 
BRANCH  21  22
ATOM     22  C   UNL d   1       4.924   2.384   1.688  0.00  0.00     0.111 C 
BRANCH  22  23
ATOM     23  C   UNL d   1       4.465   1.217   0.828  0.00  0.00     0.258 C 
ATOM     24  O   UNL d   1       5.226   0.445   0.258  0.00  0.00    -0.265 OA
BRANCH  23  25
ATOM     25  O   UNL d   1       3.102   1.133   0.766  0.00  0.00    -0.322 OA
BRANCH  25  26
ATOM     26  C   UNL d   1       2.626   0.037  -0.043  0.00  0.00     0.174 C 
ATOM     27  C   UNL d   1       1.106   0.019  -0.057  0.00  0.00     0.034 C 
ENDBRANCH  25  26
ENDBRANCH  23  25
ENDBRANCH  22  23
ENDBRANCH  21  22
ENDBRANCH  20  21
ENDBRANCH  19  20
ENDBRANCH  18  19
ENDBRANCH  17  18
ENDBRANCH  13  17
ENDBRANCH   9  11
ENDBRANCH   1   9
TORSDOF 11
