REMARK  7 active torsions:
REMARK  status: ('A' for Active; 'I' for Inactive)
REMARK       I    between atoms: C_2  and  N_3 
REMARK       I    between atoms: C_2  and  N_12 
REMARK    1  A    between atoms: N_3  and  C_4 
REMARK    2  A    between atoms: C_4  and  C_5 
REMARK    3  A    between atoms: C_5  and  C_6 
REMARK    4  A    between atoms: N_12  and  C_13 
REMARK    5  A    between atoms: C_15  and  N_16 
REMARK       I    between atoms: N_16  and  C_17 
REMARK    6  A    between atoms: C_17  and  C_19 
REMARK    7  A    between atoms: C_28  and  N_29 
ROOT
ATOM      1  C   UNL d   1       4.515  -0.905   0.852  0.00  0.00     0.065 C 
ATOM      2  C   UNL d   1       5.252  -2.097   1.069  0.00  0.00     0.061 C 
ATOM      3  C   UNL d   1       6.643  -2.041   1.280  0.00  0.00     0.037 C 
ATOM      4  C   UNL d   1       7.274  -0.809   1.133  0.00  0.00     0.032 C 
ATOM      5  C   UNL d   1       6.557   0.364   0.973  0.00  0.00     0.034 C 
ATOM      6  C   UNL d   1       5.170   0.349   0.899  0.00  0.00     0.057 C 
ENDROOT
BRANCH   1   7
ATOM      7  N   UNL d   1       3.108  -1.001   0.651  0.00  0.00    -0.307 N 
ATOM      8  C   UNL d   1       2.292  -0.209  -0.132  0.00  0.00     0.320 C 
ATOM      9  O   UNL d   1       1.075  -0.164   0.078  0.00  0.00    -0.247 OA
ATOM     10  N   UNL d   1       2.902   0.453  -1.164  0.00  0.00    -0.343 N 
ATOM     11  H   UNL d   1       3.898   0.523  -1.031  0.00  0.00     0.164 HD
ATOM     12  H   UNL d   1       2.603  -1.595   1.297  0.00  0.00     0.170 HD
BRANCH  10  13
ATOM     13  C   UNL d   1       2.256   1.513  -1.941  0.00  0.00     0.129 C 
BRANCH  13  14
ATOM     14  C   UNL d   1       3.245   2.367  -2.797  0.00  0.00     0.058 C 
BRANCH  14  15
ATOM     15  C   UNL d   1       2.566   3.380  -3.670  0.00  0.00    -0.057 A 
ATOM     16  C   UNL d   1       2.934   4.738  -3.643  0.00  0.00     0.007 A 
ATOM     17  C   UNL d   1       2.233   5.662  -4.412  0.00  0.00     0.001 A 
ATOM     18  C   UNL d   1       1.223   5.221  -5.264  0.00  0.00     0.000 A 
ATOM     19  C   UNL d   1       0.876   3.872  -5.309  0.00  0.00     0.001 A 
ATOM     20  C   UNL d   1       1.545   2.956  -4.513  0.00  0.00     0.007 A 
ENDBRANCH  14  15
ENDBRANCH  13  14
ENDBRANCH  10  13
ENDBRANCH   1   7
BRANCH   6  21
ATOM     21  N   UNL d   1       4.545   1.574   1.029  0.00  0.00    -0.379 N 
ATOM     22  C   UNL d   1       4.577   2.561  -0.026  0.00  0.00     0.123 C 
ATOM     23  C   UNL d   1       4.719   3.974   0.468  0.00  0.00     0.020 C 
ATOM     24  C   UNL d   1       3.669   4.224   1.555  0.00  0.00     0.003 C 
ATOM     25  C   UNL d   1       3.669   3.107   2.609  0.00  0.00     0.020 C 
ATOM     26  C   UNL d   1       3.460   1.737   1.979  0.00  0.00     0.123 C 
ENDBRANCH   6  21
BRANCH   3  27
ATOM     27  N   UNL d   1       7.386  -3.190   1.675  0.00  0.00    -0.323 N 
ATOM     28  C   UNL d   1       8.727  -3.173   2.046  0.00  0.00     0.257 C 
ATOM     29  O   UNL d   1       9.468  -2.183   2.083  0.00  0.00    -0.267 OA
ATOM     30  H   UNL d   1       6.883  -4.069   1.749  0.00  0.00     0.169 HD
BRANCH  28  31
ATOM     31  C   UNL d   1       9.392  -4.424   2.464  0.00  0.00     0.054 A 
ATOM     32  C   UNL d   1      10.386  -4.299   3.462  0.00  0.00     0.019 A 
ATOM     33  C   UNL d   1      11.252  -5.353   3.744  0.00  0.00     0.001 A 
ATOM     34  C   UNL d   1      11.091  -6.564   3.083  0.00  0.00     0.002 A 
ATOM     35  C   UNL d   1      10.093  -6.706   2.115  0.00  0.00     0.025 A 
ATOM     36  C   UNL d   1       9.245  -5.639   1.795  0.00  0.00     0.049 A 
ATOM     37 CL   UNL d   1       8.090  -5.898   0.539  0.00  0.00    -0.083 Cl
ENDBRANCH  28  31
ENDBRANCH   3  27
TORSDOF 7
