REMARK  10 active torsions:
REMARK  status: ('A' for Active; 'I' for Inactive)
REMARK    1  A    between atoms: C_6  and  C_7 
REMARK    2  A    between atoms: C_7  and  O_8 
REMARK    3  A    between atoms: O_8  and  C_9 
REMARK    4  A    between atoms: C_12  and  C_13 
REMARK    5  A    between atoms: N_14  and  N_15 
REMARK       I    between atoms: N_15  and  C_16 
REMARK    6  A    between atoms: C_16  and  C_18 
REMARK    7  A    between atoms: C_19  and  C_20 
REMARK    8  A    between atoms: C_20  and  N_21 
REMARK    9  A    between atoms: N_28  and  C_29 
REMARK   10  A    between atoms: C_33  and  N_34 
ROOT
ATOM      1  N   UNL d   1      -4.798  10.681   0.449  0.00  0.00    -0.242 N 
ATOM      2  C   UNL d   1      -6.026  11.043   1.184  0.00  0.00     0.292 C 
ATOM      3  O   UNL d   1      -6.821  10.202   1.655  0.00  0.00    -0.264 OA
ATOM      4  H   UNL d   1      -4.161  11.395   0.091  0.00  0.00     0.192 HD
ENDROOT
BRANCH   2   5
ATOM      5  C   UNL d   1      -6.370  12.450   1.428  0.00  0.00     0.153 C 
ATOM      6  C   UNL d   1      -6.589  13.236   2.583  0.00  0.00     0.112 C 
ATOM      7  N   UNL d   1      -6.747  14.542   2.158  0.00  0.00    -0.160 NA
ATOM      8  N   UNL d   1      -6.583  14.592   0.839  0.00  0.00     0.012 NA
ATOM      9  N   UNL d   1      -6.487  13.327   0.364  0.00  0.00    -0.207 N 
BRANCH   6  10
ATOM     10  C   UNL d   1      -6.462  13.010   4.103  0.00  0.00     0.297 C 
BRANCH  10  11
ATOM     11  N   UNL d   1      -5.452  11.976   4.652  0.00  0.00    -0.066 N 
ATOM     12  C   UNL d   1      -4.059  12.400   4.207  0.00  0.00     0.235 C 
ATOM     13  C   UNL d   1      -3.873  11.615   2.945  0.00  0.00     0.029 C 
ATOM     14  C   UNL d   1      -4.481  10.254   3.301  0.00  0.00     0.029 C 
ATOM     15  C   UNL d   1      -5.582  10.503   4.312  0.00  0.00     0.235 C 
ATOM     16  H   UNL d   1      -5.536  12.006   5.677  0.00  0.00     0.280 HD
ENDBRANCH  10  11
ENDBRANCH   6  10
BRANCH   9  17
ATOM     17  C   UNL d   1      -6.416  12.901  -0.980  0.00  0.00     0.225 A 
ATOM     18  N   UNL d   1      -5.618  13.516  -1.851  0.00  0.00    -0.081 NA
ATOM     19  O   UNL d   1      -5.652  12.666  -2.970  0.00  0.00    -0.103 OA
ATOM     20  N   UNL d   1      -6.424  11.531  -2.727  0.00  0.00    -0.083 NA
ATOM     21  C   UNL d   1      -6.921  11.690  -1.505  0.00  0.00     0.201 A 
BRANCH  21  22
ATOM     22  N   UNL d   1      -7.747  10.814  -0.890  0.00  0.00    -0.379 N 
ATOM     23  H   UNL d   1      -7.906   9.901  -1.307  0.00  0.00     0.158 HD
ATOM     24  H   UNL d   1      -7.978  10.787   0.103  0.00  0.00     0.158 HD
ENDBRANCH  21  22
ENDBRANCH   9  17
ENDBRANCH   2   5
BRANCH   1  25
ATOM     25  N   UNL d   1      -4.249   9.344   0.503  0.00  0.00    -0.183 NA
ATOM     26  C   UNL d   1      -3.090   9.043  -0.041  0.00  0.00     0.150 C 
BRANCH  26  27
ATOM     27  C   UNL d   1      -2.451   7.642   0.031  0.00  0.00    -0.017 A 
ATOM     28  C   UNL d   1      -2.968   6.664   0.891  0.00  0.00     0.015 A 
ATOM     29  C   UNL d   1      -2.477   5.336   0.894  0.00  0.00     0.037 A 
ATOM     30  C   UNL d   1      -1.455   4.952   0.034  0.00  0.00     0.069 A 
ATOM     31  C   UNL d   1      -0.865   5.929  -0.771  0.00  0.00     0.037 A 
ATOM     32  C   UNL d   1      -1.356   7.263  -0.777  0.00  0.00     0.015 A 
BRANCH  30  33
ATOM     33  O   UNL d   1      -0.919   3.694  -0.020  0.00  0.00    -0.347 OA
BRANCH  33  34
ATOM     34  C   UNL d   1      -1.839   2.584   0.010  0.00  0.00     0.214 C 
BRANCH  34  35
ATOM     35  C   UNL d   1      -1.097   1.256  -0.004  0.00  0.00    -0.034 A 
ATOM     36  C   UNL d   1      -1.805   0.042  -0.009  0.00  0.00     0.009 A 
ATOM     37  C   UNL d   1      -1.124  -1.181  -0.002  0.00  0.00     0.001 A 
ATOM     38  C   UNL d   1       0.271  -1.209   0.004  0.00  0.00     0.007 A 
ATOM     39  C   UNL d   1       0.994  -0.015   0.002  0.00  0.00    -0.061 A 
ATOM     40  C   UNL d   1       2.493  -0.009  -0.013  0.00  0.00     0.048 C 
ATOM     41  C   UNL d   1       0.305   1.204   0.003  0.00  0.00     0.016 A 
ENDBRANCH  34  35
ENDBRANCH  33  34
ENDBRANCH  30  33
ENDBRANCH  26  27
ENDBRANCH   1  25
TORSDOF 10
