@<TRIPOS>MOLECULE
*****
 39 41 0 0 0
SMALL
GASTEIGER

@<TRIPOS>ATOM
      1 C           1.0113   -0.0850    0.0069 C.3     1  UNL1       -0.0206
      2 C           2.5059   -0.0552    0.0190 C.ar    1  UNL1        0.0607
      3 C           3.2093    1.1365    0.0408 C.ar    1  UNL1       -0.0356
      4 C           4.5813    1.1107    0.2923 C.ar    1  UNL1       -0.0181
      5 C           5.2439   -0.1040    0.3102 C.ar    1  UNL1        0.1454
      6 N           6.6408   -0.1569    0.4767 N.pl3   1  UNL1       -0.2980
      7 C           7.3952   -1.3152    0.2261 C.ar    1  UNL1        0.0325
      8 C           8.2461   -1.8176    1.2097 C.ar    1  UNL1       -0.0388
      9 C           8.7512   -3.1259    1.1072 C.ar    1  UNL1       -0.0387
     10 C           8.6512   -3.8285   -0.0979 C.ar    1  UNL1        0.0338
     11 N           9.3182   -5.0743   -0.2587 N.am    1  UNL1       -0.2814
     12 C           9.4131   -5.7553   -1.4609 C.2     1  UNL1        0.2524
     13 O           8.8345   -5.4635   -2.5184 O.2     1  UNL1       -0.2697
     14 C          10.2455   -6.9590   -1.5504 C.ar    1  UNL1        0.0904
     15 C          10.1030   -7.9745   -0.6103 C.ar    1  UNL1        0.1369
     16 F           9.3860   -7.7845    0.5060 F       1  UNL1       -0.2047
     17 C          10.6567   -9.2332   -0.8374 C.ar    1  UNL1       -0.0256
     18 C          11.2521   -9.5180   -2.0651 C.ar    1  UNL1       -0.0576
     19 C          11.4788   -8.4890   -2.9758 C.ar    1  UNL1       -0.0425
     20 C          11.0111   -7.2013   -2.7033 C.ar    1  UNL1        0.0559
     21 CL         11.4727   -5.9509   -3.8102 Cl      1  UNL1       -0.0827
     22 C           7.9235   -3.2400   -1.1331 C.ar    1  UNL1       -0.0387
     23 C           7.2607   -2.0290   -0.9605 C.ar    1  UNL1       -0.0388
     24 N           4.5224   -1.2453    0.2213 N.ar    1  UNL1       -0.1338
     25 N           3.1496   -1.2292    0.1192 N.ar    1  UNL1       -0.1528
     26 H           0.5931    0.9207   -0.1007 H       1  UNL1        0.0293
     27 H           0.6483   -0.4956    0.9558 H       1  UNL1        0.0293
     28 H           0.6385   -0.7051   -0.8128 H       1  UNL1        0.0293
     29 H           2.7003    2.0811   -0.1127 H       1  UNL1        0.0637
     30 H           5.1088    2.0397    0.4710 H       1  UNL1        0.0653
     31 H           7.1476    0.7139    0.4107 H       1  UNL1        0.1536
     32 H           8.4383   -1.2279    2.1011 H       1  UNL1        0.0637
     33 H           9.1982   -3.5706    1.9919 H       1  UNL1        0.0637
     34 H           9.8024   -5.4468    0.5523 H       1  UNL1        0.1551
     35 H          10.5879   -9.9981   -0.0702 H       1  UNL1        0.0646
     36 H          11.5446  -10.5357   -2.3117 H       1  UNL1        0.0619
     37 H          12.0184   -8.6925   -3.8986 H       1  UNL1        0.0632
     38 H           7.7970   -3.7093   -2.0990 H       1  UNL1        0.0637
     39 H           6.6128   -1.6838   -1.7620 H       1  UNL1        0.0637
@<TRIPOS>BOND
     1     1     2    1
     2     2     3   ar
     3     3     4   ar
     4     4     5   ar
     5     5     6    1
     6     6     7    1
     7     7     8   ar
     8     8     9   ar
     9     9    10   ar
    10    10    11    1
    11    11    12   am
    12    12    13    2
    13    12    14    1
    14    14    15   ar
    15    15    16    1
    16    15    17   ar
    17    17    18   ar
    18    18    19   ar
    19    19    20   ar
    20    14    20   ar
    21    20    21    1
    22    10    22   ar
    23    22    23   ar
    24     7    23   ar
    25     5    24   ar
    26    24    25   ar
    27     2    25   ar
    28     1    26    1
    29     1    27    1
    30     1    28    1
    31     3    29    1
    32     4    30    1
    33     6    31    1
    34     8    32    1
    35     9    33    1
    36    11    34    1
    37    17    35    1
    38    18    36    1
    39    19    37    1
    40    22    38    1
    41    23    39    1
