@<TRIPOS>MOLECULE
*****
 50 53 0 0 0
SMALL
GASTEIGER

@<TRIPOS>ATOM
      1 C           1.0384   -0.0195   -0.0542 C.3     1  UNL1        0.0230
      2 C           2.5297   -0.0080   -0.0746 C.ar    1  UNL1        0.2053
      3 C           3.1877    1.1922   -0.1315 C.ar    1  UNL1        0.0105
      4 C           4.5480    1.1552   -0.2360 C.ar    1  UNL1       -0.0102
      5 C           5.2377   -0.0099   -0.4147 C.ar    1  UNL1        0.1863
      6 N           6.5466    0.0298   -0.8751 N.pl3   1  UNL1       -0.3215
      7 C           7.5670    1.1189   -0.7354 C.3     1  UNL1        0.0250
      8 C           7.5031    1.9274    0.5715 C.3     1  UNL1       -0.0186
      9 C           7.0120    3.3879    0.4204 C.3     1  UNL1        0.0166
     10 N           7.7182    4.0733   -0.6301 N.am    1  UNL1       -0.2974
     11 C           8.3610    5.2781   -0.3240 C.2     1  UNL1        0.2466
     12 O           8.3952    5.7695    0.8001 O.2     1  UNL1       -0.2700
     13 C           9.1121    5.9355   -1.4030 C.ar    1  UNL1        0.0372
     14 C           8.4466    6.4434   -2.5402 C.ar    1  UNL1       -0.0494
     15 C           9.1839    6.9255   -3.6081 C.ar    1  UNL1       -0.0576
     16 C          10.5261    6.7118   -3.4833 C.ar    1  UNL1       -0.0441
     17 C          11.2181    5.9465   -2.5998 C.ar    1  UNL1       -0.0435
     18 C          10.5128    5.8319   -1.3572 C.ar    1  UNL1       -0.0462
     19 C          13.0945    5.9647   -3.2600 C.3     1  UNL1       -0.0271
     20 C          12.6257    6.4285   -2.0471 C.3     1  UNL1       -0.0450
     21 C          11.8605    6.9026   -3.8458 C.3     1  UNL1       -0.0271
     22 C           7.5989    3.4279   -1.9430 C.3     1  UNL1        0.0166
     23 C           8.0883    1.9864   -1.8938 C.3     1  UNL1       -0.0186
     24 N           4.5774   -1.1785   -0.2619 N.ar    1  UNL1        0.0159
     25 N           3.2469   -1.1487   -0.0425 N.ar    1  UNL1       -0.1009
     26 H           0.6500    1.0060   -0.1256 H       1  UNL1        0.0337
     27 H           0.6696   -0.4538    0.8751 H       1  UNL1        0.0337
     28 H           0.6580   -0.5681   -0.9189 H       1  UNL1        0.0337
     29 H           2.6827    2.1528   -0.1294 H       1  UNL1        0.0681
     30 H           5.0531    2.0828   -0.2389 H       1  UNL1        0.0656
     31 H           6.9709   -0.9003   -0.8031 H       1  UNL1        0.1479
     32 H           8.4272    0.4436   -0.7132 H       1  UNL1        0.0499
     33 H           8.5299    1.9699    0.9556 H       1  UNL1        0.0298
     34 H           6.9083    1.4150    1.3320 H       1  UNL1        0.0298
     35 H           7.0521    3.9061    1.3824 H       1  UNL1        0.0465
     36 H           5.9741    3.5019    0.1165 H       1  UNL1        0.0465
     37 H           7.3623    6.4463   -2.5795 H       1  UNL1        0.0625
     38 H           8.7353    7.4076   -4.4682 H       1  UNL1        0.0621
     39 H          11.0018    5.7183   -0.3841 H       1  UNL1        0.0628
     40 H          13.7848    6.9085   -3.3116 H       1  UNL1        0.0313
     41 H          13.4679    5.0250   -3.5287 H       1  UNL1        0.0313
     42 H          13.2592    7.0582   -1.4696 H       1  UNL1        0.0272
     43 H          12.8700    5.3081   -1.6761 H       1  UNL1        0.0272
     44 H          11.8942    6.0798   -4.7115 H       1  UNL1        0.0313
     45 H          12.1657    7.8422   -4.2733 H       1  UNL1        0.0313
     46 H           8.1684    3.9618   -2.7050 H       1  UNL1        0.0465
     47 H           6.5449    3.4429   -2.2356 H       1  UNL1        0.0465
     48 H           9.1696    2.0893   -1.6801 H       1  UNL1        0.0298
     49 H           8.0254    1.5149   -2.8770 H       1  UNL1        0.0298
     50 H           2.7662   -2.0338    0.1358 H       1  UNL1        0.4893
@<TRIPOS>UNITY_ATOM_ATTR
25 1
charge 1
@<TRIPOS>BOND
     1     1     2    1
     2     2     3   ar
     3     3     4   ar
     4     4     5   ar
     5     5     6    1
     6     6     7    1
     7     7     8    1
     8     8     9    1
     9     9    10    1
    10    10    11   am
    11    11    12    2
    12    11    13    1
    13    13    14   ar
    14    14    15   ar
    15    15    16   ar
    16    16    17   ar
    17    17    18   ar
    18    13    18   ar
    19    17    19    1
    20    19    20    1
    21    20    21    1
    22    16    21    1
    23    10    22    1
    24    22    23    1
    25     7    23    1
    26     5    24   ar
    27    24    25   ar
    28     2    25   ar
    29     1    26    1
    30     1    27    1
    31     1    28    1
    32     3    29    1
    33     4    30    1
    34     6    31    1
    35     7    32    1
    36     8    33    1
    37     8    34    1
    38     9    35    1
    39     9    36    1
    40    14    37    1
    41    15    38    1
    42    18    39    1
    43    19    40    1
    44    19    41    1
    45    20    42    1
    46    20    43    1
    47    21    44    1
    48    21    45    1
    49    22    46    1
    50    22    47    1
    51    23    48    1
    52    23    49    1
    53    25    50    1
