REMARK  12 active torsions:
REMARK  status: ('A' for Active; 'I' for Inactive)
REMARK    1  A    between atoms: C_2  and  C_3 
REMARK    2  A    between atoms: C_3  and  C_4 
REMARK    3  A    between atoms: C_4  and  N_5 
REMARK       I    between atoms: N_5  and  C_6 
REMARK    4  A    between atoms: C_8  and  C_6 
REMARK    5  A    between atoms: C_8  and  N_22 
REMARK    6  A    between atoms: C_8  and  C_9 
REMARK    7  A    between atoms: C_9  and  C_10 
REMARK    8  A    between atoms: C_9  and  C_16 
REMARK       I    between atoms: N_22  and  C_23 
REMARK    9  A    between atoms: N_22  and  C_33 
REMARK   10  A    between atoms: C_23  and  C_25 
REMARK   11  A    between atoms: C_29  and  O_30 
REMARK   12  A    between atoms: C_31  and  O_32 
ROOT
ATOM      1  C   UNL d   1       7.239  -4.040   2.772  0.00  0.00     0.193 C 
ENDROOT
BRANCH   1   2
ATOM      2  N   UNL d   1       8.658  -3.958   2.543  0.00  0.00    -0.325 N 
ATOM      3  C   UNL d   1       9.143  -2.989   1.515  0.00  0.00     0.258 C 
ATOM      4  O   UNL d   1      10.403  -2.797   1.453  0.00  0.00    -0.267 OA
BRANCH   3   5
ATOM      5  C   UNL d   1       8.097  -1.929   0.429  0.00  0.00     0.068 A 
ATOM      6  C   UNL d   1       8.797  -1.563  -0.707  0.00  0.00     0.020 A 
ATOM      7  C   UNL d   1       8.236  -0.431  -1.344  0.00  0.00     0.004 A 
ATOM      8  C   UNL d   1       7.046   0.380  -0.905  0.00  0.00     0.039 A 
ATOM      9  C   UNL d   1       6.266   0.142   0.186  0.00  0.00     0.099 A 
ATOM     10  C   UNL d   1       6.677  -0.967   0.802  0.00  0.00     0.114 A 
BRANCH   9  11
ATOM     11  O   UNL d   1       5.342   0.880   0.861  0.00  0.00    -0.358 OA
ATOM     12  H   UNL d   1       5.395   1.814   0.648  0.00  0.00     0.217 HD
ENDBRANCH   9  11
BRANCH  10  13
ATOM     13  O   UNL d   1       5.727  -1.053   1.972  0.00  0.00    -0.357 OA
ATOM     14  H   UNL d   1       5.308  -0.249   2.337  0.00  0.00     0.217 HD
ENDBRANCH  10  13
ENDBRANCH   3   5
BRANCH   2  15
ATOM     15  C   UNL d   1       9.470  -4.758   3.534  0.00  0.00     0.025 C 
ATOM     16  C   UNL d   1       9.006  -4.572   5.006  0.00  0.00     0.037 C 
ATOM     17  C   UNL d   1       9.266  -6.234   3.223  0.00  0.00     0.037 C 
ATOM     18  C   UNL d   1      10.965  -4.538   3.416  0.00  0.00     0.037 C 
ENDBRANCH   2  15
ENDBRANCH   1   2
BRANCH   1  19
ATOM     19  C   UNL d   1       6.807  -2.788   2.198  0.00  0.00     0.080 C 
BRANCH  19  20
ATOM     20  C   UNL d   1       6.352  -3.409   0.444  0.00  0.00    -0.047 C 
ATOM     21  C   UNL d   1       7.332  -4.078  -0.404  0.00  0.00     0.008 C 
ATOM     22  C   UNL d   1       7.353  -3.894  -1.803  0.00  0.00     0.001 C 
ATOM     23  C   UNL d   1       6.246  -3.381  -2.450  0.00  0.00     0.000 C 
ATOM     24  C   UNL d   1       5.152  -2.963  -1.685  0.00  0.00     0.001 C 
ATOM     25  C   UNL d   1       5.197  -2.950  -0.259  0.00  0.00     0.008 C 
ENDBRANCH  19  20
BRANCH  19  26
ATOM     26  C   UNL d   1       7.946  -1.268   2.822  0.00  0.00    -0.063 C 
ATOM     27  C   UNL d   1       7.509  -0.134   3.530  0.00  0.00     0.004 C 
ATOM     28  C   UNL d   1       7.942   1.296   3.137  0.00  0.00    -0.003 C 
ATOM     29  C   UNL d   1       8.981   1.718   2.224  0.00  0.00    -0.021 C 
ATOM     30  C   UNL d   1       9.736   0.737   1.679  0.00  0.00     0.025 C 
ATOM     31  C   UNL d   1       9.076  -0.507   1.948  0.00  0.00     0.032 C 
ENDBRANCH  19  26
ENDBRANCH   1  19
BRANCH   1  32
ATOM     32  C   UNL d   1       6.340  -5.217   2.211  0.00  0.00     0.241 C 
ATOM     33  N   UNL d   1       7.068  -6.228   1.645  0.00  0.00    -0.359 N 
ATOM     34  H   UNL d   1       7.987  -5.979   1.321  0.00  0.00     0.162 HD
ATOM     35  O   UNL d   1       5.117  -5.228   2.248  0.00  0.00    -0.271 OA
BRANCH  33  36
ATOM     36  C   UNL d   1       6.561  -7.503   1.269  0.00  0.00     0.122 C 
BRANCH  36  37
ATOM     37  C   UNL d   1       7.695  -8.526   1.244  0.00  0.00     0.019 C 
BRANCH  37  38
ATOM     38  C   UNL d   1       7.135  -9.833   0.722  0.00  0.00    -0.003 C 
ATOM     39  C   UNL d   1       8.193 -10.909   0.631  0.00  0.00     0.005 C 
ENDBRANCH  37  38
ENDBRANCH  36  37
ENDBRANCH  33  36
ENDBRANCH   1  32
TORSDOF 12
