@<TRIPOS>MOLECULE
*****
 57 59 0 0 0
SMALL
GASTEIGER

@<TRIPOS>ATOM
      1 C           1.2190   -0.0695   -0.5502 C.3     1  UNL1       -0.0245
      2 C           2.6979   -0.2195   -0.1250 C.3     1  UNL1       -0.0347
      3 N           3.1909   -1.0510    1.1903 N.4     1  UNL1        0.2373
      4 C           2.6454   -0.7172    2.5876 C.3     1  UNL1       -0.0158
      5 C           2.4815   -1.6596    3.7733 C.3     1  UNL1        0.0525
      6 N           2.1615   -2.9735    3.2922 N.pl3   1  UNL1       -0.3183
      7 C           0.9981   -3.6440    3.6875 C.ar    1  UNL1        0.0516
      8 C           1.1402   -4.9810    4.1302 C.ar    1  UNL1       -0.0381
      9 C           0.0442   -5.8459    4.3517 C.ar    1  UNL1       -0.0459
     10 C          -1.2681   -5.4060    4.1712 C.ar    1  UNL1        0.0609
     11 C          -2.3893   -6.3597    4.5334 C.2     1  UNL1        0.3390
     12 O          -2.1935   -7.4444    5.0027 O.2     1  UNL1       -0.2450
     13 O          -3.6235   -5.7971    4.3259 O.3     1  UNL1       -0.4644
     14 C          -4.7174   -6.6286    4.7588 C.3     1  UNL1        0.0820
     15 C          -1.4598   -4.0725    3.7856 C.ar    1  UNL1       -0.0247
     16 C          -0.3623   -3.1474    3.6510 C.ar    1  UNL1        0.0547
     17 N          -0.7713   -1.7285    3.3484 N.am    1  UNL1       -0.2951
     18 C          -0.2636   -1.1139    2.2173 C.2     1  UNL1        0.1411
     19 S          -0.4072   -2.1075    0.8622 S.2     1  UNL1       -0.0182
     20 N          -0.0519    0.4188    2.3261 N.am    1  UNL1       -0.2635
     21 C           0.9985    1.4797    1.8972 C.2     1  UNL1        0.2510
     22 O           2.2142    1.5217    2.0984 O.2     1  UNL1       -0.2698
     23 C           0.7380    2.7249    1.1864 C.ar    1  UNL1        0.0567
     24 C           1.6945    3.1794    0.2049 C.ar    1  UNL1       -0.0298
     25 C           1.7142    4.4952   -0.2164 C.ar    1  UNL1        0.0418
     26 CL          2.9656    5.0668   -1.2520 Cl      1  UNL1       -0.0835
     27 C           0.7500    5.3473    0.2840 C.ar    1  UNL1       -0.0420
     28 C          -0.1510    4.9101    1.2744 C.ar    1  UNL1       -0.0413
     29 C          -0.1445    3.6080    1.7514 C.ar    1  UNL1        0.0532
     30 CL         -1.1503    3.1691    3.0761 Cl      1  UNL1       -0.0828
     31 C           3.1338   -3.4172    2.2428 C.3     1  UNL1        0.0525
     32 C           3.1207   -2.5510    0.9294 C.3     1  UNL1       -0.0158
     33 H           1.0353    0.6159   -1.3871 H       1  UNL1        0.0281
     34 H           0.5284    0.3277    0.1724 H       1  UNL1        0.0281
     35 H           0.8141   -1.0039   -0.9185 H       1  UNL1        0.0281
     36 H           3.1728    0.7539   -0.0472 H       1  UNL1        0.0812
     37 H           3.1707   -0.7176   -0.9752 H       1  UNL1        0.0812
     38 H           4.1687   -0.7469    1.2684 H       1  UNL1        0.2034
     39 H           1.6758   -0.6187    2.2495 H       1  UNL1        0.0830
     40 H           3.0394    0.1740    3.0690 H       1  UNL1        0.0830
     41 H           1.7247   -1.2722    4.4751 H       1  UNL1        0.0516
     42 H           3.4260   -1.6359    4.3287 H       1  UNL1        0.0516
     43 H           2.1323   -5.3675    4.3684 H       1  UNL1        0.0637
     44 H           0.2310   -6.8743    4.6655 H       1  UNL1        0.0626
     45 H          -5.6563   -6.1044    4.5482 H       1  UNL1        0.0661
     46 H          -4.6695   -6.8107    5.8387 H       1  UNL1        0.0661
     47 H          -4.7293   -7.5776    4.2124 H       1  UNL1        0.0661
     48 H          -2.4765   -3.7711    3.5260 H       1  UNL1        0.0645
     49 H          -1.7760   -1.7909    3.1545 H       1  UNL1        0.1539
     50 H          -0.9449    0.8141    2.0701 H       1  UNL1        0.1568
     51 H           2.4993    2.5600   -0.1813 H       1  UNL1        0.0640
     52 H           0.7052    6.3708   -0.0706 H       1  UNL1        0.0633
     53 H          -0.8467    5.6138    1.7127 H       1  UNL1        0.0633
     54 H           3.0296   -4.4749    2.0017 H       1  UNL1        0.0516
     55 H           4.1464   -3.2754    2.6500 H       1  UNL1        0.0516
     56 H           2.2407   -2.7454    0.3184 H       1  UNL1        0.0830
     57 H           3.9809   -2.7659    0.2843 H       1  UNL1        0.0830
@<TRIPOS>UNITY_ATOM_ATTR
3 1
charge 1
@<TRIPOS>BOND
     1     1     2    1
     2     2     3    1
     3     3     4    1
     4     4     5    1
     5     5     6    1
     6     6     7    1
     7     7     8   ar
     8     8     9   ar
     9     9    10   ar
    10    10    11    1
    11    11    12    2
    12    11    13    1
    13    13    14    1
    14    10    15   ar
    15    15    16   ar
    16     7    16   ar
    17    16    17    1
    18    17    18    1
    19    18    19    2
    20    18    20    1
    21    20    21   am
    22    21    22    2
    23    21    23    1
    24    23    24   ar
    25    24    25   ar
    26    25    26    1
    27    25    27   ar
    28    27    28   ar
    29    28    29   ar
    30    23    29   ar
    31    29    30    1
    32     6    31    1
    33    31    32    1
    34     3    32    1
    35     1    33    1
    36     1    34    1
    37     1    35    1
    38     2    36    1
    39     2    37    1
    40     3    38    1
    41     4    39    1
    42     4    40    1
    43     5    41    1
    44     5    42    1
    45     8    43    1
    46     9    44    1
    47    14    45    1
    48    14    46    1
    49    14    47    1
    50    15    48    1
    51    17    49    1
    52    20    50    1
    53    24    51    1
    54    27    52    1
    55    28    53    1
    56    31    54    1
    57    31    55    1
    58    32    56    1
    59    32    57    1
