REMARK  7 active torsions:
REMARK  status: ('A' for Active; 'I' for Inactive)
REMARK    1  A    between atoms: C_4  and  C_5 
REMARK    2  A    between atoms: C_19  and  C_20 
REMARK       I    between atoms: C_20  and  N_22 
REMARK    3  A    between atoms: N_22  and  C_23 
REMARK    4  A    between atoms: C_23  and  C_24 
REMARK    5  A    between atoms: C_24  and  N_25 
REMARK       I    between atoms: N_25  and  C_26 
REMARK    6  A    between atoms: C_26  and  O_28 
REMARK    7  A    between atoms: O_28  and  C_29 
ROOT
ATOM      1  C   UNL d   1       2.573   0.560   0.009  0.00  0.00     0.069 C 
ATOM      2  C   UNL d   1       1.115   0.298  -0.003  0.00  0.00     0.022 A 
ATOM      3  N   UNL d   1       0.698  -1.008  -0.008  0.00  0.00    -0.359 N 
ATOM      4  C   UNL d   1      -0.660  -1.090   0.004  0.00  0.00     0.040 A 
ATOM      5  C   UNL d   1      -1.149   0.210  -0.003  0.00  0.00    -0.018 A 
ATOM      6  C   UNL d   1      -2.593   0.601  -0.005  0.00  0.00     0.052 C 
ATOM      7  C   UNL d   1      -0.011   1.118  -0.012  0.00  0.00     0.062 A 
ATOM      8  H   UNL d   1       1.328  -1.804  -0.015  0.00  0.00     0.166 HD
ENDROOT
BRANCH   7   9
ATOM      9  C   UNL d   1      -0.086   2.596  -0.026  0.00  0.00     0.254 C 
ATOM     10  O   UNL d   1      -1.163   3.190  -0.026  0.00  0.00    -0.268 OA
ATOM     11  N   UNL d   1       1.107   3.298  -0.045  0.00  0.00    -0.355 N 
ATOM     12  H   UNL d   1       1.977   2.796  -0.046  0.00  0.00     0.162 HD
BRANCH  11  13
ATOM     13  C   UNL d   1       1.139   4.753  -0.067  0.00  0.00     0.142 C 
BRANCH  13  14
ATOM     14  C   UNL d   1       2.555   5.344  -0.087  0.00  0.00     0.144 C 
BRANCH  14  15
ATOM     15  N   UNL d   1       2.610   6.804  -0.107  0.00  0.00    -0.335 N 
ATOM     16  C   UNL d   1       3.829   7.439  -0.125  0.00  0.00     0.361 C 
ATOM     17  O   UNL d   1       4.881   6.811  -0.126  0.00  0.00    -0.238 OA
ATOM     18  H   UNL d   1       1.771   7.368  -0.107  0.00  0.00     0.164 HD
BRANCH  16  19
ATOM     19  O   UNL d   1       3.725   8.805  -0.142  0.00  0.00    -0.294 OA
BRANCH  19  20
ATOM     20  C   UNL d   1       4.964   9.592  -0.163  0.00  0.00     0.061 C 
ATOM     21  C   UNL d   1       5.800   9.339   1.100  0.00  0.00     0.046 C 
ATOM     22  C   UNL d   1       5.779   9.306  -1.433  0.00  0.00     0.046 C 
ATOM     23  C   UNL d   1       4.616  11.099  -0.180  0.00  0.00     0.046 C 
ENDBRANCH  19  20
ENDBRANCH  16  19
ENDBRANCH  14  15
ENDBRANCH  13  14
ENDBRANCH  11  13
ENDBRANCH   7   9
BRANCH   4  24
ATOM     24  C   UNL d   1      -1.322  -2.340   0.017  0.00  0.00     0.048 C 
ATOM     25  C   UNL d   1      -0.806  -3.577   0.012  0.00  0.00     0.047 A 
ATOM     26  C   UNL d   1       0.600  -4.110  -0.007  0.00  0.00     0.257 A 
ATOM     27  C   UNL d   1      -1.686  -4.747   0.026  0.00  0.00     0.009 A 
ATOM     28  O   UNL d   1       1.639  -3.471  -0.022  0.00  0.00    -0.267 OA
ATOM     29  N   UNL d   1       0.472  -5.494  -0.003  0.00  0.00    -0.322 N 
ATOM     30  C   UNL d   1      -0.871  -5.881   0.017  0.00  0.00     0.046 A 
ATOM     31  H   UNL d   1       1.282  -6.098  -0.013  0.00  0.00     0.169 HD
ATOM     32  C   UNL d   1      -1.421  -7.151   0.027  0.00  0.00     0.033 A 
ATOM     33  C   UNL d   1      -2.824  -7.251   0.049  0.00  0.00     0.044 A 
ATOM     34  C   UNL d   1      -3.625  -6.103   0.056  0.00  0.00     0.117 A 
ATOM     35  F   UNL d   1      -4.959  -6.215   0.073  0.00  0.00    -0.206 F 
ATOM     36  C   UNL d   1      -3.066  -4.840   0.045  0.00  0.00     0.057 A 
ENDBRANCH   4  24
TORSDOF 7
