@<TRIPOS>MOLECULE
*****
 37 39 0 0 0
SMALL
GASTEIGER

@<TRIPOS>ATOM
      1 O           1.0099   -0.0299    0.0540 O.2     1  UNL1       -0.2685
      2 C           2.2308    0.1127    0.0674 C.2     1  UNL1        0.2642
      3 N           2.9405    0.4392   -1.0643 N.am    1  UNL1       -0.3083
      4 C           2.3516    0.4680   -2.3954 C.3     1  UNL1        0.0306
      5 C           3.3874    0.5608   -3.5626 C.3     1  UNL1        0.0418
      6 N           4.2567   -0.6235   -3.6301 N.am    1  UNL1       -0.3054
      7 C           5.1245   -0.9737   -2.6106 C.2     1  UNL1        0.2644
      8 O           5.2933   -0.2712   -1.6107 O.2     1  UNL1       -0.2685
      9 C           5.8709   -2.2190   -2.7888 C.ar    1  UNL1        0.1468
     10 C           6.6681   -2.5684   -3.9054 C.ar    1  UNL1       -0.0120
     11 C           7.2943   -3.7382   -3.5525 C.ar    1  UNL1        0.0231
     12 N           6.8460   -4.0432   -2.3018 N.ar    1  UNL1       -0.2840
     13 N           5.9723   -3.1478   -1.8186 N.ar    1  UNL1       -0.1692
     14 C           2.6621    0.7540   -4.8954 C.3     1  UNL1       -0.0211
     15 C           3.1161    1.8231   -5.8730 C.3     1  UNL1       -0.0482
     16 C           3.2839    0.3762   -6.2263 C.3     1  UNL1       -0.0482
     17 C           3.0327   -0.1332    1.2872 C.ar    1  UNL1        0.1468
     18 C           2.7279   -1.1041    2.2808 C.ar    1  UNL1       -0.0120
     19 C           3.6815   -0.9600    3.2566 C.ar    1  UNL1        0.0231
     20 N           4.4907    0.0495    2.8301 N.ar    1  UNL1       -0.2840
     21 N           4.1429    0.5551    1.6284 N.ar    1  UNL1       -0.1692
     22 H           3.9580    0.3662   -0.9745 H       1  UNL1        0.1491
     23 H           1.6802    1.3344   -2.4193 H       1  UNL1        0.0480
     24 H           1.7257   -0.4251   -2.5282 H       1  UNL1        0.0480
     25 H           4.0364    1.4261   -3.3790 H       1  UNL1        0.0516
     26 H           4.1730   -1.2440   -4.4237 H       1  UNL1        0.1494
     27 H           6.8167   -1.9869   -4.8023 H       1  UNL1        0.0656
     28 H           8.0274   -4.3497   -4.0569 H       1  UNL1        0.0824
     29 H           7.1046   -4.8309   -1.7145 H       1  UNL1        0.1882
     30 H           1.5852    0.6300   -4.8045 H       1  UNL1        0.0319
     31 H           4.0109    2.3959   -5.6540 H       1  UNL1        0.0269
     32 H           2.3665    2.3945   -6.4131 H       1  UNL1        0.0269
     33 H           4.2971   -0.0046   -6.2626 H       1  UNL1        0.0269
     34 H           2.6326   -0.0574   -6.9792 H       1  UNL1        0.0269
     35 H           1.9100   -1.8090    2.2607 H       1  UNL1        0.0656
     36 H           3.8433   -1.4716    4.1954 H       1  UNL1        0.0824
     37 H           5.2931    0.4436    3.3125 H       1  UNL1        0.1882
@<TRIPOS>BOND
     1     1     2    2
     2     2     3   am
     3     3     4    1
     4     4     5    1
     5     5     6    1
     6     6     7   am
     7     7     8    2
     8     7     9    1
     9     9    10   ar
    10    10    11   ar
    11    11    12   ar
    12    12    13   ar
    13     9    13   ar
    14     5    14    1
    15    14    15    1
    16    15    16    1
    17    14    16    1
    18     2    17    1
    19    17    18   ar
    20    18    19   ar
    21    19    20   ar
    22    20    21   ar
    23    17    21   ar
    24     3    22    1
    25     4    23    1
    26     4    24    1
    27     5    25    1
    28     6    26    1
    29    10    27    1
    30    11    28    1
    31    12    29    1
    32    14    30    1
    33    15    31    1
    34    15    32    1
    35    16    33    1
    36    16    34    1
    37    18    35    1
    38    19    36    1
    39    20    37    1
