REMARK  8 active torsions:
REMARK  status: ('A' for Active; 'I' for Inactive)
REMARK    1  A    between atoms: C_2  and  C_4 
REMARK    2  A    between atoms: C_4  and  N_5 
REMARK       I    between atoms: N_5  and  C_6 
REMARK       I    between atoms: C_6  and  N_8 
REMARK    3  A    between atoms: N_8  and  N_9 
REMARK       I    between atoms: N_9  and  C_10 
REMARK    4  A    between atoms: C_10  and  C_12 
REMARK    5  A    between atoms: C_12  and  C_13 
REMARK    6  A    between atoms: C_13  and  C_14 
REMARK    7  A    between atoms: C_14  and  O_15 
REMARK    8  A    between atoms: O_15  and  C_16 
ROOT
ATOM      1  N   UNL d   1       7.447  -3.770   0.661  0.00  0.00    -0.266 N 
ATOM      2  C   UNL d   1       8.835  -3.688   0.648  0.00  0.00     0.236 C 
ATOM      3  O   UNL d   1       9.414  -2.615   0.474  0.00  0.00    -0.272 OA
ATOM      4  H   UNL d   1       6.920  -4.631   0.796  0.00  0.00     0.190 HD
ENDROOT
BRANCH   2   5
ATOM      5  C   UNL d   1       9.597  -5.011   0.864  0.00  0.00     0.106 C 
BRANCH   5   6
ATOM      6  C   UNL d   1      11.130  -4.817   0.844  0.00  0.00     0.036 C 
BRANCH   6   7
ATOM      7  C   UNL d   1      11.921  -6.118   1.052  0.00  0.00     0.176 C 
BRANCH   7   8
ATOM      8  O   UNL d   1      13.331  -5.823   1.046  0.00  0.00    -0.348 OA
BRANCH   8   9
ATOM      9  C   UNL d   1      14.157  -6.915   1.168  0.00  0.00     0.107 A 
ATOM     10  C   UNL d   1      15.283  -6.764   1.987  0.00  0.00     0.040 A 
ATOM     11  C   UNL d   1      16.187  -7.823   2.160  0.00  0.00     0.003 A 
ATOM     12  C   UNL d   1      15.987  -9.032   1.495  0.00  0.00     0.003 A 
ATOM     13  C   UNL d   1      14.892  -9.176   0.647  0.00  0.00     0.045 A 
ATOM     14  C   UNL d   1      13.992  -8.123   0.483  0.00  0.00     0.149 A 
ATOM     15  F   UNL d   1      12.986  -8.304  -0.382  0.00  0.00    -0.203 F 
ENDBRANCH   8   9
ENDBRANCH   7   8
ENDBRANCH   6   7
ENDBRANCH   5   6
ENDBRANCH   2   5
BRANCH   1  16
ATOM     16  N   UNL d   1       6.664  -2.583   0.460  0.00  0.00    -0.249 N 
ATOM     17  C   UNL d   1       5.280  -2.660   0.471  0.00  0.00     0.334 C 
ATOM     18  N   UNL d   1       4.628  -1.460   0.260  0.00  0.00    -0.341 N 
ATOM     19  O   UNL d   1       4.685  -3.723   0.655  0.00  0.00    -0.246 OA
ATOM     20  H   UNL d   1       5.170  -0.620   0.119  0.00  0.00     0.164 HD
ATOM     21  H   UNL d   1       7.187  -1.722   0.325  0.00  0.00     0.192 HD
BRANCH  18  22
ATOM     22  C   UNL d   1       3.161  -1.363   0.266  0.00  0.00     0.128 C 
BRANCH  22  23
ATOM     23  C   UNL d   1       2.603   0.064   0.054  0.00  0.00    -0.005 C 
ATOM     24  C   UNL d   1       1.065   0.064   0.028  0.00  0.00     0.011 C 
ATOM     25  C   UNL d   1       3.071   1.013   1.157  0.00  0.00     0.011 C 
ENDBRANCH  22  23
ENDBRANCH  18  22
ENDBRANCH   1  16
TORSDOF 8
