@<TRIPOS>MOLECULE
*****
 53 55 0 0 0
SMALL
GASTEIGER

@<TRIPOS>ATOM
      1 C           1.0956    0.0523    0.0367 C.2     1  UNL1       -0.0995
      2 C           2.4358    0.0365    0.0000 C.2     1  UNL1       -0.0542
      3 C           3.2121   -0.0822   -1.2786 C.3     1  UNL1        0.1076
      4 O           4.6086   -0.1616   -0.9717 O.3     1  UNL1       -0.4880
      5 C           5.4486   -0.1354   -2.0530 C.ar    1  UNL1        0.1210
      6 C           6.6220   -0.8862   -1.9596 C.ar    1  UNL1       -0.0193
      7 C           7.5792   -0.8426   -2.9856 C.ar    1  UNL1       -0.0475
      8 C           7.3264   -0.1126   -4.1580 C.ar    1  UNL1        0.0224
      9 C           8.2302   -0.2706   -5.3309 C.2     1  UNL1        0.1950
     10 O           9.1370   -1.1013   -5.2930 O.2     1  UNL1       -0.2868
     11 C           8.0465    0.5444   -6.5561 C.2     1  UNL1        0.0711
     12 C           8.0601   -0.0161   -7.7740 C.2     1  UNL1        0.1883
     13 O           8.1450   -1.3189   -8.1694 O.2     1  UNL1       -0.5020
     14 C           7.9565    1.0767   -8.7602 C.2     1  UNL1        0.2823
     15 O           7.8860    0.8916   -9.9536 O.2     1  UNL1       -0.2666
     16 N           7.9488    2.2746   -8.0567 N.am    1  UNL1       -0.2836
     17 C           7.7876    3.5894   -8.6856 C.3     1  UNL1        0.0181
     18 C           7.7275    3.5750  -10.2082 C.3     1  UNL1       -0.0138
     19 C           7.6291    4.9632  -10.8046 C.3     1  UNL1        0.0456
     20 O           7.5895    4.8719  -12.2226 O.3     1  UNL1       -0.3950
     21 C           8.0062    2.0585   -6.6067 C.3     1  UNL1        0.0841
     22 C           9.1633    2.7794   -5.9244 C.ar    1  UNL1       -0.0221
     23 C           9.2494    4.1832   -5.9386 C.ar    1  UNL1       -0.0530
     24 C          10.3887    4.8411   -5.4628 C.ar    1  UNL1       -0.0199
     25 C          11.3758    4.1148   -4.8115 C.ar    1  UNL1        0.1169
     26 O          12.4640    4.7063   -4.2514 O.3     1  UNL1       -0.5068
     27 C          11.2754    2.7450   -4.6956 C.ar    1  UNL1       -0.0199
     28 C          10.1947    2.0895   -5.2690 C.ar    1  UNL1       -0.0530
     29 C           6.1599    0.6459   -4.2303 C.ar    1  UNL1       -0.0475
     30 C           5.2404    0.6518   -3.1809 C.ar    1  UNL1       -0.0193
     31 H           0.5601    0.1447    0.9767 H       1  UNL1        0.0533
     32 H           0.5029   -0.0245   -0.8705 H       1  UNL1        0.0533
     33 H           2.9963    0.1287    0.9272 H       1  UNL1        0.0600
     34 H           2.9740    0.7970   -1.8854 H       1  UNL1        0.0742
     35 H           2.9191   -0.9979   -1.8043 H       1  UNL1        0.0742
     36 H           6.7845   -1.5290   -1.0964 H       1  UNL1        0.0654
     37 H           8.5077   -1.4014   -2.8657 H       1  UNL1        0.0626
     38 H           8.3387   -1.8827   -7.4022 H       1  UNL1        0.2924
     39 H           8.6521    4.1974   -8.4101 H       1  UNL1        0.0466
     40 H           6.8878    4.0590   -8.2690 H       1  UNL1        0.0466
     41 H           6.8704    2.9836  -10.5499 H       1  UNL1        0.0302
     42 H           8.6313    3.0945  -10.6042 H       1  UNL1        0.0302
     43 H           8.4895    5.5771  -10.5239 H       1  UNL1        0.0557
     44 H           6.7153    5.4613  -10.4695 H       1  UNL1        0.0557
     45 H           8.3650    4.3548  -12.5068 H       1  UNL1        0.2094
     46 H           7.0667    2.4449   -6.2005 H       1  UNL1        0.0603
     47 H           8.4483    4.7886   -6.3575 H       1  UNL1        0.0622
     48 H          10.4929    5.9090   -5.6243 H       1  UNL1        0.0654
     49 H          12.3534    5.6681   -4.3017 H       1  UNL1        0.2921
     50 H          12.0412    2.1650   -4.1903 H       1  UNL1        0.0654
     51 H          10.2219    1.0130   -5.1797 H       1  UNL1        0.0622
     52 H           5.9053    1.2346   -5.0987 H       1  UNL1        0.0626
     53 H           4.3697    1.2877   -3.2878 H       1  UNL1        0.0654
@<TRIPOS>BOND
     1     1     2    2
     2     2     3    1
     3     3     4    1
     4     4     5    1
     5     5     6   ar
     6     6     7   ar
     7     7     8   ar
     8     8     9    1
     9     9    10    2
    10     9    11    1
    11    11    12    2
    12    12    13    1
    13    12    14    1
    14    14    15    2
    15    14    16   am
    16    16    17    1
    17    17    18    1
    18    18    19    1
    19    19    20    1
    20    16    21    1
    21    11    21    1
    22    22    23   ar
    23    23    24   ar
    24    24    25   ar
    25    25    26    1
    26    25    27   ar
    27    27    28   ar
    28    22    28   ar
    29     8    29   ar
    30    29    30   ar
    31     5    30   ar
    32    21    22    1
    33     1    31    1
    34     1    32    1
    35     2    33    1
    36     3    34    1
    37     3    35    1
    38     6    36    1
    39     7    37    1
    40    13    38    1
    41    17    39    1
    42    17    40    1
    43    18    41    1
    44    18    42    1
    45    19    43    1
    46    19    44    1
    47    20    45    1
    48    21    46    1
    49    23    47    1
    50    24    48    1
    51    26    49    1
    52    27    50    1
    53    28    51    1
    54    29    52    1
    55    30    53    1
