@<TRIPOS>MOLECULE
*****
 46 48 0 0 0
SMALL
GASTEIGER

@<TRIPOS>ATOM
      1 O           0.9545    0.0841    0.1717 O.2     1  UNL1       -0.2749
      2 C           2.1692    0.0223   -0.0077 C.2     1  UNL1        0.2229
      3 C           2.8697   -0.8254   -1.0730 C.3     1  UNL1        0.0706
      4 S           1.6211   -1.6168   -2.1357 S.3     1  UNL1       -0.1437
      5 C           2.6508   -2.5519   -3.3071 C.3     1  UNL1        0.0522
      6 C           1.7568   -3.3118   -4.2379 C.ar    1  UNL1        0.1181
      7 N           1.7499   -4.6160   -4.4331 N.ar    1  UNL1       -0.2316
      8 C           0.7585   -4.8494   -5.3555 C.ar    1  UNL1        0.0891
      9 C           0.3336   -6.0576   -5.9252 C.ar    1  UNL1       -0.0342
     10 C          -0.6935   -6.0288   -6.8769 C.ar    1  UNL1       -0.0596
     11 C          -1.3008   -4.8230   -7.2367 C.ar    1  UNL1       -0.0597
     12 C          -0.9000   -3.6073   -6.6680 C.ar    1  UNL1       -0.0363
     13 C           0.1425   -3.6640   -5.7388 C.ar    1  UNL1        0.0662
     14 N           0.7960   -2.7001   -5.0154 N.ar    1  UNL1       -0.3411
     15 N           2.9655    0.7723    0.8046 N.am    1  UNL1       -0.3131
     16 C           4.4197    0.8358    0.7870 C.3     1  UNL1        0.0271
     17 C           4.9015    1.7619    1.8873 C.3     1  UNL1        0.0249
     18 N           6.3332    1.8363    2.0634 N.pl3   1  UNL1       -0.3371
     19 C           6.9548    2.3421    3.2084 C.ar    1  UNL1        0.1054
     20 C           8.2019    2.9812    2.9227 C.ar    1  UNL1       -0.0342
     21 C           9.0536    3.4870    3.9127 C.ar    1  UNL1       -0.0596
     22 C           8.6655    3.4315    5.2349 C.ar    1  UNL1       -0.0552
     23 C           7.4452    2.8551    5.5545 C.ar    1  UNL1        0.0175
     24 C           6.5702    2.3133    4.5787 C.ar    1  UNL1        0.2937
     25 N           5.3446    1.7192    5.1946 N.pl3   1  UNL1        0.0815
     26 O           5.1673    1.9298    6.4127 O.2     1  UNL1        0.0415
     27 O           4.5670    1.0260    4.5633 O.co2   1  UNL1       -0.5760
     28 H           3.4877   -1.5764   -0.5675 H       1  UNL1        0.0471
     29 H           3.5074   -0.1690   -1.6736 H       1  UNL1        0.0471
     30 H           3.2954   -3.2554   -2.7690 H       1  UNL1        0.0456
     31 H           3.2853   -1.8710   -3.8844 H       1  UNL1        0.0456
     32 H           0.8054   -6.9888   -5.6340 H       1  UNL1        0.0639
     33 H          -1.0181   -6.9576   -7.3395 H       1  UNL1        0.0618
     34 H          -2.1006   -4.8297   -7.9749 H       1  UNL1        0.0618
     35 H          -1.3750   -2.6731   -6.9475 H       1  UNL1        0.0639
     36 H           0.5898   -1.7112   -5.0199 H       1  UNL1        0.1671
     37 H           2.4456    1.2189    1.5590 H       1  UNL1        0.1488
     38 H           4.7581    1.1485   -0.2010 H       1  UNL1        0.0477
     39 H           4.7827   -0.1818    0.9807 H       1  UNL1        0.0477
     40 H           4.4370    1.2691    2.7036 H       1  UNL1        0.0476
     41 H           4.4689    2.7652    1.8323 H       1  UNL1        0.0476
     42 H           6.9039    1.1817    1.5297 H       1  UNL1        0.1463
     43 H           8.5176    3.1204    1.8857 H       1  UNL1        0.0638
     44 H          10.0180    3.9186    3.6544 H       1  UNL1        0.0618
     45 H           9.2925    3.8322    6.0261 H       1  UNL1        0.0620
     46 H           7.1885    2.8130    6.6128 H       1  UNL1        0.0686
@<TRIPOS>UNITY_ATOM_ATTR
25 1
charge 1
27 1
charge -1
@<TRIPOS>BOND
     1     1     2    2
     2     2     3    1
     3     3     4    1
     4     4     5    1
     5     5     6    1
     6     6     7   ar
     7     7     8   ar
     8     8     9   ar
     9     9    10   ar
    10    10    11   ar
    11    11    12   ar
    12    12    13   ar
    13     8    13   ar
    14    13    14   ar
    15     6    14   ar
    16     2    15   am
    17    15    16    1
    18    16    17    1
    19    17    18    1
    20    18    19    1
    21    19    20   ar
    22    20    21   ar
    23    21    22   ar
    24    22    23   ar
    25    23    24   ar
    26    19    24   ar
    27    24    25    1
    28    25    26    2
    29    25    27    1
    30     3    28    1
    31     3    29    1
    32     5    30    1
    33     5    31    1
    34     9    32    1
    35    10    33    1
    36    11    34    1
    37    12    35    1
    38    14    36    1
    39    15    37    1
    40    16    38    1
    41    16    39    1
    42    17    40    1
    43    17    41    1
    44    18    42    1
    45    20    43    1
    46    21    44    1
    47    22    45    1
    48    23    46    1
