REMARK  3 active torsions:
REMARK  status: ('A' for Active; 'I' for Inactive)
REMARK       I    between atoms: N_1  and  C_2 
REMARK    1  A    between atoms: C_2  and  C_4 
REMARK    2  A    between atoms: C_6  and  N_7 
REMARK       I    between atoms: N_7  and  C_8 
REMARK    3  A    between atoms: C_8  and  C_10 
ROOT
ATOM      1  C   UNL d   1       3.102   0.695   1.167  0.00  0.00     0.072 A 
ATOM      2  C   UNL d   1       2.815   0.583   2.553  0.00  0.00     0.053 A 
ATOM      3  C   UNL d   1       3.551   1.338   3.501  0.00  0.00     0.075 A 
ATOM      4  C   UNL d   1       4.554   2.188   2.990  0.00  0.00     0.146 A 
ATOM      5  F   UNL d   1       5.325   2.966   3.747  0.00  0.00    -0.204 F 
ATOM      6  C   UNL d   1       4.832   2.292   1.637  0.00  0.00     0.088 A 
ATOM      7  C   UNL d   1       4.117   1.543   0.730  0.00  0.00     0.135 A 
ATOM      8  F   UNL d   1       4.407   1.692  -0.569  0.00  0.00    -0.205 F 
ENDROOT
BRANCH   3   9
ATOM      9  N   UNL d   1       3.247   1.210   4.901  0.00  0.00    -0.319 N 
ATOM     10  C   UNL d   1       3.857   1.935   5.935  0.00  0.00     0.274 C 
ATOM     11  O   UNL d   1       4.762   2.758   5.836  0.00  0.00    -0.266 OA
ATOM     12  H   UNL d   1       2.488   0.587   5.151  0.00  0.00     0.169 HD
BRANCH  10  13
ATOM     13  C   UNL d   1       3.398   1.724   7.334  0.00  0.00     0.126 A 
ATOM     14  C   UNL d   1       3.280   0.458   7.867  0.00  0.00     0.061 A 
ATOM     15  C   UNL d   1       2.993   0.378   9.226  0.00  0.00     0.037 A 
ATOM     16 CL   UNL d   1       2.816  -1.168   9.961  0.00  0.00    -0.084 Cl
ATOM     17  C   UNL d   1       2.856   1.522  10.006  0.00  0.00     0.043 A 
ATOM     18  C   UNL d   1       3.018   2.742   9.387  0.00  0.00     0.119 A 
ATOM     19  N   UNL d   1       3.271   2.863   8.073  0.00  0.00    -0.255 NA
ENDBRANCH  10  13
ENDBRANCH   3   9
BRANCH   1  20
ATOM     20  C   UNL d   1       2.382  -0.067   0.121  0.00  0.00     0.252 C 
ATOM     21  N   UNL d   1       1.018  -0.093   0.189  0.00  0.00    -0.366 N 
ATOM     22  H   UNL d   1       0.545  -0.491  -0.616  0.00  0.00     0.159 HD
ATOM     23  H   UNL d   1       0.476   0.485   0.812  0.00  0.00     0.159 HD
ATOM     24  O   UNL d   1       2.975  -0.625  -0.793  0.00  0.00    -0.268 OA
ENDBRANCH   1  20
TORSDOF 3
