@<TRIPOS>MOLECULE
*****
 49 51 0 0 0
SMALL
GASTEIGER

@<TRIPOS>ATOM
      1 C           1.0767   -0.0549    0.0615 C.3     1  UNL1        0.0788
      2 O           2.4984   -0.1837    0.0708 O.3     1  UNL1       -0.4944
      3 C           3.1197    0.8117    0.7766 C.ar    1  UNL1        0.1323
      4 C           2.8204    1.0544    2.1277 C.ar    1  UNL1       -0.0178
      5 C           3.4852    2.0583    2.8445 C.ar    1  UNL1       -0.0399
      6 C           4.4624    2.8194    2.2193 C.ar    1  UNL1        0.0419
      7 CL          5.2585    4.0770    3.0836 Cl      1  UNL1       -0.0835
      8 C           4.7942    2.5577    0.8946 C.ar    1  UNL1       -0.0277
      9 C           4.1353    1.5391    0.1572 C.ar    1  UNL1        0.0800
     10 C           4.5780    1.3397   -1.2510 C.2     1  UNL1        0.2531
     11 O           5.4922    2.1016   -1.5897 O.2     1  UNL1       -0.2697
     12 N           4.0130    0.3558   -2.0906 N.am    1  UNL1       -0.2635
     13 C           4.3122    0.1849   -3.4606 C.2     1  UNL1        0.1411
     14 S           5.3500    1.2368   -4.2952 S.2     1  UNL1       -0.0182
     15 N           3.6421   -0.8984   -4.0923 N.am    1  UNL1       -0.2966
     16 C           3.9135   -1.2846   -5.4551 C.ar    1  UNL1        0.0335
     17 C           2.9204   -1.5392   -6.3969 C.ar    1  UNL1       -0.0370
     18 C           3.2866   -1.8585   -7.7279 C.ar    1  UNL1       -0.0175
     19 C           4.6350   -1.8812   -8.1593 C.ar    1  UNL1        0.1308
     20 O           4.7720   -2.1997   -9.4912 O.3     1  UNL1       -0.4944
     21 C           6.0719   -2.1184  -10.0639 C.3     1  UNL1        0.0788
     22 C           5.6358   -1.6507   -7.2058 C.ar    1  UNL1        0.0606
     23 C           7.0704   -1.8405   -7.3831 C.ar    1  UNL1        0.1389
     24 C           7.9067   -2.7952   -6.8503 C.ar    1  UNL1       -0.0154
     25 C           9.1562   -2.6235   -7.4692 C.ar    1  UNL1       -0.0178
     26 C           9.0374   -1.5479   -8.3255 C.ar    1  UNL1        0.1310
     27 C           9.9738   -0.9525   -9.3144 C.3     1  UNL1        0.1019
     28 O          11.2388   -1.5971   -9.1539 O.3     1  UNL1       -0.3873
     29 O           7.7817   -1.0053   -8.2052 O.2     1  UNL1       -0.4573
     30 C           5.2418   -1.4155   -5.8743 C.ar    1  UNL1       -0.0263
     31 H           0.6977   -0.7832   -0.6614 H       1  UNL1        0.0660
     32 H           0.7659    0.9420   -0.2715 H       1  UNL1        0.0660
     33 H           0.6500   -0.2956    1.0383 H       1  UNL1        0.0660
     34 H           2.0841    0.4524    2.6520 H       1  UNL1        0.0655
     35 H           3.2432    2.2378    3.8897 H       1  UNL1        0.0633
     36 H           5.5801    3.1553    0.4290 H       1  UNL1        0.0641
     37 H           3.3217   -0.2472   -1.6578 H       1  UNL1        0.1568
     38 H           2.7878   -1.2663   -3.6903 H       1  UNL1        0.1538
     39 H           1.8650   -1.4290   -6.1616 H       1  UNL1        0.0637
     40 H           2.5048   -2.0957   -8.4515 H       1  UNL1        0.0655
     41 H           6.0336   -2.3381  -11.1332 H       1  UNL1        0.0660
     42 H           6.7291   -2.8781   -9.6294 H       1  UNL1        0.0660
     43 H           6.4595   -1.0984   -9.9893 H       1  UNL1        0.0660
     44 H           7.6048   -3.5601   -6.1517 H       1  UNL1        0.0655
     45 H          10.0362   -3.2354   -7.3475 H       1  UNL1        0.0653
     46 H          10.1118    0.1197   -9.1607 H       1  UNL1        0.0638
     47 H           9.6453   -1.1284  -10.3444 H       1  UNL1        0.0638
     48 H          11.4873   -1.4800   -8.2207 H       1  UNL1        0.2100
     49 H           6.0311   -1.3263   -5.1302 H       1  UNL1        0.0644
@<TRIPOS>BOND
     1     1     2    1
     2     2     3    1
     3     3     4   ar
     4     4     5   ar
     5     5     6   ar
     6     6     7    1
     7     6     8   ar
     8     8     9   ar
     9     3     9   ar
    10     9    10    1
    11    10    11    2
    12    10    12   am
    13    12    13    1
    14    13    14    2
    15    13    15    1
    16    15    16    1
    17    16    17   ar
    18    17    18   ar
    19    18    19   ar
    20    19    20    1
    21    20    21    1
    22    19    22   ar
    23    22    23    1
    24    23    24   ar
    25    24    25   ar
    26    25    26   ar
    27    26    27    1
    28    27    28    1
    29    26    29   ar
    30    23    29   ar
    31    22    30   ar
    32    16    30   ar
    33     1    31    1
    34     1    32    1
    35     1    33    1
    36     4    34    1
    37     5    35    1
    38     8    36    1
    39    12    37    1
    40    15    38    1
    41    17    39    1
    42    18    40    1
    43    21    41    1
    44    21    42    1
    45    21    43    1
    46    24    44    1
    47    25    45    1
    48    27    46    1
    49    27    47    1
    50    28    48    1
    51    30    49    1
