REMARK  6 active torsions:
REMARK  status: ('A' for Active; 'I' for Inactive)
REMARK    1  A    between atoms: C_9  and  C_10 
REMARK    2  A    between atoms: C_10  and  C_11 
REMARK    3  A    between atoms: C_11  and  C_12 
REMARK       I    between atoms: C_12  and  N_14 
REMARK    4  A    between atoms: N_14  and  C_15 
REMARK    5  A    between atoms: C_15  and  C_16 
REMARK    6  A    between atoms: C_19  and  O_20 
ROOT
ATOM      1  C   UNL d   1       1.032  -2.616   0.040  0.00  0.00     0.107 C 
ENDROOT
BRANCH   1   2
ATOM      2  C   UNL d   1       2.550  -2.599   0.048  0.00  0.00     0.055 C 
BRANCH   2   3
ATOM      3  C   UNL d   1       3.175  -1.207   0.056  0.00  0.00     0.033 A 
ATOM      4  C   UNL d   1       4.681  -1.210   0.061  0.00  0.00     0.257 A 
ATOM      5  N   UNL d   1       5.301   0.007   0.062  0.00  0.00    -0.275 N 
ATOM      6  O   UNL d   1       5.330  -2.252   0.064  0.00  0.00    -0.267 OA
ATOM      7  C   UNL d   1       4.666   1.206   0.059  0.00  0.00     0.327 A 
ATOM      8  H   UNL d   1       6.309   0.021   0.065  0.00  0.00     0.173 HD
ATOM      9  N   UNL d   1       3.309   1.153   0.059  0.00  0.00    -0.312 N 
ATOM     10  O   UNL d   1       5.265   2.278   0.057  0.00  0.00    -0.247 OA
ATOM     11  C   UNL d   1       2.565   0.001   0.058  0.00  0.00     0.021 A 
ATOM     12  H   UNL d   1       2.849   2.056   0.059  0.00  0.00     0.170 HD
ATOM     13  C   UNL d   1       1.081   0.255   0.059  0.00  0.00     0.069 C 
ENDBRANCH   2   3
ENDBRANCH   1   2
BRANCH   1  14
ATOM     14  C   UNL d   1       0.362  -3.952   0.033  0.00  0.00     0.218 C 
ATOM     15  O   UNL d   1       0.951  -5.022   0.031  0.00  0.00    -0.274 OA
ATOM     16  N   UNL d   1      -1.011  -3.808   0.027  0.00  0.00    -0.357 N 
ATOM     17  H   UNL d   1      -1.408  -2.881   0.036  0.00  0.00     0.162 HD
BRANCH  16  18
ATOM     18  C   UNL d   1      -1.862  -4.967   0.019  0.00  0.00     0.161 C 
BRANCH  18  19
ATOM     19  C   UNL d   1      -3.348  -4.694   0.015  0.00  0.00    -0.040 A 
ATOM     20  C   UNL d   1      -4.219  -5.800   0.021  0.00  0.00     0.011 A 
ATOM     21  C   UNL d   1      -5.608  -5.627   0.017  0.00  0.00     0.037 A 
ATOM     22  C   UNL d   1      -6.135  -4.342   0.011  0.00  0.00     0.065 A 
ATOM     23  C   UNL d   1      -5.299  -3.236   0.004  0.00  0.00     0.037 A 
ATOM     24  C   UNL d   1      -3.915  -3.411   0.004  0.00  0.00     0.011 A 
BRANCH  22  25
ATOM     25  O   UNL d   1      -7.478  -4.114   0.011  0.00  0.00    -0.361 OA
ATOM     26  H   UNL d   1      -7.939  -4.968   0.017  0.00  0.00     0.217 HD
ENDBRANCH  22  25
ENDBRANCH  18  19
ENDBRANCH  16  18
ENDBRANCH   1  14
TORSDOF 6
