@<TRIPOS>MOLECULE
*****
 44 44 0 0 0
SMALL
GASTEIGER

@<TRIPOS>ATOM
      1 C           2.4925   -0.0062   -0.0131 C.3     1  UNL1       -0.0396
      2 C           0.9932   -0.0047    0.0019 C.ar    1  UNL1       -0.0470
      3 C           0.2661   -1.1969    0.0037 C.ar    1  UNL1       -0.0586
      4 C          -1.1278   -1.1609   -0.0006 C.ar    1  UNL1       -0.0581
      5 C          -1.8003    0.0683   -0.0053 C.ar    1  UNL1       -0.0199
      6 C          -1.0868    1.2724    0.0026 C.ar    1  UNL1        0.1207
      7 O          -1.8317    2.4292    0.0068 O.3     1  UNL1       -0.4919
      8 C          -1.0952    3.6658    0.0277 C.3     1  UNL1        0.0900
      9 C          -2.0636    4.8560    0.0402 C.3     1  UNL1       -0.0103
     10 C          -1.3578    6.2317    0.0580 C.3     1  UNL1        0.0285
     11 C          -2.3609    7.4016    0.0699 C.2     1  UNL1        0.2292
     12 O          -3.5803    7.2249    0.0628 O.2     1  UNL1       -0.2743
     13 N          -1.8165    8.6787    0.0901 N.am    1  UNL1       -0.2332
     14 N          -2.6882    9.8225    0.0924 N.am    1  UNL1       -0.2182
     15 C          -2.1382   11.0915    0.1460 C.2     1  UNL1        0.3162
     16 O          -0.9177   11.2574    0.2030 O.2     1  UNL1       -0.2513
     17 N          -3.0473   12.1341    0.0957 N.am    1  UNL1       -0.2959
     18 C          -2.6256   13.5499    0.1108 C.3     1  UNL1        0.0190
     19 C          -1.7788   13.8933   -1.1176 C.3     1  UNL1       -0.0468
     20 C          -3.8071   14.5324    0.1589 C.3     1  UNL1       -0.0468
     21 C           0.3089    1.2214    0.0043 C.ar    1  UNL1       -0.0170
     22 H           2.8951   -1.0234    0.0004 H       1  UNL1        0.0278
     23 H           2.8770    0.5227    0.8650 H       1  UNL1        0.0278
     24 H           2.8551    0.4903   -0.9191 H       1  UNL1        0.0278
     25 H           0.7787   -2.1565    0.0051 H       1  UNL1        0.0620
     26 H          -1.6889   -2.0929   -0.0021 H       1  UNL1        0.0619
     27 H          -2.8875    0.0768   -0.0156 H       1  UNL1        0.0654
     28 H          -0.4664    3.7270   -0.8683 H       1  UNL1        0.0696
     29 H          -0.4732    3.7025    0.9300 H       1  UNL1        0.0696
     30 H          -2.7238    4.7636    0.9116 H       1  UNL1        0.0302
     31 H          -2.7203    4.7843   -0.8357 H       1  UNL1        0.0302
     32 H          -0.7150    6.3204   -0.8263 H       1  UNL1        0.0360
     33 H          -0.7188    6.2996    0.9468 H       1  UNL1        0.0360
     34 H          -0.8183    8.8852    0.0920 H       1  UNL1        0.1728
     35 H          -3.6848    9.6257    0.0902 H       1  UNL1        0.1744
     36 H          -4.0362   11.9296    0.1164 H       1  UNL1        0.1505
     37 H          -2.0197   13.7003    1.0135 H       1  UNL1        0.0493
     38 H          -2.3563   13.7500   -2.0371 H       1  UNL1        0.0247
     39 H          -0.8876   13.2655   -1.1849 H       1  UNL1        0.0247
     40 H          -1.4393   14.9347   -1.0853 H       1  UNL1        0.0247
     41 H          -4.4492   14.4313   -0.7234 H       1  UNL1        0.0247
     42 H          -3.4483   15.5715    0.1796 H       1  UNL1        0.0247
     43 H          -4.4281   14.3845    1.0473 H       1  UNL1        0.0247
     44 H           0.9027    2.1285    0.0044 H       1  UNL1        0.0657
@<TRIPOS>BOND
     1     1     2    1
     2     2     3   ar
     3     3     4   ar
     4     4     5   ar
     5     5     6   ar
     6     6     7    1
     7     7     8    1
     8     8     9    1
     9     9    10    1
    10    10    11    1
    11    11    12    2
    12    11    13   am
    13    13    14    1
    14    14    15   am
    15    15    16    2
    16    15    17   am
    17    17    18    1
    18    18    19    1
    19    18    20    1
    20     6    21   ar
    21     2    21   ar
    22     1    22    1
    23     1    23    1
    24     1    24    1
    25     3    25    1
    26     4    26    1
    27     5    27    1
    28     8    28    1
    29     8    29    1
    30     9    30    1
    31     9    31    1
    32    10    32    1
    33    10    33    1
    34    13    34    1
    35    14    35    1
    36    17    36    1
    37    18    37    1
    38    19    38    1
    39    19    39    1
    40    19    40    1
    41    20    41    1
    42    20    42    1
    43    20    43    1
    44    21    44    1
