REMARK  10 active torsions:
REMARK  status: ('A' for Active; 'I' for Inactive)
REMARK    1  A    between atoms: C_7  and  N_8 
REMARK       I    between atoms: N_8  and  C_9 
REMARK    2  A    between atoms: C_9  and  C_11 
REMARK    3  A    between atoms: C_14  and  C_15 
REMARK    4  A    between atoms: C_15  and  O_16 
REMARK    5  A    between atoms: O_16  and  C_17 
REMARK    6  A    between atoms: C_20  and  C_21 
REMARK       I    between atoms: C_21  and  N_23 
REMARK    7  A    between atoms: N_23  and  C_24 
REMARK    8  A    between atoms: C_24  and  C_25 
REMARK    9  A    between atoms: C_25  and  C_26 
REMARK   10  A    between atoms: C_26  and  N_27 
ROOT
ATOM      1  C   UNL d   1       3.845   9.135   2.235  0.00  0.00     0.069 A 
ATOM      2  C   UNL d   1       4.085  10.184   1.356  0.00  0.00     0.038 A 
ATOM      3  C   UNL d   1       4.189  11.495   1.831  0.00  0.00     0.020 A 
ATOM      4  C   UNL d   1       4.046  11.786   3.192  0.00  0.00     0.032 A 
ATOM      5  C   UNL d   1       3.783  10.719   4.071  0.00  0.00     0.020 A 
ATOM      6  C   UNL d   1       3.675   9.403   3.591  0.00  0.00     0.038 A 
ENDROOT
BRANCH   1   7
ATOM      7  O   UNL d   1       3.680   7.841   1.846  0.00  0.00    -0.345 OA
BRANCH   7   8
ATOM      8  C   UNL d   1       4.530   7.402   0.788  0.00  0.00     0.244 C 
BRANCH   8   9
ATOM      9  C   UNL d   1       4.109   6.042   0.364  0.00  0.00     0.123 A 
ATOM     10  N   UNL d   1       4.753   5.381  -0.573  0.00  0.00    -0.144 NA
ATOM     11  N   UNL d   1       4.143   4.196  -0.854  0.00  0.00    -0.136 NA
ATOM     12  C   UNL d   1       3.061   3.999  -0.123  0.00  0.00     0.189 A 
ATOM     13  S   UNL d   1       2.703   5.242   0.972  0.00  0.00    -0.044 SA
BRANCH  12  14
ATOM     14  C   UNL d   1       2.530   2.671  -0.016  0.00  0.00     0.283 C 
ATOM     15  N   UNL d   1       1.141   2.458   0.014  0.00  0.00    -0.321 N 
ATOM     16  H   UNL d   1       0.561   3.290  -0.009  0.00  0.00     0.169 HD
ATOM     17  O   UNL d   1       3.410   1.815   0.037  0.00  0.00    -0.265 OA
BRANCH  15  18
ATOM     18  C   UNL d   1       0.415   1.204   0.015  0.00  0.00     0.041 A 
ATOM     19  C   UNL d   1      -0.999   1.247   0.006  0.00  0.00     0.030 A 
ATOM     20  C   UNL d   1      -1.776   0.066  -0.005  0.00  0.00     0.002 A 
ATOM     21  C   UNL d   1      -1.168  -1.181   0.001  0.00  0.00     0.001 A 
ATOM     22  C   UNL d   1       0.210  -1.248   0.007  0.00  0.00     0.009 A 
ATOM     23  C   UNL d   1       0.997  -0.082   0.008  0.00  0.00    -0.035 A 
ATOM     24  C   UNL d   1       2.460  -0.353  -0.005  0.00  0.00     0.050 C 
ENDBRANCH  15  18
ENDBRANCH  12  14
ENDBRANCH   8   9
ENDBRANCH   7   8
ENDBRANCH   1   7
BRANCH   4  25
ATOM     25  C   UNL d   1       4.164  13.190   3.731  0.00  0.00     0.251 C 
ATOM     26  O   UNL d   1       4.052  13.403   4.934  0.00  0.00    -0.268 OA
ATOM     27  N   UNL d   1       4.408  14.224   2.827  0.00  0.00    -0.357 N 
ATOM     28  H   UNL d   1       4.482  14.023   1.844  0.00  0.00     0.162 HD
BRANCH  27  29
ATOM     29  C   UNL d   1       4.555  15.603   3.270  0.00  0.00     0.124 C 
BRANCH  29  30
ATOM     30  C   UNL d   1       4.835  16.592   2.115  0.00  0.00     0.047 C 
BRANCH  30  31
ATOM     31  C   UNL d   1       4.989  18.026   2.648  0.00  0.00     0.236 C 
BRANCH  31  32
ATOM     32  N   UNL d   1       5.259  19.064   1.532  0.00  0.00    -0.071 N 
ATOM     33  C   UNL d   1       4.339  20.285   1.697  0.00  0.00     0.235 C 
ATOM     34  C   UNL d   1       4.630  21.344   0.638  0.00  0.00     0.028 C 
ATOM     35  C   UNL d   1       6.085  21.770   0.724  0.00  0.00     0.003 C 
ATOM     36  C   UNL d   1       6.945  20.561   0.391  0.00  0.00     0.028 C 
ATOM     37  C   UNL d   1       6.739  19.467   1.441  0.00  0.00     0.235 C 
ATOM     38  H   UNL d   1       5.011  18.629   0.634  0.00  0.00     0.279 HD
ENDBRANCH  31  32
ENDBRANCH  30  31
ENDBRANCH  29  30
ENDBRANCH  27  29
ENDBRANCH   4  25
TORSDOF 10
