REMARK  5 active torsions:
REMARK  status: ('A' for Active; 'I' for Inactive)
REMARK       I    between atoms: C_2  and  N_3 
REMARK    1  A    between atoms: C_2  and  C_14 
REMARK    2  A    between atoms: N_3  and  N_4 
REMARK    3  A    between atoms: C_5  and  C_6 
REMARK    4  A    between atoms: C_12  and  O_13 
REMARK    5  A    between atoms: C_19  and  O_20 
ROOT
ATOM      1  O   UNL d   1       0.982   0.030   0.034  0.00  0.00    -0.266 OA
ATOM      2  C   UNL d   1       2.212   0.080   0.097  0.00  0.00     0.274 C 
ATOM      3  N   UNL d   1       2.939   0.099   1.292  0.00  0.00    -0.243 N 
ATOM      4  H   UNL d   1       3.950   0.147   1.304  0.00  0.00     0.192 HD
ENDROOT
BRANCH   3   5
ATOM      5  N   UNL d   1       2.239   0.100   2.475  0.00  0.00    -0.183 NA
ATOM      6  C   UNL d   1       2.885   0.156   3.595  0.00  0.00     0.153 C 
BRANCH   6   7
ATOM      7  C   UNL d   1       2.163   0.151   4.900  0.00  0.00     0.018 A 
ATOM      8  C   UNL d   1       2.587   1.014   5.921  0.00  0.00     0.039 A 
ATOM      9  C   UNL d   1       1.893   1.041   7.138  0.00  0.00     0.035 A 
ATOM     10 CL   UNL d   1       2.393   2.111   8.393  0.00  0.00    -0.084 Cl
ATOM     11  C   UNL d   1       0.791   0.214   7.352  0.00  0.00     0.026 A 
ATOM     12  C   UNL d   1       0.378  -0.659   6.346  0.00  0.00     0.039 A 
ATOM     13  C   UNL d   1       1.070  -0.696   5.131  0.00  0.00     0.077 A 
BRANCH  13  14
ATOM     14  O   UNL d   1       0.711  -1.621   4.194  0.00  0.00    -0.360 OA
ATOM     15  H   UNL d   1      -0.133  -2.034   4.433  0.00  0.00     0.217 HD
ENDBRANCH  13  14
ENDBRANCH   6   7
ENDBRANCH   3   5
BRANCH   2  16
ATOM     16  C   UNL d   1       2.997   0.104  -1.175  0.00  0.00     0.066 A 
ATOM     17  C   UNL d   1       4.083  -0.765  -1.364  0.00  0.00     0.020 A 
ATOM     18  C   UNL d   1       4.776  -0.777  -2.583  0.00  0.00     0.001 A 
ATOM     19  C   UNL d   1       4.393   0.071  -3.622  0.00  0.00     0.003 A 
ATOM     20  C   UNL d   1       3.304   0.927  -3.454  0.00  0.00     0.037 A 
ATOM     21  C   UNL d   1       2.608   0.938  -2.239  0.00  0.00     0.081 A 
BRANCH  21  22
ATOM     22  O   UNL d   1       1.562   1.805  -2.084  0.00  0.00    -0.360 OA
ATOM     23  H   UNL d   1       1.329   2.212  -2.932  0.00  0.00     0.217 HD
ENDBRANCH  21  22
ENDBRANCH   2  16
TORSDOF 5
