@<TRIPOS>MOLECULE
*****
 66 69 0 0 0
SMALL
GASTEIGER

@<TRIPOS>ATOM
      1 C          24.6876   -2.4312  -13.9266 C.3     1  UNL1       -0.0108
      2 C          24.1489   -2.9983  -12.6241 C.3     1  UNL1        0.0878
      3 N          23.5890   -1.9896  -11.6296 N.pl3   1  UNL1       -0.3882
      4 C          24.0524   -0.5260  -11.4728 C.3     1  UNL1        0.0878
      5 C          24.5684    0.1480  -12.7366 C.3     1  UNL1       -0.0108
      6 C          23.2241   -2.6285  -10.2669 C.ar    1  UNL1        0.1449
      7 C          23.7975   -3.7726   -9.6735 C.ar    1  UNL1        0.0057
      8 C          23.2791   -4.3798   -8.4507 C.ar    1  UNL1       -0.0283
      9 C          22.1701   -3.8432   -7.7773 C.ar    1  UNL1        0.0895
     10 N          21.5684   -4.3897   -6.5258 N.ar    1  UNL1       -0.1489
     11 N          20.5865   -3.6303   -6.1435 N.ar    1  UNL1       -0.1471
     12 C          20.0679   -4.1493   -5.0801 C.ar    1  UNL1        0.1135
     13 C          18.9859   -3.5616   -4.4786 C.ar    1  UNL1       -0.0277
     14 C          18.4885   -4.1499   -3.3327 C.ar    1  UNL1       -0.0271
     15 C          17.3266   -3.3467   -2.8476 C.3     1  UNL1       -0.0379
     16 C          19.0642   -5.3254   -2.7642 C.ar    1  UNL1        0.0386
     17 N          18.4563   -5.9150   -1.5565 N.am    1  UNL1       -0.2828
     18 C          17.4769   -5.3642   -0.6970 C.2     1  UNL1        0.2506
     19 O          17.1400   -4.1661   -0.6460 O.2     1  UNL1       -0.2722
     20 C          16.6796   -6.1519    0.3553 C.3     1  UNL1        0.1592
     21 O          15.2610   -5.8455    0.3233 O.3     1  UNL1       -0.3659
     22 C          14.6315   -5.9436   -0.9545 C.3     1  UNL1        0.0379
     23 C          16.9309   -7.6195    0.4640 C.ar    1  UNL1       -0.0099
     24 C          18.2375   -8.0906    0.6298 C.ar    1  UNL1       -0.0529
     25 C          18.4778   -9.4528    0.5859 C.ar    1  UNL1       -0.0261
     26 C          17.4064  -10.3322    0.4601 C.ar    1  UNL1        0.1234
     27 F          17.6421  -11.6461    0.4152 F       1  UNL1       -0.2055
     28 C          16.0976   -9.8817    0.3969 C.ar    1  UNL1       -0.0261
     29 C          15.8606   -8.5236    0.4262 C.ar    1  UNL1       -0.0529
     30 C          20.2396   -5.9690   -3.4503 C.ar    1  UNL1       -0.0109
     31 C          20.7646   -5.3249   -4.6824 C.ar    1  UNL1        0.1149
     32 N          21.7751   -5.4898   -5.6525 N.ar    1  UNL1       -0.1470
     33 C          21.5974   -2.6451   -8.3944 C.ar    1  UNL1       -0.0173
     34 C          20.3889   -1.8128   -7.9483 C.3     1  UNL1       -0.0374
     35 C          22.1358   -2.0880   -9.6006 C.ar    1  UNL1        0.0086
     36 H          24.8907   -3.2093  -14.6671 H       1  UNL1        0.0289
     37 H          25.6530   -1.9470  -13.7651 H       1  UNL1        0.0289
     38 H          23.9712   -1.7600  -14.4047 H       1  UNL1        0.0289
     39 H          24.9177   -3.6106  -12.1520 H       1  UNL1        0.0965
     40 H          23.2892   -3.6291  -12.8824 H       1  UNL1        0.0965
     41 H          22.6569   -1.8418  -12.0369 H       1  UNL1        0.3743
     42 H          24.7668   -0.4405  -10.6498 H       1  UNL1        0.0965
     43 H          23.1420    0.0284  -11.2066 H       1  UNL1        0.0965
     44 H          25.5775   -0.1930  -12.9731 H       1  UNL1        0.0289
     45 H          24.6575    1.2341  -12.6362 H       1  UNL1        0.0289
     46 H          23.8824    0.0027  -13.5746 H       1  UNL1        0.0289
     47 H          24.6572   -4.2588  -10.1311 H       1  UNL1        0.0682
     48 H          23.7730   -5.2747   -8.0700 H       1  UNL1        0.0641
     49 H          18.5589   -2.6659   -4.9065 H       1  UNL1        0.0643
     50 H          17.0275   -2.5244   -3.5006 H       1  UNL1        0.0278
     51 H          17.6552   -2.8122   -1.9549 H       1  UNL1        0.0278
     52 H          16.4497   -3.9928   -2.7841 H       1  UNL1        0.0278
     53 H          18.8472   -6.8104   -1.2912 H       1  UNL1        0.1549
     54 H          17.0135   -5.7158    1.3122 H       1  UNL1        0.0744
     55 H          13.5622   -5.7481   -0.8253 H       1  UNL1        0.0524
     56 H          14.7410   -6.9420   -1.3845 H       1  UNL1        0.0524
     57 H          15.0156   -5.2128   -1.6651 H       1  UNL1        0.0524
     58 H          19.0688   -7.3983    0.7618 H       1  UNL1        0.0622
     59 H          19.4910   -9.8312    0.6457 H       1  UNL1        0.0646
     60 H          15.2650  -10.5701    0.3187 H       1  UNL1        0.0646
     61 H          14.8289   -8.1764    0.4059 H       1  UNL1        0.0622
     62 H          20.7031   -6.8723   -3.0608 H       1  UNL1        0.0659
     63 H          19.8339   -2.0512   -7.0528 H       1  UNL1        0.0278
     64 H          19.6233   -1.8479   -8.7301 H       1  UNL1        0.0278
     65 H          20.7095   -0.7813   -7.7704 H       1  UNL1        0.0278
     66 H          21.6408   -1.2040  -10.0048 H       1  UNL1        0.0684
@<TRIPOS>UNITY_ATOM_ATTR
3 1
charge 1
@<TRIPOS>BOND
     1     1     2    1
     2     2     3    1
     3     3     4    1
     4     4     5    1
     5     3     6    1
     6     6     7   ar
     7     7     8   ar
     8     8     9   ar
     9     9    10    1
    10    10    11   ar
    11    11    12   ar
    12    12    13   ar
    13    13    14   ar
    14    14    15    1
    15    14    16   ar
    16    16    17    1
    17    17    18   am
    18    18    19    2
    19    21    22    1
    20    20    23    1
    21    23    24   ar
    22    24    25   ar
    23    25    26   ar
    24    26    27    1
    25    26    28   ar
    26    28    29   ar
    27    23    29   ar
    28    16    30   ar
    29    30    31   ar
    30    12    31   ar
    31    31    32   ar
    32    10    32   ar
    33     9    33   ar
    34    33    34    1
    35    33    35   ar
    36     6    35   ar
    37    20    21    1
    38    20    18    1
    39     1    36    1
    40     1    37    1
    41     1    38    1
    42     2    39    1
    43     2    40    1
    44     3    41    1
    45     4    42    1
    46     4    43    1
    47     5    44    1
    48     5    45    1
    49     5    46    1
    50     7    47    1
    51     8    48    1
    52    13    49    1
    53    15    50    1
    54    15    51    1
    55    15    52    1
    56    17    53    1
    57    20    54    1
    58    22    55    1
    59    22    56    1
    60    22    57    1
    61    24    58    1
    62    25    59    1
    63    28    60    1
    64    29    61    1
    65    30    62    1
    66    34    63    1
    67    34    64    1
    68    34    65    1
    69    35    66    1
