REMARK  11 active torsions:
REMARK  status: ('A' for Active; 'I' for Inactive)
REMARK    1  A    between atoms: C_2  and  C_3 
REMARK    2  A    between atoms: C_6  and  C_7 
REMARK    3  A    between atoms: C_7  and  N_8 
REMARK    4  A    between atoms: N_8  and  C_9 
REMARK    5  A    between atoms: C_11  and  C_12 
REMARK       I    between atoms: C_12  and  N_14 
REMARK    6  A    between atoms: N_14  and  C_15 
REMARK    7  A    between atoms: C_15  and  C_16 
REMARK    8  A    between atoms: C_16  and  N_17 
REMARK       I    between atoms: N_17  and  C_18 
REMARK    9  A    between atoms: C_22  and  S_23 
REMARK   10  A    between atoms: S_23  and  N_26 
REMARK   11  A    between atoms: N_26  and  C_27 
ROOT
ATOM      1  C   UNL d   1       4.557   3.024  -6.478  0.00  0.00     0.030 C 
ATOM      2  C   UNL d   1       5.304   4.162  -6.852  0.00  0.00     0.046 C 
ATOM      3  C   UNL d   1       5.562   4.473  -8.195  0.00  0.00     0.035 C 
ATOM      4  C   UNL d   1       5.110   3.586  -9.154  0.00  0.00     0.042 C 
ATOM      5  C   UNL d   1       4.282   2.516  -8.781  0.00  0.00     0.083 C 
ATOM      6  C   UNL d   1       4.037   2.206  -7.462  0.00  0.00     0.054 C 
ENDROOT
BRANCH   5   7
ATOM      7  S   UNL d   1       3.783   1.478 -10.092  0.00  0.00     0.263 S 
ATOM      8  O   UNL d   1       2.933   2.286 -10.951  0.00  0.00    -0.200 OA
ATOM      9  O   UNL d   1       5.091   1.050 -10.518  0.00  0.00    -0.200 OA
BRANCH   7  10
ATOM     10  N   UNL d   1       2.851   0.203  -9.466  0.00  0.00    -0.280 N 
ATOM     11  H   UNL d   1       2.632   0.148  -8.478  0.00  0.00     0.179 HD
BRANCH  10  12
ATOM     12  C   UNL d   1       2.258  -0.803 -10.318  0.00  0.00     0.048 A 
ATOM     13  C   UNL d   1       0.926  -1.208 -10.126  0.00  0.00     0.030 A 
ATOM     14  C   UNL d   1       0.375  -2.245 -10.907  0.00  0.00     0.002 A 
ATOM     15  C   UNL d   1       1.125  -2.849 -11.913  0.00  0.00     0.001 A 
ATOM     16  C   UNL d   1       2.444  -2.478 -12.085  0.00  0.00     0.009 A 
ATOM     17  C   UNL d   1       3.013  -1.488 -11.281  0.00  0.00    -0.035 A 
ATOM     18  C   UNL d   1       4.431  -1.157 -11.565  0.00  0.00     0.050 C 
ENDBRANCH  10  12
ENDBRANCH   7  10
ENDBRANCH   5   7
BRANCH   3  19
ATOM     19  C   UNL d   1       6.206   5.772  -8.565  0.00  0.00     0.251 C 
ATOM     20  O   UNL d   1       6.514   6.569  -7.686  0.00  0.00    -0.268 OA
ATOM     21  N   UNL d   1       6.362   6.059  -9.914  0.00  0.00    -0.355 N 
ATOM     22  H   UNL d   1       6.053   5.417 -10.627  0.00  0.00     0.162 HD
BRANCH  21  23
ATOM     23  C   UNL d   1       6.872   7.348 -10.355  0.00  0.00     0.142 C 
BRANCH  23  24
ATOM     24  C   UNL d   1       6.966   7.447 -11.880  0.00  0.00     0.142 C 
BRANCH  24  25
ATOM     25  N   UNL d   1       7.500   8.707 -12.358  0.00  0.00    -0.360 N 
ATOM     26  C   UNL d   1       7.701   9.064 -13.662  0.00  0.00     0.213 C 
ATOM     27  C   UNL d   1       7.343   8.084 -14.751  0.00  0.00     0.117 C 
ATOM     28  O   UNL d   1       8.167  10.171 -13.925  0.00  0.00    -0.274 OA
ATOM     29  H   UNL d   1       7.769   9.425 -11.693  0.00  0.00     0.162 HD
ENDBRANCH  24  25
ENDBRANCH  23  24
ENDBRANCH  21  23
ENDBRANCH   3  19
BRANCH   1  30
ATOM     30  N   UNL d   1       4.317   2.792  -5.144  0.00  0.00    -0.384 N 
ATOM     31  H   UNL d   1       3.831   3.567  -4.705  0.00  0.00     0.160 HD
BRANCH  30  32
ATOM     32  C   UNL d   1       4.109   1.471  -4.531  0.00  0.00     0.184 C 
BRANCH  32  33
ATOM     33  C   UNL d   1       3.564   1.591  -3.142  0.00  0.00     0.070 A 
ATOM     34  C   UNL d   1       3.133   2.712  -2.462  0.00  0.00     0.037 A 
ATOM     35  C   UNL d   1       2.737   2.296  -1.192  0.00  0.00     0.035 A 
ATOM     36  C   UNL d   1       2.879   0.929  -1.166  0.00  0.00     0.053 A 
ATOM     37  O   UNL d   1       3.401   0.475  -2.352  0.00  0.00    -0.318 OA
BRANCH  36  38
ATOM     38  C   UNL d   1       2.451  -0.012  -0.101  0.00  0.00     0.060 C 
ATOM     39  C   UNL d   1       0.925  -0.017  -0.033  0.00  0.00     0.012 C 
ENDBRANCH  36  38
ENDBRANCH  32  33
ENDBRANCH  30  32
ENDBRANCH   1  30
TORSDOF 11
