REMARK  6 active torsions:
REMARK  status: ('A' for Active; 'I' for Inactive)
REMARK    1  A    between atoms: C_4  and  C_5 
REMARK    2  A    between atoms: C_5  and  N_6 
REMARK       I    between atoms: N_6  and  C_7 
REMARK    3  A    between atoms: C_7  and  C_9 
REMARK    4  A    between atoms: C_11  and  N_12 
REMARK    5  A    between atoms: C_16  and  S_17 
REMARK    6  A    between atoms: C_25  and  O_26 
ROOT
ATOM      1  N   UNL d   1      -1.068  -4.325  -0.029  0.00  0.00    -0.353 N 
ATOM      2  C   UNL d   1      -1.187  -5.689   0.034  0.00  0.00     0.252 C 
ATOM      3  O   UNL d   1      -0.237  -6.459   0.120  0.00  0.00    -0.268 OA
ATOM      4  H   UNL d   1      -1.918  -3.792  -0.004  0.00  0.00     0.163 HD
ENDROOT
BRANCH   2   5
ATOM      5  C   UNL d   1      -2.580  -6.234  -0.018  0.00  0.00     0.035 A 
ATOM      6  C   UNL d   1      -2.893  -7.364   0.750  0.00  0.00     0.053 A 
ATOM      7  C   UNL d   1      -4.122  -8.018   0.552  0.00  0.00     0.105 A 
ATOM      8  C   UNL d   1      -5.086  -7.499  -0.325  0.00  0.00     0.059 A 
ATOM      9  C   UNL d   1      -4.765  -6.371  -1.082  0.00  0.00     0.062 A 
ATOM     10  C   UNL d   1      -3.522  -5.732  -0.932  0.00  0.00     0.040 A 
BRANCH   7  11
ATOM     11  N   UNL d   1      -4.349  -9.341   1.156  0.00  0.00    -0.116 N 
ATOM     12  O   UNL d   1      -3.460  -9.809   1.877  0.00  0.00    -0.532 OA
ATOM     13  O   UNL d   1      -5.400  -9.928   0.859  0.00  0.00    -0.532 OA
ENDBRANCH   7  11
BRANCH   9  14
ATOM     14  S   UNL d   1      -5.939  -5.759  -2.278  0.00  0.00     0.172 S 
ATOM     15  C   UNL d   1      -6.222  -7.095  -3.417  0.00  0.00     0.167 C 
ATOM     16  O   UNL d   1      -7.167  -5.512  -1.544  0.00  0.00    -0.223 OA
ATOM     17  O   UNL d   1      -5.278  -4.697  -3.006  0.00  0.00    -0.223 OA
ENDBRANCH   9  14
ENDBRANCH   2   5
BRANCH   1  18
ATOM     18  C   UNL d   1       0.215  -3.625   0.010  0.00  0.00     0.161 C 
BRANCH  18  19
ATOM     19  C   UNL d   1       0.114  -2.107  -0.000  0.00  0.00    -0.039 A 
ATOM     20  C   UNL d   1      -1.117  -1.440  -0.023  0.00  0.00     0.018 A 
ATOM     21  C   UNL d   1      -1.212  -0.046  -0.007  0.00  0.00    -0.028 A 
ATOM     22  C   UNL d   1      -2.570   0.591   0.004  0.00  0.00     0.051 C 
ATOM     23  C   UNL d   1      -0.048   0.718   0.003  0.00  0.00     0.077 A 
ATOM     24  C   UNL d   1       1.211   0.103   0.005  0.00  0.00    -0.028 A 
ATOM     25  C   UNL d   1       1.277  -1.311   0.017  0.00  0.00     0.018 A 
ATOM     26  C   UNL d   1       2.476   0.912  -0.022  0.00  0.00     0.051 C 
BRANCH  23  27
ATOM     27  O   UNL d   1      -0.213   2.076   0.005  0.00  0.00    -0.360 OA
ATOM     28  H   UNL d   1       0.647   2.519   0.021  0.00  0.00     0.217 HD
ENDBRANCH  23  27
ENDBRANCH  18  19
ENDBRANCH   1  18
TORSDOF 6
