@<TRIPOS>MOLECULE
*****
 59 62 0 0 0
SMALL
GASTEIGER

@<TRIPOS>ATOM
      1 C           0.9469    0.1114    0.0947 C.3     1  UNL1        0.0059
      2 N           2.4108    0.1635    0.0107 N.pl3   1  UNL1       -0.2778
      3 C           3.1376   -0.3962   -1.1453 C.3     1  UNL1        0.0512
      4 C           2.2290   -0.8969   -2.2676 C.3     1  UNL1        0.1053
      5 O           3.0143   -1.4714   -3.3117 O.3     1  UNL1       -0.4904
      6 C           2.2647   -1.8066   -4.4053 C.ar    1  UNL1        0.1206
      7 C           2.5958   -2.9569   -5.1274 C.ar    1  UNL1       -0.0197
      8 C           1.9218   -3.2934   -6.3207 C.ar    1  UNL1       -0.0551
      9 C           0.8864   -2.4878   -6.7880 C.ar    1  UNL1       -0.0456
     10 C          -0.0082   -2.8955   -7.9534 C.3     1  UNL1       -0.0069
     11 C          -1.3321   -2.1017   -8.1617 C.3     1  UNL1        0.0945
     12 S          -1.2334   -0.3321   -8.6630 S.3     1  UNL1       -0.0542
     13 C          -1.9299    0.2307   -7.1459 C.2     1  UNL1        0.2789
     14 O          -1.7945    1.3541   -6.7087 O.2     1  UNL1       -0.2625
     15 N          -2.4139   -0.8281   -6.4369 N.am    1  UNL1       -0.2463
     16 C          -2.0875   -2.0901   -6.8426 C.2     1  UNL1        0.2336
     17 O          -2.2779   -3.0752   -6.1381 O.2     1  UNL1       -0.2741
     18 C           0.6677   -1.3140   -6.0749 C.ar    1  UNL1       -0.0551
     19 C           1.2750   -0.9860   -4.8857 C.ar    1  UNL1       -0.0197
     20 C           3.1041    0.5522    1.1391 C.ar    1  UNL1        0.2718
     21 C           2.7467    0.1618    2.4365 C.ar    1  UNL1        0.0298
     22 C           3.4274    0.6607    3.5469 C.ar    1  UNL1       -0.0064
     23 C           4.4569    1.5730    3.3698 C.ar    1  UNL1        0.1842
     24 O           5.1875    2.1551    4.3661 O.3     1  UNL1       -0.4815
     25 C           4.8584    1.7694    5.7073 C.3     1  UNL1        0.1149
     26 C           5.6845    2.5451    6.6988 C.ar    1  UNL1       -0.0104
     27 C           6.4589    1.8915    7.6681 C.ar    1  UNL1       -0.0554
     28 C           7.0312    2.6181    8.7139 C.ar    1  UNL1       -0.0614
     29 C           6.9123    4.0064    8.7482 C.ar    1  UNL1       -0.0617
     30 C           6.1895    4.6687    7.7590 C.ar    1  UNL1       -0.0614
     31 C           5.5728    3.9414    6.7433 C.ar    1  UNL1       -0.0554
     32 C           4.7866    1.9391    2.0686 C.ar    1  UNL1        0.2130
     33 N           4.1285    1.4143    1.0206 N.ar    1  UNL1       -0.1950
     34 H           0.4590   -0.2354   -0.8183 H       1  UNL1        0.0429
     35 H           0.5611    1.1221    0.2614 H       1  UNL1        0.0429
     36 H           0.5935   -0.5549    0.8863 H       1  UNL1        0.0429
     37 H           3.7898   -1.2201   -0.8331 H       1  UNL1        0.0499
     38 H           3.7962    0.3759   -1.5654 H       1  UNL1        0.0499
     39 H           1.6473   -0.0288   -2.6009 H       1  UNL1        0.0712
     40 H           1.5510   -1.6745   -1.8966 H       1  UNL1        0.0712
     41 H           3.3750   -3.6122   -4.7529 H       1  UNL1        0.0654
     42 H           2.2229   -4.1797   -6.8757 H       1  UNL1        0.0621
     43 H          -0.3230   -3.9321   -7.7412 H       1  UNL1        0.0329
     44 H           0.5731   -2.9478   -8.8812 H       1  UNL1        0.0329
     45 H          -1.9445   -2.5863   -8.9264 H       1  UNL1        0.0515
     46 H          -2.6104   -0.6972   -5.4558 H       1  UNL1        0.1583
     47 H           0.0167   -0.5460   -6.4108 H       1  UNL1        0.0621
     48 H           0.9535   -0.0574   -4.4291 H       1  UNL1        0.0654
     49 H           1.9466   -0.5549    2.6023 H       1  UNL1        0.0699
     50 H           3.1183    0.3165    4.5304 H       1  UNL1        0.0659
     51 H           5.0203    0.6928    5.8389 H       1  UNL1        0.0748
     52 H           3.8060    2.0022    5.9223 H       1  UNL1        0.0748
     53 H           6.6031    0.8134    7.6390 H       1  UNL1        0.0621
     54 H           7.5516    2.1021    9.5179 H       1  UNL1        0.0618
     55 H           7.3817    4.5726    9.5489 H       1  UNL1        0.0618
     56 H           6.0793    5.7492    7.7965 H       1  UNL1        0.0618
     57 H           4.9790    4.4652    5.9984 H       1  UNL1        0.0621
     58 H           5.5646    2.6623    1.8450 H       1  UNL1        0.1416
     59 H           4.3677    1.7226    0.0832 H       1  UNL1        0.4543
@<TRIPOS>UNITY_ATOM_ATTR
33 1
charge 1
@<TRIPOS>BOND
     1     1     2    1
     2     2     3    1
     3     3     4    1
     4     4     5    1
     5     5     6    1
     6     6     7   ar
     7     7     8   ar
     8     8     9   ar
     9     9    10    1
    10    10    11    1
    11    11    12    1
    12    12    13    1
    13    13    14    2
    14    13    15   am
    15    15    16   am
    16    11    16    1
    17    16    17    2
    18     9    18   ar
    19    18    19   ar
    20     6    19   ar
    21     2    20    1
    22    20    21   ar
    23    21    22   ar
    24    22    23   ar
    25    23    24    1
    26    24    25    1
    27    25    26    1
    28    26    27   ar
    29    27    28   ar
    30    28    29   ar
    31    29    30   ar
    32    30    31   ar
    33    26    31   ar
    34    23    32   ar
    35    32    33   ar
    36    20    33   ar
    37     1    34    1
    38     1    35    1
    39     1    36    1
    40     3    37    1
    41     3    38    1
    42     4    39    1
    43     4    40    1
    44     7    41    1
    45     8    42    1
    46    10    43    1
    47    10    44    1
    48    11    45    1
    49    15    46    1
    50    18    47    1
    51    19    48    1
    52    21    49    1
    53    22    50    1
    54    25    51    1
    55    25    52    1
    56    27    53    1
    57    28    54    1
    58    29    55    1
    59    30    56    1
    60    31    57    1
    61    32    58    1
    62    33    59    1
