REMARK  10 active torsions:
REMARK  status: ('A' for Active; 'I' for Inactive)
REMARK    1  A    between atoms: C_2  and  C_3 
REMARK    2  A    between atoms: C_3  and  C_4 
REMARK    3  A    between atoms: C_4  and  C_5 
REMARK    4  A    between atoms: C_4  and  N_13 
REMARK       I    between atoms: C_5  and  N_7 
REMARK    5  A    between atoms: N_7  and  C_8 
REMARK       I    between atoms: N_13  and  C_14 
REMARK    6  A    between atoms: N_13  and  C_31 
REMARK    7  A    between atoms: C_14  and  C_16 
REMARK    8  A    between atoms: C_19  and  C_20 
REMARK       I    between atoms: C_20  and  N_22 
REMARK    9  A    between atoms: N_22  and  C_23 
REMARK   10  A    between atoms: C_29  and  N_30 
ROOT
ATOM      1  N   UNL d   1       4.923  -2.596  -0.925  0.00  0.00    -0.299 N 
ATOM      2  C   UNL d   1       4.016  -3.633  -1.409  0.00  0.00     0.269 C 
ATOM      3  O   UNL d   1       4.444  -4.755  -1.691  0.00  0.00    -0.266 OA
ENDROOT
BRANCH   1   4
ATOM      4  C   UNL d   1       4.534  -1.293  -0.222  0.00  0.00     0.185 C 
BRANCH   4   5
ATOM      5  C   UNL d   1       3.055  -1.104   0.053  0.00  0.00     0.035 C 
BRANCH   5   6
ATOM      6  C   UNL d   1       2.460   0.248   0.383  0.00  0.00    -0.002 C 
ATOM      7  C   UNL d   1       0.959   0.183   0.343  0.00  0.00     0.005 C 
ENDBRANCH   5   6
ENDBRANCH   4   5
BRANCH   4   8
ATOM      8  C   UNL d   1       4.970  -1.146   1.211  0.00  0.00     0.241 C 
ATOM      9  O   UNL d   1       5.141  -2.130   1.924  0.00  0.00    -0.271 OA
ATOM     10  N   UNL d   1       5.024   0.162   1.669  0.00  0.00    -0.355 N 
ATOM     11  H   UNL d   1       4.539   0.902   1.177  0.00  0.00     0.162 HD
BRANCH  10  12
ATOM     12  C   UNL d   1       5.281   0.402   3.060  0.00  0.00     0.084 C 
ATOM     13  C   UNL d   1       6.521  -0.367   3.471  0.00  0.00     0.025 C 
ATOM     14  C   UNL d   1       7.059   0.366   4.661  0.00  0.00     0.002 C 
ATOM     15  C   UNL d   1       6.622   1.814   4.480  0.00  0.00     0.002 C 
ATOM     16  C   UNL d   1       5.672   1.853   3.290  0.00  0.00     0.025 C 
ENDBRANCH  10  12
ENDBRANCH   4   8
ENDBRANCH   1   4
BRANCH   1  17
ATOM     17  C   UNL d   1       6.381  -2.833  -1.049  0.00  0.00     0.038 A 
ATOM     18  C   UNL d   1       7.318  -2.429  -0.073  0.00  0.00     0.033 A 
ATOM     19  C   UNL d   1       8.691  -2.690  -0.163  0.00  0.00     0.044 A 
ATOM     20  C   UNL d   1       9.180  -3.322  -1.281  0.00  0.00     0.116 A 
ATOM     21  F   UNL d   1      10.494  -3.563  -1.380  0.00  0.00    -0.206 F 
ATOM     22  C   UNL d   1       8.313  -3.696  -2.298  0.00  0.00     0.044 A 
ATOM     23  C   UNL d   1       6.926  -3.463  -2.180  0.00  0.00     0.033 A 
ENDBRANCH   1  17
BRANCH   2  24
ATOM     24  C   UNL d   1       2.578  -3.377  -1.596  0.00  0.00     0.115 C 
ATOM     25  S   UNL d   1       1.435  -4.337  -0.751  0.00  0.00     0.019 SA
ATOM     26  N   UNL d   1       0.132  -3.359  -1.043  0.00  0.00    -0.203 NA
ATOM     27  C   UNL d   1       0.473  -2.358  -1.876  0.00  0.00     0.155 C 
ATOM     28  C   UNL d   1       1.866  -2.407  -2.307  0.00  0.00     0.065 C 
BRANCH  27  29
ATOM     29  C   UNL d   1      -0.545  -1.273  -2.103  0.00  0.00     0.273 C 
ATOM     30  O   UNL d   1      -1.672  -1.402  -1.685  0.00  0.00    -0.266 OA
ATOM     31  N   UNL d   1      -0.065  -0.062  -2.682  0.00  0.00    -0.351 N 
ATOM     32  H   UNL d   1       0.864  -0.034  -3.034  0.00  0.00     0.163 HD
BRANCH  31  33
ATOM     33  C   UNL d   1      -0.804   1.189  -2.882  0.00  0.00     0.084 C 
ATOM     34  C   UNL d   1      -2.146   1.148  -2.182  0.00  0.00     0.025 C 
ATOM     35  C   UNL d   1      -2.988   2.365  -2.439  0.00  0.00     0.002 C 
ATOM     36  C   UNL d   1      -2.258   3.626  -2.023  0.00  0.00     0.000 C 
ATOM     37  C   UNL d   1      -0.904   3.728  -2.724  0.00  0.00     0.002 C 
ATOM     38  C   UNL d   1      -0.035   2.482  -2.466  0.00  0.00     0.025 C 
ENDBRANCH  31  33
ENDBRANCH  27  29
BRANCH  28  39
ATOM     39  N   UNL d   1       2.513  -1.391  -2.987  0.00  0.00    -0.299 NA
ATOM     40  H   UNL d   1       2.354  -0.462  -2.600  0.00  0.00     0.124 HD
ATOM     41  H   UNL d   1       3.532  -1.457  -2.977  0.00  0.00     0.124 HD
ENDBRANCH  28  39
ENDBRANCH   2  24
TORSDOF 10
