@<TRIPOS>MOLECULE
*****
 41 41 0 0 0
SMALL
GASTEIGER

@<TRIPOS>ATOM
      1 C           1.0494   -0.0830   -0.0557 C.3     1  UNL1       -0.0627
      2 C           2.5832   -0.0634   -0.0377 C.3     1  UNL1       -0.0463
      3 C           3.0591    1.3423    0.3273 C.3     1  UNL1       -0.0627
      4 C           3.1246   -1.1206    0.9479 C.3     1  UNL1       -0.0424
      5 C           4.6633   -1.2033    1.0098 C.3     1  UNL1        0.0256
      6 C           5.1495   -2.2554    2.0087 C.2     1  UNL1        0.2291
      7 O           4.3835   -2.9493    2.6787 O.2     1  UNL1       -0.2743
      8 N           6.5272   -2.3711    2.1241 N.am    1  UNL1       -0.2342
      9 N           7.0649   -3.3134    3.0484 N.am    1  UNL1       -0.2309
     10 C           8.4359   -3.4360    3.1868 C.2     1  UNL1        0.2530
     11 O           9.2343   -2.7645    2.5307 O.2     1  UNL1       -0.2693
     12 C           8.8893   -4.4591    4.1898 C.2     1  UNL1        0.0022
     13 C          10.2002   -4.6730    4.4294 C.2     1  UNL1       -0.0496
     14 C          10.7709   -5.7140    5.3190 C.ar    1  UNL1       -0.0245
     15 C          11.9753   -5.4777    6.0083 C.ar    1  UNL1       -0.0482
     16 C          12.6438   -6.5148    6.6829 C.ar    1  UNL1        0.0161
     17 C          12.0660   -7.7876    6.7394 C.ar    1  UNL1        0.2732
     18 N          12.7004   -8.8515    7.5331 N.pl3   1  UNL1        0.0796
     19 O          13.7595   -8.5830    8.1180 O.2     1  UNL1        0.0414
     20 O          12.1264   -9.9490    7.5892 O.co2   1  UNL1       -0.5760
     21 C          10.8585   -8.0374    6.0791 C.ar    1  UNL1        0.0161
     22 C          10.2235   -7.0047    5.3723 C.ar    1  UNL1       -0.0482
     23 H           0.6577    0.6520   -0.7686 H       1  UNL1        0.0232
     24 H           0.6392    0.1593    0.9312 H       1  UNL1        0.0232
     25 H           0.6682   -1.0666   -0.3487 H       1  UNL1        0.0232
     26 H           2.9363   -0.3043   -1.0486 H       1  UNL1        0.0296
     27 H           2.7272    1.6140    1.3353 H       1  UNL1        0.0232
     28 H           2.6652    2.0850   -0.3738 H       1  UNL1        0.0232
     29 H           4.1489    1.4177    0.2948 H       1  UNL1        0.0232
     30 H           2.7242   -2.1036    0.6654 H       1  UNL1        0.0272
     31 H           2.7317   -0.9082    1.9508 H       1  UNL1        0.0272
     32 H           5.0785   -0.2392    1.3204 H       1  UNL1        0.0359
     33 H           5.0530   -1.4390    0.0127 H       1  UNL1        0.0359
     34 H           7.1975   -1.8075    1.6029 H       1  UNL1        0.1728
     35 H           6.3784   -3.8541    3.5724 H       1  UNL1        0.1731
     36 H           8.1266   -5.0296    4.7038 H       1  UNL1        0.0670
     37 H          10.9482   -4.0835    3.8966 H       1  UNL1        0.0625
     38 H          12.4140   -4.4806    6.0306 H       1  UNL1        0.0626
     39 H          13.6100   -6.3175    7.1460 H       1  UNL1        0.0685
     40 H          10.4077   -9.0281    6.0861 H       1  UNL1        0.0685
     41 H           9.3026   -7.2338    4.8420 H       1  UNL1        0.0626
@<TRIPOS>UNITY_ATOM_ATTR
18 1
charge 1
20 1
charge -1
@<TRIPOS>BOND
     1     1     2    1
     2     2     3    1
     3     2     4    1
     4     4     5    1
     5     5     6    1
     6     6     7    2
     7     6     8   am
     8     8     9    1
     9     9    10   am
    10    10    11    2
    11    10    12    1
    12    12    13    2
    13    13    14    1
    14    14    15   ar
    15    15    16   ar
    16    16    17   ar
    17    17    18    1
    18    18    19    2
    19    18    20    1
    20    17    21   ar
    21    21    22   ar
    22    14    22   ar
    23     1    23    1
    24     1    24    1
    25     1    25    1
    26     2    26    1
    27     3    27    1
    28     3    28    1
    29     3    29    1
    30     4    30    1
    31     4    31    1
    32     5    32    1
    33     5    33    1
    34     8    34    1
    35     9    35    1
    36    12    36    1
    37    13    37    1
    38    15    38    1
    39    16    39    1
    40    21    40    1
    41    22    41    1
