@<TRIPOS>MOLECULE
*****
 33 34 0 0 0
SMALL
GASTEIGER

@<TRIPOS>ATOM
      1 C           1.8247    1.9218    0.0033 C.3     1  UNL1       -0.0393
      2 C           0.8360    0.7903   -0.0003 C.ar    1  UNL1       -0.0440
      3 C          -0.5170    1.1066   -0.0020 C.ar    1  UNL1       -0.0152
      4 C          -1.4893    0.1109    0.0046 C.ar    1  UNL1        0.1382
      5 O          -2.7699    0.5526    0.0023 O.3     1  UNL1       -0.5049
      6 C          -1.1674   -1.2545    0.0134 C.ar    1  UNL1        0.0759
      7 N          -2.1393   -2.3194    0.0252 N.am    1  UNL1       -0.2786
      8 C          -3.5285   -2.1857    0.0022 C.2     1  UNL1        0.2483
      9 O          -4.2318   -1.1783   -0.0020 O.2     1  UNL1       -0.2699
     10 C          -4.3702   -3.3939   -0.0263 C.ar    1  UNL1        0.0371
     11 C          -4.1952   -4.4386    0.8767 C.ar    1  UNL1       -0.0486
     12 C          -5.1585   -5.4520    0.9353 C.ar    1  UNL1       -0.0470
     13 C          -6.2872   -5.4076    0.1076 C.ar    1  UNL1        0.0179
     14 BR         -7.5769   -6.7859    0.2007 Br      1  UNL1       -0.0503
     15 C          -6.4799   -4.3526   -0.7776 C.ar    1  UNL1       -0.0470
     16 C          -5.5227   -3.3452   -0.8389 C.ar    1  UNL1       -0.0486
     17 C           0.2125   -1.5748    0.0072 C.ar    1  UNL1       -0.0337
     18 C           1.2162   -0.5637    0.0007 C.ar    1  UNL1       -0.0456
     19 C           2.6837   -0.9125   -0.0045 C.3     1  UNL1       -0.0394
     20 H           1.3159    2.8934    0.0023 H       1  UNL1        0.0278
     21 H           2.4530    1.8833   -0.8906 H       1  UNL1        0.0278
     22 H           2.4450    1.8821    0.9030 H       1  UNL1        0.0278
     23 H          -0.8291    2.1467   -0.0064 H       1  UNL1        0.0657
     24 H          -2.8547    1.5115   -0.0069 H       1  UNL1        0.2922
     25 H          -1.7637   -3.2595    0.0062 H       1  UNL1        0.1552
     26 H          -3.3673   -4.4338    1.5785 H       1  UNL1        0.0625
     27 H          -5.0388   -6.2605    1.6509 H       1  UNL1        0.0629
     28 H          -7.3693   -4.2864   -1.3992 H       1  UNL1        0.0629
     29 H          -5.6964   -2.4817   -1.4830 H       1  UNL1        0.0625
     30 H           0.5368   -2.6146    0.0067 H       1  UNL1        0.0640
     31 H           2.8532   -1.9921   -0.0028 H       1  UNL1        0.0278
     32 H           3.1754   -0.4953    0.8824 H       1  UNL1        0.0278
     33 H           3.1680   -0.4993   -0.8974 H       1  UNL1        0.0278
@<TRIPOS>BOND
     1     1     2    1
     2     2     3   ar
     3     3     4   ar
     4     4     5    1
     5     4     6   ar
     6     6     7    1
     7     7     8   am
     8     8     9    2
     9     8    10    1
    10    10    11   ar
    11    11    12   ar
    12    12    13   ar
    13    13    14    1
    14    13    15   ar
    15    15    16   ar
    16    10    16   ar
    17     6    17   ar
    18    17    18   ar
    19     2    18   ar
    20    18    19    1
    21     1    20    1
    22     1    21    1
    23     1    22    1
    24     3    23    1
    25     5    24    1
    26     7    25    1
    27    11    26    1
    28    12    27    1
    29    15    28    1
    30    16    29    1
    31    17    30    1
    32    19    31    1
    33    19    32    1
    34    19    33    1
