@<TRIPOS>MOLECULE
*****
 63 65 0 0 0
SMALL
GASTEIGER

@<TRIPOS>ATOM
      1 C          10.8021   -2.1213   -4.2267 C.3     1  UNL1       -0.0389
      2 C          10.5274   -3.4652   -3.6049 C.ar    1  UNL1       -0.0364
      3 C          10.7857   -4.6104   -4.3859 C.ar    1  UNL1       -0.0562
      4 C          10.5393   -5.8916   -3.8906 C.ar    1  UNL1       -0.0351
      5 C          10.0303   -6.0467   -2.5971 C.ar    1  UNL1        0.1060
      6 S           9.7056   -7.7077   -2.0437 S.O2    1  UNL1        0.0588
      7 O           8.6271   -8.2229   -2.8651 O.2     1  UNL1       -0.1530
      8 O          10.9730   -8.3924   -1.9543 O.2     1  UNL1       -0.1530
      9 N           9.0725   -7.5862   -0.4682 N.3     1  UNL1       -0.1826
     10 C           8.8101   -8.9330    0.0946 C.3     1  UNL1        0.0754
     11 C           8.2472   -8.9220    1.4787 C.ar    1  UNL1        0.1202
     12 C           7.8367   -9.9817    2.2656 C.ar    1  UNL1       -0.0194
     13 C           7.3855   -9.4376    3.4863 C.ar    1  UNL1       -0.0236
     14 C           7.5452   -8.0761    3.3746 C.ar    1  UNL1        0.0921
     15 O           8.0598   -7.7481    2.1539 O.2     1  UNL1       -0.4665
     16 C           9.7792   -4.9206   -1.7980 C.ar    1  UNL1       -0.0211
     17 C          10.0196   -3.6134   -2.2896 C.ar    1  UNL1        0.0638
     18 C           9.7059   -2.4519   -1.3547 C.2     1  UNL1        0.3400
     19 O           9.2520   -2.5896   -0.2396 O.2     1  UNL1       -0.2449
     20 O          10.0049   -1.2624   -1.9282 O.3     1  UNL1       -0.4517
     21 C           9.8049   -0.0004   -1.2542 C.3     1  UNL1        0.1688
     22 C          10.2406    1.1632   -2.2469 C.2     1  UNL1        0.2581
     23 O          10.4191    0.9473   -3.4412 O.2     1  UNL1       -0.2716
     24 N          10.4695    2.4157   -1.6688 N.am    1  UNL1       -0.2374
     25 C          10.3738    3.6943   -2.2304 C.2     1  UNL1        0.3062
     26 O          10.6340    3.9328   -3.4063 O.2     1  UNL1       -0.2524
     27 N          10.0817    4.7958   -1.4271 N.am    1  UNL1       -0.2960
     28 C           9.4924    5.0621   -0.0678 C.3     1  UNL1        0.0271
     29 C          10.1491    6.2770    0.6433 C.3     1  UNL1       -0.0342
     30 C          11.6479    6.0752    0.8252 C.3     1  UNL1       -0.0514
     31 C          11.9251    4.7636    1.5642 C.3     1  UNL1       -0.0527
     32 C          11.1745    3.5801    0.9458 C.3     1  UNL1       -0.0488
     33 C           9.6253    3.8447    0.8290 C.3     1  UNL1       -0.0254
     34 C           8.6152    2.7893    0.2908 C.3     1  UNL1       -0.0607
     35 H          11.1980   -2.1951   -5.2423 H       1  UNL1        0.0278
     36 H          11.5538   -1.5857   -3.6369 H       1  UNL1        0.0278
     37 H           9.8692   -1.5507   -4.2897 H       1  UNL1        0.0278
     38 H          11.1805   -4.5042   -5.3971 H       1  UNL1        0.0621
     39 H          10.7457   -6.7575   -4.5206 H       1  UNL1        0.0637
     40 H           8.2104   -7.0412   -0.4578 H       1  UNL1        0.1485
     41 H           9.7329   -9.5221    0.1112 H       1  UNL1        0.0521
     42 H           8.0752   -9.4453   -0.5383 H       1  UNL1        0.0521
     43 H           7.8676  -11.0229    1.9765 H       1  UNL1        0.0652
     44 H           6.9949   -9.9742    4.3403 H       1  UNL1        0.0649
     45 H           7.3456   -7.2517    4.0463 H       1  UNL1        0.1029
     46 H           9.4008   -5.0493   -0.7877 H       1  UNL1        0.0645
     47 H          10.3899    0.0088   -0.3269 H       1  UNL1        0.0796
     48 H           8.7377    0.0981   -1.0157 H       1  UNL1        0.0796
     49 H          10.5091    2.3458   -0.6803 H       1  UNL1        0.1592
     50 H          10.1310    5.6386   -1.9918 H       1  UNL1        0.1505
     51 H           8.4324    5.3196   -0.2063 H       1  UNL1        0.0501
     52 H           9.7034    6.4072    1.6430 H       1  UNL1        0.0283
     53 H           9.9571    7.2100    0.1025 H       1  UNL1        0.0283
     54 H          12.0863    6.9108    1.3839 H       1  UNL1        0.0266
     55 H          12.1304    6.0789   -0.1611 H       1  UNL1        0.0266
     56 H          11.6330    4.8537    2.6123 H       1  UNL1        0.0265
     57 H          13.0043    4.5680    1.5291 H       1  UNL1        0.0265
     58 H          11.3800    2.6471    1.4730 H       1  UNL1        0.0268
     59 H          11.6932    3.4980   -0.0159 H       1  UNL1        0.0268
     60 H           9.2773    4.0481    1.8488 H       1  UNL1        0.0316
     61 H           8.5021    2.7951   -0.7997 H       1  UNL1        0.0233
     62 H           7.5801    3.0117    0.5670 H       1  UNL1        0.0233
     63 H           8.8715    1.7834    0.6194 H       1  UNL1        0.0233
@<TRIPOS>BOND
     1     1     2    1
     2     2     3   ar
     3     3     4   ar
     4     4     5   ar
     5     5     6    1
     6     6     7    2
     7     6     8    2
     8     6     9    1
     9     9    10    1
    10    10    11    1
    11    11    12   ar
    12    12    13   ar
    13    13    14   ar
    14    14    15   ar
    15    11    15   ar
    16     5    16   ar
    17    16    17   ar
    18     2    17   ar
    19    17    18    1
    20    18    19    2
    21    18    20    1
    22    20    21    1
    23    21    22    1
    24    22    23    2
    25    22    24   am
    26    24    25   am
    27    25    26    2
    28    25    27   am
    29    28    29    1
    30    29    30    1
    31    30    31    1
    32    31    32    1
    33    32    33    1
    34    28    33    1
    35    33    34    1
    36    28    27    1
    37     1    35    1
    38     1    36    1
    39     1    37    1
    40     3    38    1
    41     4    39    1
    42     9    40    1
    43    10    41    1
    44    10    42    1
    45    12    43    1
    46    13    44    1
    47    14    45    1
    48    16    46    1
    49    21    47    1
    50    21    48    1
    51    24    49    1
    52    27    50    1
    53    28    51    1
    54    29    52    1
    55    29    53    1
    56    30    54    1
    57    30    55    1
    58    31    56    1
    59    31    57    1
    60    32    58    1
    61    32    59    1
    62    33    60    1
    63    34    61    1
    64    34    62    1
    65    34    63    1
