@<TRIPOS>MOLECULE
*****
 40 41 0 0 0
SMALL
GASTEIGER

@<TRIPOS>ATOM
      1 C           5.1121    3.2551   -6.2252 C.3     1  UNL1       -0.0134
      2 S           5.4485    4.8626   -5.4594 S.3     1  UNL1       -0.1268
      3 C           6.4544    4.3686   -4.0603 C.ar    1  UNL1        0.0288
      4 C           7.7278    4.9470   -4.0921 C.ar    1  UNL1       -0.0465
      5 C           8.7677    4.4571   -3.3076 C.ar    1  UNL1       -0.0606
      6 C           8.5275    3.4461   -2.3898 C.ar    1  UNL1       -0.0599
      7 C           7.2343    2.9459   -2.2488 C.ar    1  UNL1       -0.0394
      8 C           6.1785    3.4147   -3.0651 C.ar    1  UNL1        0.0469
      9 N           4.9258    2.8278   -2.8020 N.am    1  UNL1       -0.2830
     10 C           3.6638    3.2929   -3.1437 C.2     1  UNL1        0.2373
     11 O           3.3798    4.4033   -3.5858 O.2     1  UNL1       -0.2734
     12 C           2.5454    2.2778   -2.8796 C.3     1  UNL1        0.0972
     13 C           2.6673    1.7716   -1.4397 C.3     1  UNL1       -0.0381
     14 N           2.6167    1.1965   -3.8648 N.am    1  UNL1       -0.3003
     15 C           2.2657    1.4110   -5.1893 C.2     1  UNL1        0.2461
     16 O           2.0690    2.5100   -5.6903 O.2     1  UNL1       -0.2701
     17 C           2.1285    0.2116   -6.0511 C.ar    1  UNL1        0.0550
     18 C           2.7060    0.2319   -7.3360 C.ar    1  UNL1       -0.0482
     19 C           2.4879   -0.8264   -8.2246 C.ar    1  UNL1       -0.0610
     20 C           1.7261   -1.9218   -7.8245 C.ar    1  UNL1       -0.0603
     21 C           1.1587   -1.9479   -6.5503 C.ar    1  UNL1       -0.0427
     22 C           1.3491   -0.8833   -5.6657 C.ar    1  UNL1        0.0531
     23 CL          0.5543   -0.9866   -4.1334 Cl      1  UNL1       -0.0828
     24 H           4.2375    3.3556   -6.8730 H       1  UNL1        0.0344
     25 H           4.9216    2.4493   -5.5126 H       1  UNL1        0.0344
     26 H           5.9636    2.9665   -6.8446 H       1  UNL1        0.0344
     27 H           7.9236    5.7659   -4.7799 H       1  UNL1        0.0629
     28 H           9.7682    4.8516   -3.4506 H       1  UNL1        0.0618
     29 H           9.3410    3.0615   -1.7801 H       1  UNL1        0.0618
     30 H           7.0709    2.1773   -1.4940 H       1  UNL1        0.0636
     31 H           4.9545    2.0908   -2.1140 H       1  UNL1        0.1549
     32 H           1.5875    2.8007   -2.9949 H       1  UNL1        0.0592
     33 H           3.5228    1.0986   -1.3095 H       1  UNL1        0.0252
     34 H           1.7847    1.2087   -1.1314 H       1  UNL1        0.0252
     35 H           2.8060    2.6155   -0.7517 H       1  UNL1        0.0252
     36 H           2.5572    0.2460   -3.5254 H       1  UNL1        0.1498
     37 H           3.3140    1.0757   -7.6595 H       1  UNL1        0.0625
     38 H           2.8919   -0.7901   -9.2353 H       1  UNL1        0.0618
     39 H           1.5606   -2.7527   -8.5067 H       1  UNL1        0.0618
     40 H           0.5423   -2.7934   -6.2565 H       1  UNL1        0.0632
@<TRIPOS>BOND
     1     1     2    1
     2     2     3    1
     3     3     4   ar
     4     4     5   ar
     5     5     6   ar
     6     6     7   ar
     7     7     8   ar
     8     3     8   ar
     9     8     9    1
    10     9    10   am
    11    10    11    2
    12    12    14    1
    13    14    15   am
    14    15    16    2
    15    15    17    1
    16    17    18   ar
    17    18    19   ar
    18    19    20   ar
    19    20    21   ar
    20    21    22   ar
    21    17    22   ar
    22    22    23    1
    23    12    13    1
    24    12    10    1
    25     1    24    1
    26     1    25    1
    27     1    26    1
    28     4    27    1
    29     5    28    1
    30     6    29    1
    31     7    30    1
    32     9    31    1
    33    12    32    1
    34    13    33    1
    35    13    34    1
    36    13    35    1
    37    14    36    1
    38    18    37    1
    39    19    38    1
    40    20    39    1
    41    21    40    1
