@<TRIPOS>MOLECULE
*****
 41 42 0 0 0
SMALL
GASTEIGER

@<TRIPOS>ATOM
      1 C           1.0422    0.0650    0.0628 C.3     1  UNL1       -0.0627
      2 C           2.5753    0.0452    0.0801 C.3     1  UNL1       -0.0463
      3 C           3.0526   -0.5280    1.4139 C.3     1  UNL1       -0.0627
      4 C           3.1156   -0.7701   -1.1119 C.3     1  UNL1       -0.0424
      5 C           4.6530   -0.8168   -1.1989 C.3     1  UNL1        0.0256
      6 C           5.1340   -1.6402   -2.3906 C.2     1  UNL1        0.2291
      7 O           4.3679   -2.1966   -3.1776 O.2     1  UNL1       -0.2743
      8 N           6.5098   -1.7305   -2.5314 N.am    1  UNL1       -0.2342
      9 N           7.0232   -2.4463   -3.6432 N.am    1  UNL1       -0.2304
     10 C           8.3888   -2.6198   -3.7818 C.2     1  UNL1        0.2602
     11 O           9.2139   -2.1304   -3.0101 O.2     1  UNL1       -0.2687
     12 C           8.8398   -3.5015   -4.9022 C.ar    1  UNL1        0.0400
     13 C           9.8298   -4.4582   -4.6348 C.ar    1  UNL1       -0.0484
     14 C          10.2554   -5.3402   -5.6331 C.ar    1  UNL1       -0.0458
     15 C           9.7173   -5.2574   -6.9174 C.ar    1  UNL1        0.0296
     16 C           8.7461   -4.2807   -7.2055 C.ar    1  UNL1        0.0476
     17 C           8.3123   -3.3989   -6.1997 C.ar    1  UNL1       -0.0272
     18 N           8.1619   -4.1954   -8.4857 N.am    1  UNL1       -0.2839
     19 C           8.6592   -4.7820   -9.6284 C.2     1  UNL1        0.2274
     20 O           8.0203   -4.7322  -10.6794 O.2     1  UNL1       -0.2746
     21 C          10.0651   -5.3412   -9.5658 C.3     1  UNL1        0.0752
     22 S          10.2542   -6.4354   -8.1441 S.3     1  UNL1       -0.1140
     23 H           0.6505    0.6591    0.8964 H       1  UNL1        0.0232
     24 H           0.6329   -0.9474    0.1535 H       1  UNL1        0.0232
     25 H           0.6615    0.5022   -0.8660 H       1  UNL1        0.0232
     26 H           2.9290    1.0805   -0.0067 H       1  UNL1        0.0296
     27 H           2.7210   -1.5656    1.5301 H       1  UNL1        0.0232
     28 H           2.6599    0.0531    2.2541 H       1  UNL1        0.0232
     29 H           4.1426   -0.5075    1.4924 H       1  UNL1        0.0232
     30 H           2.7165   -0.3436   -2.0422 H       1  UNL1        0.0272
     31 H           2.7235   -1.7940   -1.0535 H       1  UNL1        0.0272
     32 H           5.0695   -1.2712   -0.2945 H       1  UNL1        0.0359
     33 H           5.0427    0.2044   -1.2817 H       1  UNL1        0.0359
     34 H           7.1868   -1.3114   -1.8952 H       1  UNL1        0.1728
     35 H           6.3320   -2.9556   -4.1931 H       1  UNL1        0.1731
     36 H          10.2661   -4.5354   -3.6407 H       1  UNL1        0.0625
     37 H          11.0048   -6.0954   -5.4021 H       1  UNL1        0.0629
     38 H           7.6117   -2.6030   -6.4392 H       1  UNL1        0.0644
     39 H           7.2815   -3.7097   -8.6071 H       1  UNL1        0.1549
     40 H          10.7688   -4.5058   -9.4768 H       1  UNL1        0.0474
     41 H          10.2946   -5.8856  -10.4858 H       1  UNL1        0.0474
@<TRIPOS>BOND
     1     1     2    1
     2     2     3    1
     3     2     4    1
     4     4     5    1
     5     5     6    1
     6     6     7    2
     7     6     8   am
     8     8     9    1
     9     9    10   am
    10    10    11    2
    11    10    12    1
    12    12    13   ar
    13    13    14   ar
    14    14    15   ar
    15    15    16   ar
    16    16    17   ar
    17    12    17   ar
    18    16    18    1
    19    18    19   am
    20    19    20    2
    21    19    21    1
    22    21    22    1
    23    15    22    1
    24     1    23    1
    25     1    24    1
    26     1    25    1
    27     2    26    1
    28     3    27    1
    29     3    28    1
    30     3    29    1
    31     4    30    1
    32     4    31    1
    33     5    32    1
    34     5    33    1
    35     8    34    1
    36     9    35    1
    37    13    36    1
    38    14    37    1
    39    17    38    1
    40    18    39    1
    41    21    40    1
    42    21    41    1
