@<TRIPOS>MOLECULE
*****
 57 61 0 0 0
SMALL
GASTEIGER

@<TRIPOS>ATOM
      1 C           1.0458   -0.1490   -0.0943 C.3     1  UNL1       -0.0201
      2 C           2.5436   -0.0655   -0.0856 C.2     1  UNL1        0.0702
      3 N           3.3225   -1.1168   -0.1172 N.2     1  UNL1       -0.1788
      4 N           4.6454   -0.6387   -0.2701 N.am    1  UNL1       -0.1578
      5 C           5.7748   -1.5007    0.0783 C.3     1  UNL1        0.1640
      6 N           6.8093   -1.5809   -0.9395 N.pl3   1  UNL1       -0.3149
      7 C           8.0883   -1.6523   -0.3885 C.ar    1  UNL1        0.0428
      8 C           9.2442   -2.0320   -1.0640 C.ar    1  UNL1       -0.0397
      9 C          10.4796   -2.0097   -0.3946 C.ar    1  UNL1       -0.0599
     10 C          10.5581   -1.6117    0.9455 C.ar    1  UNL1       -0.0606
     11 C           9.3969   -1.2750    1.6410 C.ar    1  UNL1       -0.0464
     12 C           8.1803   -1.3205    0.9701 C.ar    1  UNL1        0.0321
     13 S           6.5764   -0.9912    1.6482 S.3     1  UNL1       -0.0798
     14 C           4.7093    0.7465   -0.4046 C.2     1  UNL1        0.2715
     15 O           5.6566    1.4840   -0.6579 O.2     1  UNL1       -0.2680
     16 C           3.3181    1.1913   -0.0862 C.2     1  UNL1        0.0774
     17 C           2.9667    2.4449    0.2773 C.2     1  UNL1        0.0148
     18 C           1.5741    2.8108    0.7818 C.3     1  UNL1       -0.0260
     19 N           3.8653    3.5167    0.2739 N.pl3   1  UNL1       -0.3464
     20 C           3.5446    4.8209    0.7930 C.3     1  UNL1        0.0128
     21 C           4.7051    5.7953    0.8354 C.3     1  UNL1       -0.0090
     22 C           4.2826    7.1521    1.3398 C.2     1  UNL1        0.0119
     23 C           3.3763    7.4708    2.2781 C.ar    1  UNL1        0.0512
     24 C           2.5126    6.7306    3.1419 C.ar    1  UNL1       -0.0482
     25 C           1.7086    7.3753    3.9935 C.ar    1  UNL1       -0.0608
     26 C           1.7181    8.8181    4.0902 C.ar    1  UNL1       -0.0555
     27 C           2.5050    9.6052    3.3299 C.ar    1  UNL1        0.0098
     28 C           3.3920    8.9484    2.3425 C.ar    1  UNL1        0.2088
     29 N           4.2142    9.4595    1.5052 N.2     1  UNL1       -0.2345
     30 C           4.8975    8.3894    0.7318 C.3     1  UNL1        0.1732
     31 C           4.5815    8.5201   -0.7518 C.3     1  UNL1        0.0017
     32 H           0.7071   -1.1660   -0.2937 H       1  UNL1        0.0293
     33 H           0.6476    0.5052   -0.8803 H       1  UNL1        0.0293
     34 H           0.6306    0.1308    0.8769 H       1  UNL1        0.0293
     35 H           5.3741   -2.5101    0.2372 H       1  UNL1        0.0852
     36 H           6.6010   -1.7095   -1.9138 H       1  UNL1        0.1487
     37 H           9.2100   -2.3609   -2.0981 H       1  UNL1        0.0636
     38 H          11.3893   -2.3014   -0.9176 H       1  UNL1        0.0618
     39 H          11.5234   -1.5776    1.4472 H       1  UNL1        0.0618
     40 H           9.4479   -0.9865    2.6856 H       1  UNL1        0.0629
     41 H           0.8449    2.0185    0.7749 H       1  UNL1        0.0290
     42 H           1.1407    3.6038    0.1650 H       1  UNL1        0.0290
     43 H           1.6055    3.1491    1.8258 H       1  UNL1        0.0290
     44 H           4.8480    3.2795    0.0935 H       1  UNL1        0.1458
     45 H           3.2009    4.6508    1.8046 H       1  UNL1        0.0464
     46 H           2.7262    5.2572    0.2053 H       1  UNL1        0.0464
     47 H           5.1156    5.8702   -0.1763 H       1  UNL1        0.0328
     48 H           5.5172    5.4229    1.4684 H       1  UNL1        0.0328
     49 H           2.4752    5.6536    3.1586 H       1  UNL1        0.0626
     50 H           1.0509    6.8001    4.6435 H       1  UNL1        0.0618
     51 H           1.0498    9.2350    4.8417 H       1  UNL1        0.0620
     52 H           2.4867   10.6810    3.4511 H       1  UNL1        0.0683
     53 H           4.3822   10.4609    1.4234 H       1  UNL1        0.4462
     54 H           5.9714    8.4474    0.9371 H       1  UNL1        0.1111
     55 H           3.5018    8.5384   -0.9436 H       1  UNL1        0.0297
     56 H           4.9914    7.6745   -1.3166 H       1  UNL1        0.0297
     57 H           5.0197    9.4271   -1.1778 H       1  UNL1        0.0297
@<TRIPOS>UNITY_ATOM_ATTR
29 1
charge 1
@<TRIPOS>BOND
     1     1     2    1
     2     2     3    2
     3     3     4    1
     4     4     5    1
     5     5     6    1
     6     6     7    1
     7     7     8   ar
     8     8     9   ar
     9     9    10   ar
    10    10    11   ar
    11    11    12   ar
    12     7    12   ar
    13    12    13    1
    14     5    13    1
    15     4    14   am
    16    14    15    2
    17    14    16    1
    18     2    16    1
    19    16    17    2
    20    17    18    1
    21    17    19    1
    22    19    20    1
    23    20    21    1
    24    21    22    1
    25    22    23    2
    26    23    24   ar
    27    24    25   ar
    28    25    26   ar
    29    26    27   ar
    30    27    28   ar
    31    23    28   ar
    32    28    29    2
    33    29    30    1
    34    22    30    1
    35    30    31    1
    36     1    32    1
    37     1    33    1
    38     1    34    1
    39     5    35    1
    40     6    36    1
    41     8    37    1
    42     9    38    1
    43    10    39    1
    44    11    40    1
    45    18    41    1
    46    18    42    1
    47    18    43    1
    48    19    44    1
    49    20    45    1
    50    20    46    1
    51    21    47    1
    52    21    48    1
    53    24    49    1
    54    25    50    1
    55    26    51    1
    56    27    52    1
    57    29    53    1
    58    30    54    1
    59    31    55    1
    60    31    56    1
    61    31    57    1
