REMARK  4 active torsions:
REMARK  status: ('A' for Active; 'I' for Inactive)
REMARK       I    between atoms: C_2  and  N_3 
REMARK    1  A    between atoms: C_2  and  C_14 
REMARK    2  A    between atoms: N_3  and  C_4 
REMARK    3  A    between atoms: C_4  and  N_6 
REMARK    4  A    between atoms: N_6  and  C_7 
ROOT
ATOM      1  O   UNL d   1       1.149   0.268  -0.112  0.00  0.00    -0.267 OA
ATOM      2  C   UNL d   1       2.351   0.047   0.056  0.00  0.00     0.257 C 
ATOM      3  N   UNL d   1       2.909  -0.960   0.878  0.00  0.00    -0.299 N 
ATOM      4  H   UNL d   1       3.919  -0.990   0.933  0.00  0.00     0.171 HD
ENDROOT
BRANCH   3   5
ATOM      5  C   UNL d   1       2.173  -1.835   1.715  0.00  0.00     0.179 C 
ATOM      6  S   UNL d   1       0.489  -1.736   1.859  0.00  0.00    -0.040 SA
BRANCH   5   7
ATOM      7  N   UNL d   1       2.964  -2.773   2.439  0.00  0.00    -0.333 N 
ATOM      8  H   UNL d   1       3.931  -2.540   2.634  0.00  0.00     0.168 HD
BRANCH   7   9
ATOM      9  C   UNL d   1       2.375  -3.728   3.351  0.00  0.00     0.034 A 
ATOM     10  C   UNL d   1       1.307  -4.542   2.939  0.00  0.00     0.031 A 
ATOM     11  C   UNL d   1       0.562  -5.297   3.850  0.00  0.00     0.026 A 
ATOM     12  C   UNL d   1       0.923  -5.304   5.189  0.00  0.00     0.034 A 
ATOM     13 CL   UNL d   1      -0.017  -6.201   6.318  0.00  0.00    -0.084 Cl
ATOM     14  C   UNL d   1       2.044  -4.585   5.608  0.00  0.00     0.026 A 
ATOM     15  C   UNL d   1       2.784  -3.809   4.689  0.00  0.00     0.031 A 
ENDBRANCH   7   9
ENDBRANCH   5   7
ENDBRANCH   3   5
BRANCH   2  16
ATOM     16  C   UNL d   1       3.228   0.962  -0.708  0.00  0.00     0.035 A 
ATOM     17  C   UNL d   1       2.833   2.324  -0.845  0.00  0.00     0.020 A 
ATOM     18  C   UNL d   1       3.609   3.235  -1.571  0.00  0.00     0.041 A 
ATOM     19  C   UNL d   1       4.744   2.746  -2.177  0.00  0.00     0.105 A 
ATOM     20  C   UNL d   1       5.087   1.413  -2.103  0.00  0.00     0.106 A 
ATOM     21  O   UNL d   1       5.636   3.471  -2.901  0.00  0.00    -0.323 OA
ATOM     22  C   UNL d   1       4.349   0.490  -1.387  0.00  0.00     0.056 A 
ATOM     23  O   UNL d   1       6.220   1.134  -2.802  0.00  0.00    -0.323 OA
ATOM     24  C   UNL d   1       6.527   2.432  -3.355  0.00  0.00     0.352 A 
ENDBRANCH   2  16
TORSDOF 4
