@<TRIPOS>MOLECULE
*****
 54 58 0 0 0
SMALL
GASTEIGER

@<TRIPOS>ATOM
      1 C           0.8744    0.0767    0.0501 C.3     1  UNL1       -0.0442
      2 C           2.3951   -0.0276    0.0597 C.3     1  UNL1        0.0464
      3 N           2.8864    1.2324   -0.5282 N.3     1  UNL1       -0.2334
      4 N           3.6781    1.1531   -1.6958 N.am    1  UNL1       -0.2465
      5 C           4.0877    0.0004   -2.3247 C.2     1  UNL1        0.2578
      6 O           4.7941    0.0205   -3.3318 O.2     1  UNL1       -0.2691
      7 C           3.6212   -1.2423   -1.7356 C.2     1  UNL1        0.0652
      8 C           2.8560   -1.2497   -0.6474 C.2     1  UNL1       -0.0111
      9 C           2.5834   -2.6573   -0.2553 C.3     1  UNL1        0.0818
     10 C           1.1149   -3.0494   -0.3049 C.3     1  UNL1       -0.0346
     11 O           3.2674   -3.4622   -1.2465 O.3     1  UNL1       -0.3472
     12 C           3.9725   -2.6001   -2.1651 C.3     1  UNL1        0.1566
     13 N           3.5055   -2.9015   -3.4933 N.am    1  UNL1       -0.2834
     14 C           4.2216   -3.8000   -4.2609 C.2     1  UNL1        0.2529
     15 O           5.2248   -4.3620   -3.8225 O.2     1  UNL1       -0.2720
     16 C           3.7262   -4.0418   -5.6927 C.3     1  UNL1        0.1685
     17 O           4.5817   -5.0172   -6.3380 O.3     1  UNL1       -0.4506
     18 C           4.2048   -5.3519   -7.5956 C.2     1  UNL1        0.3604
     19 O           3.2164   -4.8966   -8.1550 O.2     1  UNL1       -0.2431
     20 C           5.1773   -6.2609   -8.2830 C.ar    1  UNL1        0.1756
     21 N           5.5935   -7.3939   -7.6375 N.ar    1  UNL1       -0.2449
     22 C           6.3184   -8.2634   -8.3949 C.ar    1  UNL1        0.0466
     23 C           6.6331   -8.0269   -9.7243 C.ar    1  UNL1        0.0465
     24 N           6.2548   -6.8968  -10.3570 N.ar    1  UNL1       -0.2490
     25 C           5.5154   -6.0135   -9.6148 C.ar    1  UNL1        0.1282
     26 C           5.0675   -4.8292  -10.3409 C.ar    1  UNL1        0.1299
     27 N           4.2656   -4.8563  -11.3828 N.ar    1  UNL1       -0.2374
     28 C           3.9221   -3.5693  -11.7393 C.ar    1  UNL1        0.0789
     29 C           3.0494   -3.2222  -12.7861 C.ar    1  UNL1       -0.0352
     30 C           2.7864   -1.8765  -13.0497 C.ar    1  UNL1       -0.0597
     31 C           3.3676   -0.8792  -12.2720 C.ar    1  UNL1       -0.0606
     32 C           4.2311   -1.1985  -11.2192 C.ar    1  UNL1       -0.0459
     33 C           4.5066   -2.5539  -10.9804 C.ar    1  UNL1        0.0396
     34 S           5.5558   -3.2620   -9.8163 S.2     1  UNL1       -0.0656
     35 H           0.5261    1.0461    0.4156 H       1  UNL1        0.0248
     36 H           0.4263   -0.6555    0.7217 H       1  UNL1        0.0248
     37 H           0.4747   -0.0802   -0.9595 H       1  UNL1        0.0248
     38 H           2.7553   -0.0725    1.0960 H       1  UNL1        0.0521
     39 H           3.4073    1.7474    0.1848 H       1  UNL1        0.1449
     40 H           3.9572    2.0177   -2.1534 H       1  UNL1        0.1693
     41 H           3.0092   -2.8869    0.7292 H       1  UNL1        0.0642
     42 H           0.6796   -2.7899   -1.2772 H       1  UNL1        0.0258
     43 H           0.5324   -2.5698    0.4810 H       1  UNL1        0.0258
     44 H           0.9878   -4.1257   -0.1666 H       1  UNL1        0.0258
     45 H           5.0455   -2.7869   -2.0598 H       1  UNL1        0.0863
     46 H           2.6741   -2.4429   -3.8372 H       1  UNL1        0.1516
     47 H           3.7703   -3.0926   -6.2435 H       1  UNL1        0.0796
     48 H           2.6939   -4.4096   -5.6599 H       1  UNL1        0.0796
     49 H           6.6371   -9.1811   -7.9089 H       1  UNL1        0.0845
     50 H           7.1944   -8.7414  -10.3201 H       1  UNL1        0.0845
     51 H           2.5967   -4.0092  -13.3802 H       1  UNL1        0.0639
     52 H           2.1237   -1.6138  -13.8699 H       1  UNL1        0.0618
     53 H           3.1532    0.1645  -12.4900 H       1  UNL1        0.0618
     54 H           4.6832   -0.4193  -10.6132 H       1  UNL1        0.0629
@<TRIPOS>BOND
     1     1     2    1
     2     2     3    1
     3     3     4    1
     4     4     5   am
     5     5     6    2
     6     5     7    1
     7     7     8    2
     8     2     8    1
     9     8     9    1
    10     9    10    1
    11     9    11    1
    12    11    12    1
    13     7    12    1
    14    13    14   am
    15    14    15    2
    16    14    16    1
    17    16    17    1
    18    17    18    1
    19    18    19    2
    20    18    20    1
    21    20    21   ar
    22    21    22   ar
    23    22    23   ar
    24    23    24   ar
    25    24    25   ar
    26    20    25   ar
    27    25    26    1
    28    26    27   ar
    29    27    28   ar
    30    28    29   ar
    31    29    30   ar
    32    30    31   ar
    33    31    32   ar
    34    32    33   ar
    35    28    33   ar
    36    33    34   ar
    37    26    34   ar
    38    12    13    1
    39     1    35    1
    40     1    36    1
    41     1    37    1
    42     2    38    1
    43     3    39    1
    44     4    40    1
    45     9    41    1
    46    10    42    1
    47    10    43    1
    48    10    44    1
    49    12    45    1
    50    13    46    1
    51    16    47    1
    52    16    48    1
    53    22    49    1
    54    23    50    1
    55    29    51    1
    56    30    52    1
    57    31    53    1
    58    32    54    1
