@<TRIPOS>MOLECULE
*****
 62 65 0 0 0
SMALL
GASTEIGER

@<TRIPOS>ATOM
      1 C           1.1426   -0.0624    0.0565 C.3     1  UNL1       -0.0544
      2 C           2.6875   -0.0486    0.1380 C.3     1  UNL1        0.0303
      3 C           3.1625    1.2938   -0.4117 C.3     1  UNL1       -0.0544
      4 C           3.1479   -0.2952    1.6025 C.2     1  UNL1        0.2219
      5 O           2.2803   -0.4167    2.4678 O.2     1  UNL1       -0.2751
      6 N           4.5147   -0.2836    1.8547 N.am    1  UNL1       -0.2543
      7 C           5.0462   -0.5405    3.1484 C.ar    1  UNL1        0.2227
      8 N           4.4675   -1.5012    3.8688 N.ar    1  UNL1       -0.2286
      9 C           4.9435   -1.8796    5.0859 C.ar    1  UNL1        0.0169
     10 O           4.4409   -2.9680    5.5079 O.co2   1  UNL1       -0.8588
     11 C           5.9761   -1.1476    5.6850 C.ar    1  UNL1        0.0878
     12 C           6.5586   -0.1501    4.8320 C.ar    1  UNL1        0.1452
     13 N           6.1549    0.1151    3.5511 N.ar    1  UNL1       -0.1975
     14 N           7.6254    0.6407    5.3031 N.pl3   1  UNL1       -0.3231
     15 C           7.8263    0.6881    6.7360 C.3     1  UNL1        0.0379
     16 C           6.7266    1.5012    7.4435 C.3     1  UNL1       -0.0449
     17 C           7.8909   -0.7834    7.2291 C.3     1  UNL1        0.0468
     18 C           8.5870   -0.8059    8.5840 C.3     1  UNL1       -0.0443
     19 N           6.5217   -1.4032    7.0768 N.am    1  UNL1       -0.2589
     20 C           5.7471   -2.0570    8.0704 C.2     1  UNL1        0.2569
     21 O           4.5255   -2.2473    8.1381 O.2     1  UNL1       -0.2694
     22 C           6.3063   -2.4156    9.3809 C.ar    1  UNL1        0.1007
     23 C           6.5664   -3.7118    9.7894 C.ar    1  UNL1       -0.0383
     24 C           7.1222   -3.9188   11.0534 C.ar    1  UNL1        0.0028
     25 C           7.4295   -2.8271   11.8687 C.ar    1  UNL1        0.1716
     26 N           7.1041   -1.5687   11.4802 N.ar    1  UNL1       -0.1988
     27 C           7.5554   -0.4216   12.3453 C.3     1  UNL1        0.1758
     28 C           7.2333    0.9567   11.8220 C.ar    1  UNL1        0.0172
     29 C           8.2297    1.9195   11.5919 C.ar    1  UNL1       -0.0526
     30 C           7.8831    3.1698   11.0702 C.ar    1  UNL1       -0.0613
     31 C           6.5577    3.4510   10.7368 C.ar    1  UNL1       -0.0617
     32 C           5.5673    2.5012   10.9524 C.ar    1  UNL1       -0.0613
     33 C           5.8956    1.2905   11.5468 C.ar    1  UNL1       -0.0526
     34 C           6.4435   -1.3968   10.3041 C.ar    1  UNL1        0.1837
     35 H           0.7833    0.1095   -0.9654 H       1  UNL1        0.0237
     36 H           0.7088    0.7235    0.6888 H       1  UNL1        0.0237
     37 H           0.7312   -1.0188    0.3968 H       1  UNL1        0.0237
     38 H           3.0622   -0.8608   -0.4970 H       1  UNL1        0.0389
     39 H           2.8036    2.1191    0.2133 H       1  UNL1        0.0237
     40 H           2.7807    1.4602   -1.4276 H       1  UNL1        0.0237
     41 H           4.2523    1.3480   -0.4541 H       1  UNL1        0.0237
     42 H           5.1791    0.0315    1.1714 H       1  UNL1        0.1577
     43 H           7.9808    1.3503    4.6794 H       1  UNL1        0.1478
     44 H           8.7868    1.1808    6.9438 H       1  UNL1        0.0513
     45 H           5.7212    1.1188    7.2386 H       1  UNL1        0.0248
     46 H           6.7396    2.5503    7.1367 H       1  UNL1        0.0248
     47 H           6.8537    1.4743    8.5274 H       1  UNL1        0.0248
     48 H           8.5482   -1.3593    6.5613 H       1  UNL1        0.0520
     49 H           8.0755   -0.1388    9.2717 H       1  UNL1        0.0248
     50 H           9.6078   -0.4198    8.5699 H       1  UNL1        0.0248
     51 H           8.6560   -1.8222    8.9744 H       1  UNL1        0.0248
     52 H           6.3190   -4.5426    9.1314 H       1  UNL1        0.0629
     53 H           7.3334   -4.9304   11.3924 H       1  UNL1        0.0677
     54 H           7.9297   -2.9468   12.8268 H       1  UNL1        0.1376
     55 H           8.6423   -0.5388   12.4703 H       1  UNL1        0.1085
     56 H           7.0823   -0.5559   13.3237 H       1  UNL1        0.1085
     57 H           9.2800    1.7262   11.8088 H       1  UNL1        0.0622
     58 H           8.6444    3.9314   10.9096 H       1  UNL1        0.0618
     59 H           6.2909    4.4120   10.3036 H       1  UNL1        0.0618
     60 H           4.5410    2.6892   10.6429 H       1  UNL1        0.0618
     61 H           5.0958    0.5656   11.7019 H       1  UNL1        0.0622
     62 H           6.1406   -0.4076    9.9891 H       1  UNL1        0.1384
@<TRIPOS>UNITY_ATOM_ATTR
10 1
charge -1
26 1
charge 1
@<TRIPOS>BOND
     1     1     2    1
     2     2     3    1
     3     2     4    1
     4     4     5    2
     5     4     6   am
     6     6     7    1
     7     7     8   ar
     8     8     9   ar
     9     9    10    1
    10     9    11   ar
    11    11    12   ar
    12    12    13   ar
    13     7    13   ar
    14    12    14    1
    15    14    15    1
    16    15    17    1
    17    17    18    1
    18    17    19    1
    19    11    19    1
    20    19    20   am
    21    20    21    2
    22    20    22    1
    23    22    23   ar
    24    23    24   ar
    25    24    25   ar
    26    25    26   ar
    27    26    27    1
    28    27    28    1
    29    28    29   ar
    30    29    30   ar
    31    30    31   ar
    32    31    32   ar
    33    32    33   ar
    34    28    33   ar
    35    26    34   ar
    36    22    34   ar
    37    15    16    1
    38     1    35    1
    39     1    36    1
    40     1    37    1
    41     2    38    1
    42     3    39    1
    43     3    40    1
    44     3    41    1
    45     6    42    1
    46    14    43    1
    47    15    44    1
    48    16    45    1
    49    16    46    1
    50    16    47    1
    51    17    48    1
    52    18    49    1
    53    18    50    1
    54    18    51    1
    55    23    52    1
    56    24    53    1
    57    25    54    1
    58    27    55    1
    59    27    56    1
    60    29    57    1
    61    30    58    1
    62    31    59    1
    63    32    60    1
    64    33    61    1
    65    34    62    1
