@<TRIPOS>MOLECULE
*****
 44 46 0 0 0
SMALL
GASTEIGER

@<TRIPOS>ATOM
      1 C           0.9745   -0.0560   -0.0055 C.3     1  UNL1       -0.0376
      2 C           2.4788   -0.0271    0.0095 C.2     1  UNL1       -0.0147
      3 C           3.2552    1.0807   -0.0168 C.2     1  UNL1        0.1175
      4 C           2.5214    2.4118   -0.0021 C.1     1  UNL1        0.1047
      5 N           1.9126    3.5160    0.0100 N.1     1  UNL1       -0.1907
      6 C           4.7176    1.1068    0.0054 C.2     1  UNL1        0.2640
      7 O           5.3218    2.1734   -0.0242 O.2     1  UNL1       -0.2688
      8 N           5.3104   -0.1394    0.0129 N.am    1  UNL1       -0.2288
      9 C           6.7863   -0.1939   -0.0206 C.3     1  UNL1        0.0550
     10 C           7.3707   -0.8815   -1.2669 C.3     1  UNL1       -0.0129
     11 C           7.3648   -2.4105   -1.0575 C.3     1  UNL1        0.0676
     12 S           7.2764   -2.6546    0.7714 S.O2    1  UNL1       -0.0292
     13 O           5.9955   -3.1243    1.2712 O.2     1  UNL1       -0.1743
     14 O           8.4958   -3.2973    1.2076 O.2     1  UNL1       -0.1743
     15 C           7.3643   -0.9253    1.1870 C.3     1  UNL1        0.0848
     16 C           4.5618   -1.2646   -0.2510 C.2     1  UNL1        0.2549
     17 O           4.9857   -2.2308   -0.8792 O.2     1  UNL1       -0.2695
     18 C           3.1270   -1.3032    0.0181 C.2     1  UNL1        0.0553
     19 C           2.5738   -2.5396    0.0487 C.2     1  UNL1        0.0062
     20 N           3.2216   -3.7642    0.0845 N.pl3   1  UNL1       -0.3198
     21 C           2.6697   -5.0457   -0.0189 C.ar    1  UNL1        0.0311
     22 C           1.5834   -5.3099   -0.8580 C.ar    1  UNL1       -0.0371
     23 C           0.9684   -6.5642   -0.8668 C.ar    1  UNL1       -0.0184
     24 C           1.4389   -7.5592   -0.0176 C.ar    1  UNL1        0.1170
     25 O           0.8642   -8.7944    0.0310 O.3     1  UNL1       -0.5068
     26 C           2.5215   -7.3222    0.8197 C.ar    1  UNL1       -0.0184
     27 C           3.1473   -6.0729    0.8067 C.ar    1  UNL1       -0.0371
     28 H           0.5166    0.9336   -0.0136 H       1  UNL1        0.0278
     29 H           0.5999   -0.5795    0.8808 H       1  UNL1        0.0278
     30 H           0.6211   -0.5801   -0.9016 H       1  UNL1        0.0278
     31 H           7.1664    0.8364    0.0037 H       1  UNL1        0.0522
     32 H           8.4142   -0.5707   -1.3855 H       1  UNL1        0.0299
     33 H           6.8397   -0.5659   -2.1746 H       1  UNL1        0.0299
     34 H           8.2806   -2.8690   -1.4187 H       1  UNL1        0.0500
     35 H           6.5995   -2.9175   -1.6502 H       1  UNL1        0.0500
     36 H           8.4252   -0.6882    1.3075 H       1  UNL1        0.0518
     37 H           6.8272   -0.7019    2.1131 H       1  UNL1        0.0518
     38 H           1.4985   -2.6718    0.0747 H       1  UNL1        0.0789
     39 H           4.2484   -3.7326    0.1300 H       1  UNL1        0.1516
     40 H           1.2321   -4.5356   -1.5337 H       1  UNL1        0.0637
     41 H           0.1272   -6.7301   -1.5305 H       1  UNL1        0.0655
     42 H           0.1456   -8.8346   -0.6201 H       1  UNL1        0.2921
     43 H           2.8654   -8.1015    1.4937 H       1  UNL1        0.0655
     44 H           3.9832   -5.8931    1.4804 H       1  UNL1        0.0637
@<TRIPOS>BOND
     1     1     2    1
     2     2     3    2
     3     3     4    1
     4     4     5    3
     5     3     6    1
     6     6     7    2
     7     6     8   am
     8     8     9    1
     9     9    10    1
    10    10    11    1
    11    11    12    1
    12    12    13    2
    13    12    14    2
    14    12    15    1
    15     9    15    1
    16     8    16   am
    17    16    17    2
    18    16    18    1
    19     2    18    1
    20    18    19    2
    21    19    20    1
    22    20    21    1
    23    21    22   ar
    24    22    23   ar
    25    23    24   ar
    26    24    25    1
    27    24    26   ar
    28    26    27   ar
    29    21    27   ar
    30     1    28    1
    31     1    29    1
    32     1    30    1
    33     9    31    1
    34    10    32    1
    35    10    33    1
    36    11    34    1
    37    11    35    1
    38    15    36    1
    39    15    37    1
    40    19    38    1
    41    20    39    1
    42    22    40    1
    43    23    41    1
    44    25    42    1
    45    26    43    1
    46    27    44    1
