@<TRIPOS>MOLECULE
*****
 53 55 0 0 0
SMALL
GASTEIGER

@<TRIPOS>ATOM
      1 C           1.0074   -0.1817    0.0777 C.3     1  UNL1       -0.0587
      2 C           2.5440   -0.0481    0.0112 C.3     1  UNL1       -0.0215
      3 C           3.0612   -1.1642   -0.9135 C.3     1  UNL1       -0.0587
      4 C           3.0220    1.3641   -0.3575 C.ar    1  UNL1       -0.0446
      5 C           4.2881    1.6232   -0.9114 C.ar    1  UNL1       -0.0549
      6 C           4.7102    2.9450   -1.2086 C.ar    1  UNL1       -0.0197
      7 C           3.8790    4.0499   -0.9665 C.ar    1  UNL1        0.1205
      8 O           4.3406    5.3115   -1.3191 O.3     1  UNL1       -0.4915
      9 C           3.3919    6.4169   -1.1850 C.3     1  UNL1        0.0979
     10 C           3.9479    7.7941   -1.7151 C.3     1  UNL1        0.0595
     11 C           2.9803    9.0547   -1.5154 C.2     1  UNL1        0.2323
     12 O           1.8716    8.8973   -0.9955 O.2     1  UNL1       -0.2742
     13 N           3.4217   10.3555   -1.9414 N.am    1  UNL1       -0.2343
     14 N           2.5702   11.6901   -1.6141 N.am    1  UNL1       -0.2341
     15 C           2.9740   13.0806   -1.9425 C.2     1  UNL1        0.2335
     16 O           4.0259   13.2651   -2.5691 O.2     1  UNL1       -0.2739
     17 C           1.9119   14.4065   -1.4128 C.3     1  UNL1        0.0525
     18 C           1.8592   16.0164   -2.0619 C.ar    1  UNL1       -0.0136
     19 C           1.5197   15.9932   -3.4367 C.ar    1  UNL1        0.0064
     20 N           2.5144   16.8984   -3.8018 N.ar    1  UNL1       -0.3604
     21 C           2.0524   18.0741   -3.2621 C.ar    1  UNL1        0.0467
     22 C           1.9757   19.2854   -3.9310 C.ar    1  UNL1       -0.0378
     23 C           1.3601   20.4008   -3.4425 C.ar    1  UNL1       -0.0598
     24 C           0.8940   20.2473   -2.1441 C.ar    1  UNL1       -0.0611
     25 C           1.0292   18.9417   -1.3733 C.ar    1  UNL1       -0.0523
     26 C           1.6131   17.6922   -1.9613 C.ar    1  UNL1        0.0033
     27 C           2.6394    3.7951   -0.3848 C.ar    1  UNL1       -0.0197
     28 C           2.2282    2.4867   -0.0757 C.ar    1  UNL1       -0.0549
     29 H           0.7025   -1.2046    0.3268 H       1  UNL1        0.0235
     30 H           0.5477    0.0834   -0.8816 H       1  UNL1        0.0235
     31 H           0.5728    0.4608    0.8505 H       1  UNL1        0.0235
     32 H           2.9315   -0.2528    1.0186 H       1  UNL1        0.0343
     33 H           2.7486   -0.9996   -1.9502 H       1  UNL1        0.0235
     34 H           2.6722   -2.1417   -0.5996 H       1  UNL1        0.0235
     35 H           4.1521   -1.2452   -0.8942 H       1  UNL1        0.0235
     36 H           4.9764    0.8061   -1.1245 H       1  UNL1        0.0622
     37 H           5.6989    3.0880   -1.6410 H       1  UNL1        0.0654
     38 H           3.1457    6.5132   -0.1214 H       1  UNL1        0.0701
     39 H           2.4916    6.1521   -1.7520 H       1  UNL1        0.0701
     40 H           4.1807    7.6612   -2.7780 H       1  UNL1        0.0392
     41 H           4.8966    7.9778   -1.1991 H       1  UNL1        0.0392
     42 H           4.3271   10.5063   -2.3816 H       1  UNL1        0.1728
     43 H           1.6366   11.4496   -1.2885 H       1  UNL1        0.1728
     44 H           1.6536   14.3269   -0.3533 H       1  UNL1        0.0408
     45 H           1.0515   14.0466   -1.9738 H       1  UNL1        0.0408
     46 H           0.5092   16.2427   -3.8054 H       1  UNL1        0.0810
     47 H           3.5066   16.7286   -3.7087 H       1  UNL1        0.1653
     48 H           2.3656   19.2853   -4.9428 H       1  UNL1        0.0638
     49 H           1.2420   21.2805   -4.0809 H       1  UNL1        0.0618
     50 H           0.3863   21.1355   -1.7376 H       1  UNL1        0.0618
     51 H           0.6067   19.0854   -0.3708 H       1  UNL1        0.0624
     52 H           1.9431    4.5911   -0.1483 H       1  UNL1        0.0654
     53 H           1.2547    2.3837    0.3965 H       1  UNL1        0.0622
@<TRIPOS>BOND
     1     1     2    1
     2     2     3    1
     3     2     4    1
     4     4     5   ar
     5     5     6   ar
     6     6     7   ar
     7     7     8    1
     8     8     9    1
     9     9    10    1
    10    10    11    1
    11    11    12    2
    12    11    13   am
    13    13    14    1
    14    14    15   am
    15    15    16    2
    16    15    17    1
    17    17    18    1
    18    18    19   ar
    19    19    20   ar
    20    20    21   ar
    21    21    22   ar
    22    22    23   ar
    23    23    24   ar
    24    24    25   ar
    25    25    26   ar
    26    18    26   ar
    27    21    26   ar
    28     7    27   ar
    29    27    28   ar
    30     4    28   ar
    31     1    29    1
    32     1    30    1
    33     1    31    1
    34     2    32    1
    35     3    33    1
    36     3    34    1
    37     3    35    1
    38     5    36    1
    39     6    37    1
    40     9    38    1
    41     9    39    1
    42    10    40    1
    43    10    41    1
    44    13    42    1
    45    14    43    1
    46    17    44    1
    47    17    45    1
    48    19    46    1
    49    20    47    1
    50    22    48    1
    51    23    49    1
    52    24    50    1
    53    25    51    1
    54    27    52    1
    55    28    53    1
