@<TRIPOS>MOLECULE
*****
 40 41 0 0 0
SMALL
GASTEIGER

@<TRIPOS>ATOM
      1 C           1.1414    0.3820    0.0491 C.3     1  UNL1       -0.0380
      2 C           2.6090    0.1423    0.0232 C.ar    1  UNL1       -0.0292
      3 C           3.3754    1.3198    0.0365 C.ar    1  UNL1       -0.0559
      4 C           4.7350    1.2834   -0.1911 C.ar    1  UNL1       -0.0440
      5 C           5.3688    0.0478   -0.2829 C.ar    1  UNL1        0.0535
      6 C           6.7817    0.0500   -0.5698 C.1     1  UNL1        0.0992
      7 N           7.9056    0.1158   -0.8337 N.1     1  UNL1       -0.1909
      8 C           4.6210   -1.1537   -0.1406 C.ar    1  UNL1       -0.0228
      9 C           3.2026   -1.1352   -0.0661 C.ar    1  UNL1        0.0379
     10 N           2.4606   -2.3834   -0.1240 N.am    1  UNL1       -0.2775
     11 C           1.0678   -2.5787   -0.1585 C.2     1  UNL1        0.3031
     12 O           0.1367   -1.7806   -0.0992 O.2     1  UNL1       -0.2648
     13 C           0.4939   -3.9833   -0.2904 C.2     1  UNL1        0.2997
     14 O           1.2221   -4.9534   -0.3885 O.2     1  UNL1       -0.2652
     15 N          -0.9036   -3.9464   -0.2582 N.am    1  UNL1       -0.3010
     16 C          -1.7730   -5.1045   -0.2711 C.3     1  UNL1        0.0460
     17 C          -1.4218   -5.9817    0.9265 C.3     1  UNL1       -0.0424
     18 C          -3.2847   -4.8151   -0.2894 C.ar    1  UNL1       -0.0274
     19 C          -4.1899   -5.9021   -0.3078 C.ar    1  UNL1       -0.0554
     20 C          -5.5646   -5.7127   -0.4928 C.ar    1  UNL1       -0.0431
     21 C          -6.0779   -4.4247   -0.5424 C.ar    1  UNL1        0.0410
     22 CL         -7.7530   -4.1746   -0.8396 Cl      1  UNL1       -0.0835
     23 C          -5.2298   -3.3352   -0.3835 C.ar    1  UNL1       -0.0431
     24 C          -3.8414   -3.5263   -0.3233 C.ar    1  UNL1       -0.0554
     25 H           0.8301    1.4227    0.1051 H       1  UNL1        0.0278
     26 H           0.7464   -0.0919    0.9524 H       1  UNL1        0.0278
     27 H           0.7517    0.0286   -0.9134 H       1  UNL1        0.0278
     28 H           2.8787    2.2776    0.1811 H       1  UNL1        0.0621
     29 H           5.2737    2.2229   -0.3039 H       1  UNL1        0.0630
     30 H           5.1783   -2.0895   -0.1110 H       1  UNL1        0.0649
     31 H           3.0081   -3.2382   -0.2012 H       1  UNL1        0.1553
     32 H          -1.2863   -3.0069   -0.1552 H       1  UNL1        0.1497
     33 H          -1.5334   -5.6221   -1.2077 H       1  UNL1        0.0545
     34 H          -1.6846   -5.4735    1.8611 H       1  UNL1        0.0251
     35 H          -0.3523   -6.2005    0.9624 H       1  UNL1        0.0251
     36 H          -1.9352   -6.9435    0.8919 H       1  UNL1        0.0251
     37 H          -3.8366   -6.9254   -0.1929 H       1  UNL1        0.0621
     38 H          -6.2209   -6.5725   -0.6028 H       1  UNL1        0.0632
     39 H          -5.6356   -2.3282   -0.3296 H       1  UNL1        0.0632
     40 H          -3.2265   -2.6331   -0.3140 H       1  UNL1        0.0621
@<TRIPOS>BOND
     1     1     2    1
     2     2     3   ar
     3     3     4   ar
     4     4     5   ar
     5     5     6    1
     6     6     7    3
     7     5     8   ar
     8     8     9   ar
     9     2     9   ar
    10     9    10    1
    11    10    11   am
    12    11    12    2
    13    11    13    1
    14    13    14    2
    15    13    15   am
    16    15    16    1
    17    16    17    1
    18    16    18    1
    19    18    19   ar
    20    19    20   ar
    21    20    21   ar
    22    21    22    1
    23    21    23   ar
    24    23    24   ar
    25    18    24   ar
    26     1    25    1
    27     1    26    1
    28     1    27    1
    29     3    28    1
    30     4    29    1
    31     8    30    1
    32    10    31    1
    33    15    32    1
    34    16    33    1
    35    17    34    1
    36    17    35    1
    37    17    36    1
    38    19    37    1
    39    20    38    1
    40    23    39    1
    41    24    40    1
