REMARK  9 active torsions:
REMARK  status: ('A' for Active; 'I' for Inactive)
REMARK    1  A    between atoms: O_2  and  C_3 
REMARK    2  A    between atoms: C_5  and  C_6 
REMARK    3  A    between atoms: C_6  and  N_7 
REMARK       I    between atoms: N_7  and  C_8 
REMARK    4  A    between atoms: C_8  and  C_10 
REMARK    5  A    between atoms: C_10  and  C_11 
REMARK    6  A    between atoms: C_11  and  C_12 
REMARK    7  A    between atoms: C_12  and  N_13 
REMARK       I    between atoms: N_13  and  C_14 
REMARK    8  A    between atoms: C_14  and  C_16 
REMARK    9  A    between atoms: C_22  and  O_23 
ROOT
ATOM      1  N   UNL d   1       7.500   3.496  -0.060  0.00  0.00    -0.357 N 
ATOM      2  C   UNL d   1       8.868   3.598  -0.081  0.00  0.00     0.217 C 
ATOM      3  O   UNL d   1       9.605   2.614  -0.080  0.00  0.00    -0.274 OA
ATOM      4  H   UNL d   1       6.972   4.352  -0.062  0.00  0.00     0.162 HD
ENDROOT
BRANCH   1   5
ATOM      5  C   UNL d   1       6.816   2.205  -0.035  0.00  0.00     0.161 C 
BRANCH   5   6
ATOM      6  C   UNL d   1       5.297   2.279  -0.014  0.00  0.00    -0.038 A 
ATOM      7  C   UNL d   1       4.528   1.094   0.009  0.00  0.00     0.048 A 
ATOM      8  C   UNL d   1       3.116   1.126   0.025  0.00  0.00     0.101 A 
ATOM      9  C   UNL d   1       2.468   2.367   0.037  0.00  0.00     0.099 A 
ATOM     10  C   UNL d   1       3.209   3.541   0.014  0.00  0.00     0.040 A 
ATOM     11  C   UNL d   1       4.601   3.494  -0.016  0.00  0.00     0.012 A 
BRANCH   8  12
ATOM     12  O   UNL d   1       2.520  -0.112   0.028  0.00  0.00    -0.353 OA
ATOM     13  C   UNL d   1       1.095  -0.134   0.015  0.00  0.00     0.210 C 
ENDBRANCH   8  12
BRANCH   9  14
ATOM     14  O   UNL d   1       1.106   2.478   0.072  0.00  0.00    -0.358 OA
ATOM     15  H   UNL d   1       0.846   3.412   0.096  0.00  0.00     0.217 HD
ENDBRANCH   9  14
ENDBRANCH   5   6
ENDBRANCH   1   5
BRANCH   2  16
ATOM     16  C   UNL d   1       9.391   5.034  -0.107  0.00  0.00     0.104 C 
BRANCH  16  17
ATOM     17  C   UNL d   1      10.924   5.045  -0.129  0.00  0.00     0.029 C 
BRANCH  17  18
ATOM     18  C   UNL d   1      11.514   6.450  -0.155  0.00  0.00     0.123 C 
BRANCH  18  19
ATOM     19  N   UNL d   1      12.970   6.442  -0.176  0.00  0.00    -0.360 N 
ATOM     20  C   UNL d   1      13.678   7.628  -0.201  0.00  0.00     0.225 C 
ATOM     21  O   UNL d   1      13.098   8.713  -0.206  0.00  0.00    -0.273 OA
ATOM     22  H   UNL d   1      13.460   5.556  -0.172  0.00  0.00     0.162 HD
BRANCH  20  23
ATOM     23  C   UNL d   1      15.221   7.518  -0.222  0.00  0.00     0.030 C 
ATOM     24  C   UNL d   1      15.731   6.797   1.033  0.00  0.00     0.024 C 
ATOM     25  C   UNL d   1      15.695   6.766  -1.472  0.00  0.00     0.024 C 
ATOM     26  C   UNL d   1      15.830   8.934  -0.248  0.00  0.00     0.024 C 
ENDBRANCH  20  23
ENDBRANCH  18  19
ENDBRANCH  17  18
ENDBRANCH  16  17
ENDBRANCH   2  16
TORSDOF 9
