@<TRIPOS>MOLECULE
*****
 47 48 0 0 0
SMALL
GASTEIGER

@<TRIPOS>ATOM
      1 C           1.0387   -0.2308   -0.0116 C.3     1  UNL1        0.0790
      2 O           2.4591   -0.1866   -0.0104 O.3     1  UNL1       -0.4914
      3 C           3.0442    1.0553    0.0014 C.ar    1  UNL1        0.1616
      4 C           4.4464    1.0128    0.0054 C.ar    1  UNL1       -0.0163
      5 C           5.1929    2.1887   -0.0172 C.ar    1  UNL1       -0.0578
      6 C           4.5377    3.4223   -0.0074 C.ar    1  UNL1       -0.0534
      7 C           3.1280    3.5081    0.0143 C.ar    1  UNL1        0.0147
      8 C           2.5112    4.8982    0.0084 C.3     1  UNL1        0.0404
      9 N           1.0593    4.8926    0.0833 N.am    1  UNL1       -0.3111
     10 C           0.2896    6.0237    0.0609 C.2     1  UNL1        0.2133
     11 O           0.7627    7.1620    0.0437 O.2     1  UNL1       -0.2758
     12 C          -1.2102    5.7277    0.0717 C.3     1  UNL1        0.0254
     13 C          -1.9991    7.0359    0.0774 C.3     1  UNL1       -0.0291
     14 C          -3.5103    6.8521    0.1139 C.3     1  UNL1        0.0123
     15 N          -4.2033    8.1334    0.1098 N.am    1  UNL1       -0.3113
     16 C          -5.5818    8.1952    0.2007 C.2     1  UNL1        0.2441
     17 O          -6.2933    7.2027    0.2877 O.2     1  UNL1       -0.2702
     18 C          -6.2042    9.5502    0.1771 C.ar    1  UNL1        0.0367
     19 C          -7.3321    9.8016    0.9721 C.ar    1  UNL1       -0.0496
     20 C          -8.0391   11.0011    0.8328 C.ar    1  UNL1       -0.0610
     21 C          -7.5867   11.9785   -0.0523 C.ar    1  UNL1       -0.0617
     22 C          -6.4531   11.7411   -0.8303 C.ar    1  UNL1       -0.0610
     23 C          -5.7655   10.5271   -0.7236 C.ar    1  UNL1       -0.0496
     24 C           2.3935    2.3040   -0.0180 C.ar    1  UNL1        0.1632
     25 O           1.0318    2.3662   -0.2215 O.3     1  UNL1       -0.5031
     26 H           0.7175   -1.2743   -0.0065 H       1  UNL1        0.0660
     27 H           0.6342    0.2148   -0.9265 H       1  UNL1        0.0660
     28 H           0.6334    0.2372    0.8934 H       1  UNL1        0.0660
     29 H           4.9624    0.0536   -0.0046 H       1  UNL1        0.0655
     30 H           6.2807    2.1433   -0.0493 H       1  UNL1        0.0619
     31 H           5.1437    4.3272   -0.0448 H       1  UNL1        0.0622
     32 H           2.8076    5.4238   -0.9073 H       1  UNL1        0.0513
     33 H           2.8911    5.4667    0.8669 H       1  UNL1        0.0513
     34 H           0.6353    4.1010   -0.3794 H       1  UNL1        0.1490
     35 H          -1.4481    5.1338    0.9642 H       1  UNL1        0.0359
     36 H          -1.4720    5.1241   -0.8070 H       1  UNL1        0.0359
     37 H          -1.7263    7.6168   -0.8121 H       1  UNL1        0.0285
     38 H          -1.6891    7.6304    0.9458 H       1  UNL1        0.0285
     39 H          -3.8139    6.3011    1.0115 H       1  UNL1        0.0462
     40 H          -3.8542    6.2836   -0.7578 H       1  UNL1        0.0462
     41 H          -3.6611    8.9878    0.1292 H       1  UNL1        0.1490
     42 H          -7.6740    9.0590    1.6899 H       1  UNL1        0.0625
     43 H          -8.9557   11.1648    1.3957 H       1  UNL1        0.0618
     44 H          -8.1243   12.9202   -0.1440 H       1  UNL1        0.0618
     45 H          -6.1256   12.4906   -1.5467 H       1  UNL1        0.0618
     46 H          -4.9224   10.3363   -1.3804 H       1  UNL1        0.0625
     47 H           0.5975    2.6085    0.6177 H       1  UNL1        0.2923
@<TRIPOS>BOND
     1     1     2    1
     2     2     3    1
     3     3     4   ar
     4     4     5   ar
     5     5     6   ar
     6     6     7   ar
     7     7     8    1
     8     8     9    1
     9     9    10   am
    10    10    11    2
    11    10    12    1
    12    12    13    1
    13    13    14    1
    14    14    15    1
    15    15    16   am
    16    16    17    2
    17    16    18    1
    18    18    19   ar
    19    19    20   ar
    20    20    21   ar
    21    21    22   ar
    22    22    23   ar
    23    18    23   ar
    24     7    24   ar
    25     3    24   ar
    26    24    25    1
    27     1    26    1
    28     1    27    1
    29     1    28    1
    30     4    29    1
    31     5    30    1
    32     6    31    1
    33     8    32    1
    34     8    33    1
    35     9    34    1
    36    12    35    1
    37    12    36    1
    38    13    37    1
    39    13    38    1
    40    14    39    1
    41    14    40    1
    42    15    41    1
    43    19    42    1
    44    20    43    1
    45    21    44    1
    46    22    45    1
    47    23    46    1
    48    25    47    1
