REMARK  14 active torsions:
REMARK  status: ('A' for Active; 'I' for Inactive)
REMARK    1  A    between atoms: C_2  and  C_3 
REMARK    2  A    between atoms: C_3  and  C_4 
REMARK    3  A    between atoms: C_4  and  C_5 
REMARK    4  A    between atoms: C_5  and  C_6 
REMARK    5  A    between atoms: C_6  and  O_7 
REMARK    6  A    between atoms: O_7  and  C_8 
REMARK    7  A    between atoms: C_11  and  C_12 
REMARK       I    between atoms: C_12  and  N_14 
REMARK    8  A    between atoms: N_14  and  C_15 
REMARK    9  A    between atoms: C_15  and  N_17 
REMARK   10  A    between atoms: C_23  and  C_24 
REMARK   11  A    between atoms: C_24  and  C_25 
REMARK   12  A    between atoms: C_25  and  O_27 
REMARK   13  A    between atoms: C_28  and  O_27 
REMARK   14  A    between atoms: C_28  and  C_30 
ROOT
ATOM      1  C   UNL d   1      13.917   2.476   1.657  0.00  0.00     0.177 C 
ATOM      2  S   UNL d   1      15.043   1.425   2.345  0.00  0.00    -0.041 SA
ENDROOT
BRANCH   1   3
ATOM      3  N   UNL d   1      13.085   3.342   2.438  0.00  0.00    -0.299 N 
ATOM      4  C   UNL d   1      13.032   3.514   3.864  0.00  0.00     0.257 C 
ATOM      5  O   UNL d   1      13.790   2.930   4.638  0.00  0.00    -0.267 OA
ATOM      6  H   UNL d   1      12.343   3.773   1.922  0.00  0.00     0.171 HD
BRANCH   4   7
ATOM      7  C   UNL d   1      12.028   4.443   4.543  0.00  0.00     0.032 C 
ATOM      8  C   UNL d   1      12.095   4.603   5.943  0.00  0.00     0.020 C 
ATOM      9  C   UNL d   1      11.182   5.420   6.644  0.00  0.00     0.038 C 
ATOM     10  C   UNL d   1      10.279   6.221   5.953  0.00  0.00     0.068 C 
ATOM     11  C   UNL d   1      10.242   6.122   4.572  0.00  0.00     0.038 C 
ATOM     12  C   UNL d   1      11.018   5.158   3.903  0.00  0.00     0.020 C 
BRANCH  10  13
ATOM     13  O   UNL d   1       9.513   7.088   6.681  0.00  0.00    -0.351 OA
BRANCH  13  14
ATOM     14  C   UNL d   1       8.199   7.321   6.159  0.00  0.00     0.175 C 
BRANCH  14  15
ATOM     15  C   UNL d   1       7.511   8.372   7.020  0.00  0.00     0.027 C 
BRANCH  15  16
ATOM     16  C   UNL d   1       6.076   8.600   6.554  0.00  0.00     0.002 C 
BRANCH  16  17
ATOM     17  C   UNL d   1       5.387   9.645   7.422  0.00  0.00    -0.000 C 
BRANCH  17  18
ATOM     18  C   UNL d   1       3.948   9.866   6.968  0.00  0.00    -0.005 C 
ATOM     19  C   UNL d   1       3.267  10.906   7.839  0.00  0.00     0.005 C 
ENDBRANCH  17  18
ENDBRANCH  16  17
ENDBRANCH  15  16
ENDBRANCH  14  15
ENDBRANCH  13  14
ENDBRANCH  10  13
ENDBRANCH   4   7
ENDBRANCH   1   3
BRANCH   1  20
ATOM     20  N   UNL d   1      13.625   2.444   0.248  0.00  0.00    -0.343 N 
ATOM     21  C   UNL d   1      13.739   1.149  -0.455  0.00  0.00     0.146 C 
ATOM     22  C   UNL d   1      12.550   1.038  -1.398  0.00  0.00     0.142 C 
ATOM     23  N   UNL d   1      12.574   2.085  -2.383  0.00  0.00    -0.358 N 
ATOM     24  C   UNL d   1      13.016   3.341  -2.111  0.00  0.00     0.241 C 
ATOM     25  H   UNL d   1      12.023   2.028  -3.232  0.00  0.00     0.162 HD
ATOM     26  O   UNL d   1      12.801   4.195  -2.967  0.00  0.00    -0.271 OA
ATOM     27  C   UNL d   1      13.803   3.578  -0.781  0.00  0.00     0.188 C 
BRANCH  27  28
ATOM     28  C   UNL d   1      13.316   4.872  -0.224  0.00  0.00     0.146 C 
BRANCH  28  29
ATOM     29  C   UNL d   1      13.438   6.150  -1.005  0.00  0.00     0.261 C 
ATOM     30  O   UNL d   1      14.105   6.249  -2.037  0.00  0.00    -0.265 OA
BRANCH  29  31
ATOM     31  O   UNL d   1      12.828   7.249  -0.499  0.00  0.00    -0.316 OA
BRANCH  31  32
ATOM     32  C   UNL d   1      12.335   7.531   0.839  0.00  0.00     0.127 C 
ATOM     33  C   UNL d   1      12.684   6.520   1.877  0.00  0.00     0.040 C 
BRANCH  32  34
ATOM     34  C   UNL d   1      10.813   7.708   0.801  0.00  0.00     0.027 C 
ATOM     35  C   UNL d   1      10.468   8.963   0.030  0.00  0.00     0.007 C 
ENDBRANCH  32  34
ENDBRANCH  31  32
ENDBRANCH  29  31
ENDBRANCH  28  29
ENDBRANCH  27  28
ENDBRANCH   1  20
TORSDOF 14
