@<TRIPOS>MOLECULE
*****
 51 54 0 0 0
SMALL
GASTEIGER

@<TRIPOS>ATOM
      1 C          -5.8647    3.2996    3.2197 C.3     1  UNL1       -0.0385
      2 C          -5.9057    2.2099    4.2674 C.ar    1  UNL1       -0.0294
      3 C          -6.2278    0.8988    4.0537 C.ar    1  UNL1        0.0493
      4 C          -6.5421    0.3808    2.6702 C.3     1  UNL1        0.0561
      5 C          -6.8061   -1.1053    2.2975 C.2     1  UNL1        0.2181
      6 O          -6.7708   -2.0672    3.0595 O.2     1  UNL1       -0.2754
      7 N          -7.0041   -1.4912    1.0173 N.am    1  UNL1       -0.3068
      8 CA         -7.2941   -0.7389   -0.2179 C.3     1  UNL1        0.0666
      9 C          -6.3735    0.4648   -0.3540 C.3     1  UNL1       -0.0019
     10 C          -6.9803    1.8246   -0.1261 C.ar    1  UNL1       -0.0201
     11 C          -8.2714    2.1848    0.2302 C.ar    1  UNL1        0.0060
     12 N          -8.4216    3.5199    0.0061 N.ar    1  UNL1       -0.3604
     13 C          -7.1840    4.0928   -0.0947 C.ar    1  UNL1        0.0470
     14 C          -6.8196    5.4349   -0.1070 C.ar    1  UNL1       -0.0343
     15 C          -5.4501    5.7118   -0.1112 C.ar    1  UNL1       -0.0182
     16 C          -4.5100    4.6818   -0.1505 C.ar    1  UNL1        0.1176
     17 O          -3.1694    4.9342   -0.1112 O.3     1  UNL1       -0.5067
     18 C          -4.8895    3.3480   -0.2125 C.ar    1  UNL1       -0.0108
     19 C          -6.2598    3.0503   -0.1745 C.ar    1  UNL1        0.0063
     20 C          -8.7977   -0.5785   -0.6026 C.2     1  UNL1        0.0623
     21 O          -9.0386    0.1758   -1.5903 O.co2   1  UNL1       -0.5479
     22 OXT        -9.6175   -1.2512    0.0878 O.co2   1  UNL1       -0.5479
     23 C          -6.2323   -0.0690    5.1819 C.ar    1  UNL1        0.3412
     24 O          -6.6416   -1.2255    5.1666 O.2     1  UNL1       -0.2449
     25 O          -5.7365    0.3462    6.3806 O.2     1  UNL1       -0.4218
     26 C          -5.5009    1.6835    6.6191 C.ar    1  UNL1        0.1428
     27 C          -5.2012    1.9492    7.9422 C.ar    1  UNL1        0.0229
     28 C          -4.9226    3.2481    8.2920 C.ar    1  UNL1        0.1204
     29 O          -4.6121    3.5662    9.5765 O.3     1  UNL1       -0.5066
     30 C          -4.9496    4.2545    7.3342 C.ar    1  UNL1       -0.0194
     31 C          -5.2665    3.9584    6.0026 C.ar    1  UNL1       -0.0474
     32 C          -5.5586    2.6450    5.6258 C.ar    1  UNL1        0.0210
     33 H          -6.1169    2.9156    2.2462 H       1  UNL1        0.0278
     34 H          -4.8677    3.7510    3.1301 H       1  UNL1        0.0278
     35 H          -6.5872    4.0989    3.4284 H       1  UNL1        0.0278
     36 H          -5.6484    0.6799    2.1146 H       1  UNL1        0.0409
     37 H          -7.4076    0.9438    2.3142 H       1  UNL1        0.0409
     38 H          -7.3111   -2.4580    1.0072 H       1  UNL1        0.1493
     39 HA         -6.9635   -1.4606   -0.9795 H       1  UNL1        0.0563
     40 H          -5.4999    0.3247    0.2956 H       1  UNL1        0.0335
     41 H          -5.8917    0.4446   -1.3367 H       1  UNL1        0.0335
     42 H          -9.1533    1.6090    0.4836 H       1  UNL1        0.0810
     43 H          -9.3107    3.9986    0.0094 H       1  UNL1        0.1653
     44 H          -7.5706    6.2152   -0.0733 H       1  UNL1        0.0639
     45 H          -5.1414    6.7493   -0.0697 H       1  UNL1        0.0655
     46 H          -3.0444    5.8944   -0.1186 H       1  UNL1        0.2921
     47 H          -4.1538    2.5507   -0.1996 H       1  UNL1        0.0661
     48 H          -5.2013    1.1212    8.6425 H       1  UNL1        0.0691
     49 H          -4.6406    2.7456   10.0984 H       1  UNL1        0.2921
     50 H          -4.7252    5.2744    7.6230 H       1  UNL1        0.0654
     51 H          -5.2768    4.7726    5.2829 H       1  UNL1        0.0626
@<TRIPOS>UNITY_ATOM_ATTR
22 1
charge -1
@<TRIPOS>BOND
     1     1     2    1
     2     2     3   ar
     3     3     4    1
     4     4     5    1
     5     5     6    2
     6     5     7   am
     7     9    10    1
     8    10    11   ar
     9    11    12   ar
    10    12    13   ar
    11    13    14   ar
    12    14    15   ar
    13    15    16   ar
    14    16    17    1
    15    16    18   ar
    16    18    19   ar
    17    10    19   ar
    18    13    19   ar
    19     8    20    1
    20    20    21   ar
    21    20    22   ar
    22     3    23   ar
    23    23    24    2
    24    23    25   ar
    25    25    26   ar
    26    26    27   ar
    27    27    28   ar
    28    28    29    1
    29    28    30   ar
    30    30    31   ar
    31    31    32   ar
    32     2    32   ar
    33    26    32   ar
    34     8     9    1
    35     8     7    1
    36     1    33    1
    37     1    34    1
    38     1    35    1
    39     4    36    1
    40     4    37    1
    41     7    38    1
    42     8    39    1
    43     9    40    1
    44     9    41    1
    45    11    42    1
    46    12    43    1
    47    14    44    1
    48    15    45    1
    49    17    46    1
    50    18    47    1
    51    27    48    1
    52    29    49    1
    53    30    50    1
    54    31    51    1
