@<TRIPOS>MOLECULE
*****
 46 47 0 0 0
SMALL
GASTEIGER

@<TRIPOS>ATOM
      1 C           0.9705   -0.0391   -0.0824 C.3     1  UNL1        0.0364
      2 O           2.3971   -0.0299   -0.0562 O.3     1  UNL1       -0.3829
      3 C           2.8869    0.3870    1.2215 C.3     1  UNL1        0.0487
      4 C           4.4213    0.3873    1.2178 C.3     1  UNL1       -0.0138
      5 C           4.9824    0.8319    2.5747 C.3     1  UNL1        0.0152
      6 N           6.4463    0.8545    2.6631 N.am    1  UNL1       -0.2982
      7 C           7.0798    1.2010    3.8442 C.2     1  UNL1        0.3160
      8 O           6.4644    1.5781    4.8425 O.2     1  UNL1       -0.2513
      9 N           8.4573    1.0645    3.8388 N.am    1  UNL1       -0.2180
     10 N           9.2088    1.4461    5.0082 N.am    1  UNL1       -0.2291
     11 C          10.5955    1.2884    5.0180 C.2     1  UNL1        0.2635
     12 O          11.1830    0.6390    4.1480 O.2     1  UNL1       -0.2685
     13 C          11.3705    1.9093    6.1443 C.ar    1  UNL1        0.0781
     14 C          11.0370    1.4807    7.4337 C.ar    1  UNL1       -0.0448
     15 C          11.8302    1.8440    8.5180 C.ar    1  UNL1       -0.0427
     16 C          12.9381    2.6356    8.2825 C.ar    1  UNL1        0.0297
     17 N          13.2794    3.0977    7.0567 N.ar    1  UNL1       -0.2394
     18 C          12.5030    2.7477    5.9882 C.ar    1  UNL1        0.1352
     19 N          12.9335    3.2997    4.7736 N.pl3   1  UNL1       -0.2966
     20 C          12.2900    3.2537    3.5296 C.ar    1  UNL1        0.0681
     21 C          12.8879    2.5786    2.4588 C.ar    1  UNL1       -0.0377
     22 C          12.1246    2.2313    1.3363 C.ar    1  UNL1       -0.0598
     23 C          10.7738    2.5808    1.2610 C.ar    1  UNL1       -0.0589
     24 C          10.1903    3.3132    2.2898 C.ar    1  UNL1       -0.0246
     25 C          10.9514    3.6587    3.4003 C.ar    1  UNL1        0.1445
     26 F          10.3277    4.2314    4.4447 F       1  UNL1       -0.2035
     27 H           0.6349   -0.3622   -1.0722 H       1  UNL1        0.0523
     28 H           0.5785    0.9654    0.1066 H       1  UNL1        0.0523
     29 H           0.5790   -0.7389    0.6629 H       1  UNL1        0.0523
     30 H           2.5099   -0.3025    1.9857 H       1  UNL1        0.0560
     31 H           2.5088    1.3938    1.4325 H       1  UNL1        0.0560
     32 H           4.7802    1.0449    0.4167 H       1  UNL1        0.0302
     33 H           4.7806   -0.6170    0.9612 H       1  UNL1        0.0302
     34 H           4.6148    0.1596    3.3597 H       1  UNL1        0.0463
     35 H           4.6163    1.8375    2.8138 H       1  UNL1        0.0463
     36 H           6.9890    0.5615    1.8636 H       1  UNL1        0.1503
     37 H           9.0075    0.8891    3.0020 H       1  UNL1        0.1744
     38 H           8.6918    1.9640    5.7168 H       1  UNL1        0.1732
     39 H          10.1905    0.8191    7.5855 H       1  UNL1        0.0627
     40 H          11.6032    1.4892    9.5177 H       1  UNL1        0.0633
     41 H          13.6010    2.9193    9.0987 H       1  UNL1        0.0830
     42 H          13.8274    3.7705    4.8327 H       1  UNL1        0.1537
     43 H          13.8988    2.1879    2.5521 H       1  UNL1        0.0637
     44 H          12.5668    1.6189    0.5538 H       1  UNL1        0.0618
     45 H          10.1690    2.2445    0.4238 H       1  UNL1        0.0618
     46 H           9.1270    3.5293    2.2974 H       1  UNL1        0.0647
@<TRIPOS>BOND
     1     1     2    1
     2     2     3    1
     3     3     4    1
     4     4     5    1
     5     5     6    1
     6     6     7   am
     7     7     8    2
     8     7     9   am
     9     9    10    1
    10    10    11   am
    11    11    12    2
    12    11    13    1
    13    13    14   ar
    14    14    15   ar
    15    15    16   ar
    16    16    17   ar
    17    17    18   ar
    18    13    18   ar
    19    18    19    1
    20    19    20    1
    21    20    21   ar
    22    21    22   ar
    23    22    23   ar
    24    23    24   ar
    25    24    25   ar
    26    20    25   ar
    27    25    26    1
    28     1    27    1
    29     1    28    1
    30     1    29    1
    31     3    30    1
    32     3    31    1
    33     4    32    1
    34     4    33    1
    35     5    34    1
    36     5    35    1
    37     6    36    1
    38     9    37    1
    39    10    38    1
    40    14    39    1
    41    15    40    1
    42    16    41    1
    43    19    42    1
    44    21    43    1
    45    22    44    1
    46    23    45    1
    47    24    46    1
