@<TRIPOS>MOLECULE
*****
 53 55 0 0 0
SMALL
GASTEIGER

@<TRIPOS>ATOM
      1 C           3.0667    1.4627    0.0928 C.3     1  UNL1       -0.0191
      2 C           2.4670    0.0592   -0.0268 C.3     1  UNL1        0.1730
      3 O           1.0239    0.0787   -0.0555 O.3     1  UNL1       -0.4784
      4 C           0.3492    0.7366   -1.0501 C.ar    1  UNL1        0.1398
      5 C           0.9804    1.3721   -2.1216 C.ar    1  UNL1       -0.0184
      6 C           0.2709    2.1469   -3.0358 C.ar    1  UNL1       -0.0582
      7 C          -1.1133    2.1815   -2.9816 C.ar    1  UNL1       -0.0602
      8 C          -1.7789    1.4891   -1.9708 C.ar    1  UNL1       -0.0398
      9 C          -1.0533    0.7963   -0.9895 C.ar    1  UNL1        0.0826
     10 CL         -1.9512    0.0138    0.2638 Cl      1  UNL1       -0.0798
     11 C           2.9110   -0.7114    1.2443 C.2     1  UNL1        0.2577
     12 O           2.0777   -1.2093    2.0026 O.2     1  UNL1       -0.2714
     13 N           4.2987   -0.7348    1.4870 N.am    1  UNL1       -0.2825
     14 C           4.8819   -1.4416    2.5597 C.ar    1  UNL1        0.0336
     15 C           6.0909   -1.0898    3.1820 C.ar    1  UNL1       -0.0387
     16 C           6.6899   -1.9341    4.1809 C.ar    1  UNL1       -0.0388
     17 C           6.0738   -3.1384    4.5595 C.ar    1  UNL1        0.0327
     18 N           6.5637   -4.0369    5.5963 N.am    1  UNL1       -0.2966
     19 C           5.8935   -5.2056    6.0971 C.2     1  UNL1        0.1411
     20 S           4.3470   -5.7535    5.6803 S.2     1  UNL1       -0.0182
     21 N           6.6437   -5.9589    7.0239 N.am    1  UNL1       -0.2634
     22 C           6.1255   -7.0850    7.6988 C.2     1  UNL1        0.2561
     23 O           5.1276   -7.7266    7.3758 O.2     1  UNL1       -0.2696
     24 C           6.7531   -7.6897    8.8873 C.ar    1  UNL1        0.1139
     25 C           6.6147   -9.1095    8.9169 C.ar    1  UNL1       -0.0431
     26 C           6.8183   -9.8471   10.0786 C.ar    1  UNL1       -0.0606
     27 C           7.2475   -9.1930   11.2200 C.ar    1  UNL1       -0.0553
     28 C           7.4153   -7.8045   11.2100 C.ar    1  UNL1        0.0164
     29 C           7.1559   -7.0392   10.0514 C.ar    1  UNL1        0.2852
     30 N           7.3198   -5.5869   10.1726 N.pl3   1  UNL1        0.0804
     31 O           7.7105   -5.1376   11.2488 O.2     1  UNL1        0.0415
     32 O           7.1347   -4.8759    9.1702 O.co2   1  UNL1       -0.5760
     33 C           4.9243   -3.4361    3.8440 C.ar    1  UNL1       -0.0388
     34 C           4.2986   -2.6173    2.9317 C.ar    1  UNL1       -0.0387
     35 H           4.1578    1.4324    0.1016 H       1  UNL1        0.0270
     36 H           2.7018    1.9425    1.0044 H       1  UNL1        0.0270
     37 H           2.8096    2.1466   -0.7120 H       1  UNL1        0.0270
     38 H           2.8295   -0.5048   -0.8968 H       1  UNL1        0.0829
     39 H           2.0469    1.2994   -2.2845 H       1  UNL1        0.0654
     40 H           0.8142    2.6990   -3.7979 H       1  UNL1        0.0619
     41 H          -1.6679    2.7262   -3.7402 H       1  UNL1        0.0618
     42 H          -2.8658    1.4936   -1.9530 H       1  UNL1        0.0633
     43 H           4.9389   -0.2554    0.8716 H       1  UNL1        0.1549
     44 H           6.5510   -0.1311    2.9502 H       1  UNL1        0.0637
     45 H           7.6399   -1.6177    4.6084 H       1  UNL1        0.0637
     46 H           7.3941   -3.7075    6.0808 H       1  UNL1        0.1538
     47 H           7.3932   -5.4633    7.4891 H       1  UNL1        0.1568
     48 H           6.2572   -9.6461    8.0316 H       1  UNL1        0.0627
     49 H           6.6042  -10.9145   10.0951 H       1  UNL1        0.0618
     50 H           7.4417   -9.7600   12.1269 H       1  UNL1        0.0620
     51 H           7.7194   -7.3250   12.1377 H       1  UNL1        0.0685
     52 H           4.4089   -4.3675    3.8824 H       1  UNL1        0.0637
     53 H           3.3869   -3.0042    2.4878 H       1  UNL1        0.0637
@<TRIPOS>UNITY_ATOM_ATTR
30 1
charge 1
32 1
charge -1
@<TRIPOS>BOND
     1     3     4    1
     2     4     5   ar
     3     5     6   ar
     4     6     7   ar
     5     7     8   ar
     6     8     9   ar
     7     4     9   ar
     8     9    10    1
     9     2    11    1
    10    11    12    2
    11    11    13   am
    12    13    14    1
    13    14    15   ar
    14    15    16   ar
    15    16    17   ar
    16    17    18    1
    17    18    19    1
    18    19    20    2
    19    19    21    1
    20    21    22   am
    21    22    23    2
    22    22    24    1
    23    24    25   ar
    24    25    26   ar
    25    26    27   ar
    26    27    28   ar
    27    28    29   ar
    28    24    29   ar
    29    29    30    1
    30    30    31    2
    31    30    32    1
    32    17    33   ar
    33    33    34   ar
    34    14    34   ar
    35     2     3    1
    36     2     1    1
    37     1    35    1
    38     1    36    1
    39     1    37    1
    40     2    38    1
    41     5    39    1
    42     6    40    1
    43     7    41    1
    44     8    42    1
    45    13    43    1
    46    15    44    1
    47    16    45    1
    48    18    46    1
    49    21    47    1
    50    25    48    1
    51    26    49    1
    52    27    50    1
    53    28    51    1
    54    33    52    1
    55    34    53    1
