@<TRIPOS>MOLECULE
*****
 58 60 0 0 0
SMALL
GASTEIGER

@<TRIPOS>ATOM
      1 C           1.0352    0.0629    0.0490 C.3     1  UNL1       -0.0570
      2 C           2.5617    0.1461    0.0475 C.3     1  UNL1        0.0215
      3 C           2.9951    1.6043    0.0353 C.2     1  UNL1        0.2169
      4 O           2.1574    2.5062    0.0427 O.2     1  UNL1       -0.2755
      5 N           4.3662    1.8226   -0.0201 N.am    1  UNL1       -0.2855
      6 C           4.9143    3.1294    0.0182 C.ar    1  UNL1        0.0335
      7 C           6.0366    3.4713   -0.7361 C.ar    1  UNL1       -0.0387
      8 C           6.5793    4.7738   -0.6464 C.ar    1  UNL1       -0.0391
      9 C           5.9929    5.7661    0.1588 C.ar    1  UNL1        0.0276
     10 N           6.5472    7.0326    0.2510 N.pl3   1  UNL1       -0.3354
     11 C           5.8813    8.1521    0.9454 C.3     1  UNL1        0.0861
     12 C           6.6240    9.4716    0.6645 C.2     1  UNL1        0.2343
     13 O           7.5459    9.4963   -0.1556 O.2     1  UNL1       -0.2738
     14 N           6.2053   10.5801    1.4098 N.am    1  UNL1       -0.2842
     15 C           6.7407   11.8756    1.1978 C.ar    1  UNL1        0.0335
     16 C           6.9486   12.7870    2.2410 C.ar    1  UNL1       -0.0387
     17 C           7.4714   14.0815    1.9743 C.ar    1  UNL1       -0.0387
     18 C           7.8048   14.4651    0.6656 C.ar    1  UNL1        0.0338
     19 N           8.4242   15.7218    0.3948 N.am    1  UNL1       -0.2815
     20 C           8.8099   16.1548   -0.8704 C.2     1  UNL1        0.2483
     21 O           8.6449   15.5555   -1.9408 O.2     1  UNL1       -0.2699
     22 C           9.5029   17.4523   -1.0067 C.ar    1  UNL1        0.0373
     23 C           9.2093   18.2379   -2.1346 C.ar    1  UNL1       -0.0496
     24 C           9.9893   19.3495   -2.4447 C.ar    1  UNL1       -0.0608
     25 C          11.0359   19.7119   -1.6013 C.ar    1  UNL1       -0.0588
     26 C          11.3414   18.9338   -0.4751 C.ar    1  UNL1       -0.0497
     27 C          12.5279   19.2670    0.3772 C.3     1  UNL1       -0.0397
     28 C          10.5726   17.7960   -0.1803 C.ar    1  UNL1       -0.0467
     29 C           7.5358   13.5539   -0.3528 C.ar    1  UNL1       -0.0387
     30 C           7.0276   12.2852   -0.0951 C.ar    1  UNL1       -0.0387
     31 C           4.9005    5.3817    0.9334 C.ar    1  UNL1       -0.0391
     32 C           4.3614    4.0957    0.8558 C.ar    1  UNL1       -0.0387
     33 H           0.6863   -0.9729    0.0603 H       1  UNL1        0.0234
     34 H           0.6195    0.5528   -0.8398 H       1  UNL1        0.0234
     35 H           0.6179    0.5728    0.9258 H       1  UNL1        0.0234
     36 H           2.9542   -0.3655   -0.8373 H       1  UNL1        0.0356
     37 H           2.9542   -0.3460    0.9437 H       1  UNL1        0.0356
     38 H           4.9867    1.0550   -0.2446 H       1  UNL1        0.1548
     39 H           6.4655    2.7718   -1.4494 H       1  UNL1        0.0637
     40 H           7.4707    5.0069   -1.2270 H       1  UNL1        0.0637
     41 H           7.1968    7.3280   -0.4797 H       1  UNL1        0.1466
     42 H           5.9091    7.9630    2.0224 H       1  UNL1        0.0557
     43 H           4.8431    8.2684    0.6106 H       1  UNL1        0.0557
     44 H           5.5635   10.4594    2.1831 H       1  UNL1        0.1549
     45 H           6.7874   12.4890    3.2750 H       1  UNL1        0.0637
     46 H           7.6159   14.7654    2.8085 H       1  UNL1        0.0637
     47 H           8.6148   16.3252    1.1864 H       1  UNL1        0.1551
     48 H           8.3945   17.9543   -2.7995 H       1  UNL1        0.0625
     49 H           9.8046   19.9096   -3.3584 H       1  UNL1        0.0618
     50 H          11.6278   20.5927   -1.8430 H       1  UNL1        0.0620
     51 H          13.0288   20.1760    0.0292 H       1  UNL1        0.0278
     52 H          13.2527   18.4475    0.3386 H       1  UNL1        0.0278
     53 H          12.2097   19.4261    1.4113 H       1  UNL1        0.0278
     54 H          10.8599   17.1497    0.6438 H       1  UNL1        0.0628
     55 H           7.7092   13.7737   -1.3968 H       1  UNL1        0.0637
     56 H           6.8453   11.6384   -0.9481 H       1  UNL1        0.0637
     57 H           4.4374    6.0734    1.6272 H       1  UNL1        0.0637
     58 H           3.5125    3.8592    1.4905 H       1  UNL1        0.0637
@<TRIPOS>BOND
     1     1     2    1
     2     2     3    1
     3     3     4    2
     4     3     5   am
     5     5     6    1
     6     6     7   ar
     7     7     8   ar
     8     8     9   ar
     9     9    10    1
    10    10    11    1
    11    11    12    1
    12    12    13    2
    13    12    14   am
    14    14    15    1
    15    15    16   ar
    16    16    17   ar
    17    17    18   ar
    18    18    19    1
    19    19    20   am
    20    20    21    2
    21    20    22    1
    22    22    23   ar
    23    23    24   ar
    24    24    25   ar
    25    25    26   ar
    26    26    27    1
    27    26    28   ar
    28    22    28   ar
    29    18    29   ar
    30    29    30   ar
    31    15    30   ar
    32     9    31   ar
    33    31    32   ar
    34     6    32   ar
    35     1    33    1
    36     1    34    1
    37     1    35    1
    38     2    36    1
    39     2    37    1
    40     5    38    1
    41     7    39    1
    42     8    40    1
    43    10    41    1
    44    11    42    1
    45    11    43    1
    46    14    44    1
    47    16    45    1
    48    17    46    1
    49    19    47    1
    50    23    48    1
    51    24    49    1
    52    25    50    1
    53    27    51    1
    54    27    52    1
    55    27    53    1
    56    28    54    1
    57    29    55    1
    58    30    56    1
    59    31    57    1
    60    32    58    1
