@<TRIPOS>MOLECULE
*****
 60 64 0 0 0
SMALL
GASTEIGER

@<TRIPOS>ATOM
      1 O           2.3073    0.5353   -1.6969 O.2     1  UNL1       -0.2675
      2 C           2.9799    0.3230   -0.7513 C.ar    1  UNL1        0.2539
      3 N           3.4239   -0.9186   -0.2195 N.ar    1  UNL1       -0.3217
      4 C           4.7323   -1.0595    0.1192 C.ar    1  UNL1        0.0529
      5 C           5.4643   -2.2604    0.2961 C.ar    1  UNL1        0.0078
      6 C           6.8198   -2.0108    0.3064 C.ar    1  UNL1        0.1682
      7 C           7.2161   -0.9294   -0.4254 C.ar    1  UNL1        0.1669
      8 C           6.5762    0.2544   -0.2803 C.ar    1  UNL1       -0.0070
      9 C           5.3090    0.2059    0.0988 C.ar    1  UNL1        0.0025
     10 C           4.5595    1.4607    0.2355 C.ar    1  UNL1       -0.0427
     11 C           3.2241    1.4218    0.1826 C.ar    1  UNL1        0.0347
     12 C           2.1690    2.4741    0.2020 C.3     1  UNL1        0.0441
     13 N           0.6327    2.1229    0.2404 N.am    1  UNL1       -0.3029
     14 C          -0.0129    0.7095    0.1741 C.3     1  UNL1        0.0542
     15 C           0.8681   -0.5519    0.1442 C.3     1  UNL1       -0.0156
     16 N           0.5222   -1.9801    0.1749 N.4     1  UNL1        0.2396
     17 C           1.5359   -3.1430   -0.4783 C.3     1  UNL1       -0.0078
     18 C           0.8042   -4.4520   -0.3313 C.3     1  UNL1        0.0878
     19 O           0.5105   -4.6463    1.0637 O.3     1  UNL1       -0.3693
     20 C          -0.3727   -3.6471    1.5941 C.3     1  UNL1        0.0878
     21 C           0.2742   -2.2982    1.6053 C.3     1  UNL1       -0.0078
     22 C          -0.2250    3.3053    0.1784 C.2     1  UNL1        0.1376
     23 S           0.4245    4.8771    0.2706 S.2     1  UNL1       -0.0183
     24 N          -1.6161    3.0438    0.0939 N.am    1  UNL1       -0.2967
     25 C          -2.6319    4.0601    0.1201 C.ar    1  UNL1        0.0340
     26 C          -2.5423    5.1722   -0.7229 C.ar    1  UNL1       -0.0404
     27 C          -3.4180    6.2501   -0.6075 C.ar    1  UNL1       -0.0586
     28 C          -4.3463    6.2697    0.4232 C.ar    1  UNL1       -0.0433
     29 C          -4.4977    5.1364    1.2201 C.ar    1  UNL1        0.0427
     30 CL         -5.6286    5.1878    2.5211 Cl      1  UNL1       -0.0835
     31 C          -3.7116    3.9894    1.0098 C.ar    1  UNL1       -0.0222
     32 O           8.5477   -0.8314   -0.5876 O.3     1  UNL1       -0.4526
     33 C           8.7742   -1.1232    0.7802 C.3     1  UNL1        0.2332
     34 O           7.9349   -2.3254    1.0885 O.3     1  UNL1       -0.4525
     35 H           2.8262   -1.6615   -0.0014 H       1  UNL1        0.1689
     36 H           5.0221   -3.2591    0.1700 H       1  UNL1        0.0676
     37 H           7.1252    1.1699   -0.3466 H       1  UNL1        0.0662
     38 H           5.1361    2.3740    0.2135 H       1  UNL1        0.0629
     39 H           2.3292    3.0791   -0.7044 H       1  UNL1        0.0515
     40 H           2.3688    3.1272    1.0681 H       1  UNL1        0.0515
     41 H          -0.6355    0.6984   -0.7266 H       1  UNL1        0.0517
     42 H          -0.6618    0.6483    1.0510 H       1  UNL1        0.0517
     43 H           1.5555   -0.4201    0.9865 H       1  UNL1        0.0830
     44 H           1.1405   -0.6536   -0.8768 H       1  UNL1        0.0830
     45 H          -0.2813   -2.0441   -0.4633 H       1  UNL1        0.2036
     46 H           2.4470   -3.2719    0.1323 H       1  UNL1        0.0837
     47 H           1.8020   -2.8710   -1.5134 H       1  UNL1        0.0837
     48 H           1.4345   -5.2818   -0.6744 H       1  UNL1        0.0613
     49 H          -0.1079   -4.4118   -0.9261 H       1  UNL1        0.0613
     50 H          -0.6432   -3.8907    2.6179 H       1  UNL1        0.0613
     51 H          -1.2658   -3.5840    0.9656 H       1  UNL1        0.0613
     52 H           1.2445   -2.2666    2.1250 H       1  UNL1        0.0837
     53 H          -0.3694   -1.5059    2.0011 H       1  UNL1        0.0837
     54 H          -1.9632    2.1192    0.2843 H       1  UNL1        0.1538
     55 H          -1.7632    5.2264   -1.4779 H       1  UNL1        0.0636
     56 H          -3.3380    7.0826   -1.3006 H       1  UNL1        0.0619
     57 H          -4.9435    7.1627    0.5922 H       1  UNL1        0.0632
     58 H          -3.9097    3.1072    1.6093 H       1  UNL1        0.0651
     59 H           8.4482   -0.2545    1.4114 H       1  UNL1        0.1166
     60 H           9.8664   -1.1000    0.8182 H       1  UNL1        0.1166
@<TRIPOS>UNITY_ATOM_ATTR
16 1
charge 1
@<TRIPOS>BOND
     1     1     2    2
     2     2     3   ar
     3     3     4   ar
     4     4     5   ar
     5     5     6   ar
     6     6     7   ar
     7     7     8   ar
     8     8     9   ar
     9     4     9   ar
    10     9    10   ar
    11    10    11   ar
    12     2    11   ar
    13    11    12    1
    14    12    13    1
    15    13    14    1
    16    14    15    1
    17    15    16    1
    18    16    17    1
    19    17    18    1
    20    18    19    1
    21    19    20    1
    22    20    21    1
    23    16    21    1
    24    13    22    1
    25    22    23    2
    26    22    24    1
    27    24    25    1
    28    25    26   ar
    29    26    27   ar
    30    27    28   ar
    31    28    29   ar
    32    29    30    1
    33    29    31   ar
    34    25    31   ar
    35     7    32    1
    36    32    33    1
    37    33    34    1
    38     6    34    1
    39     3    35    1
    40     5    36    1
    41     8    37    1
    42    10    38    1
    43    12    39    1
    44    12    40    1
    45    14    41    1
    46    14    42    1
    47    15    43    1
    48    15    44    1
    49    16    45    1
    50    17    46    1
    51    17    47    1
    52    18    48    1
    53    18    49    1
    54    20    50    1
    55    20    51    1
    56    21    52    1
    57    21    53    1
    58    24    54    1
    59    26    55    1
    60    27    56    1
    61    28    57    1
    62    31    58    1
    63    33    59    1
    64    33    60    1
