@<TRIPOS>MOLECULE
*****
 46 48 0 0 0
SMALL
GASTEIGER

@<TRIPOS>ATOM
      1 C           2.4997   -0.0227   -0.0127 C.3     1  UNL1       -0.0397
      2 C           1.0021   -0.0258    0.0029 C.ar    1  UNL1       -0.0504
      3 C           0.2537   -1.2081    0.0042 C.ar    1  UNL1       -0.0586
      4 C          -1.1531   -1.1704   -0.0019 C.ar    1  UNL1       -0.0575
      5 C          -1.8425    0.0553   -0.0099 C.ar    1  UNL1       -0.0371
      6 C          -3.3774    0.0902   -0.0397 C.3     1  UNL1        0.0254
      7 S          -4.0338    1.7933   -0.0508 S.3     1  UNL1       -0.0923
      8 C          -5.7602    1.7222   -0.0957 C.ar    1  UNL1        0.1596
      9 N          -6.4825    0.6294   -0.1114 N.ar    1  UNL1       -0.1339
     10 N          -7.8408    0.9284   -0.1562 N.ar    1  UNL1       -0.1339
     11 C          -8.0891    2.2274   -0.1741 C.ar    1  UNL1        0.1597
     12 S          -9.7420    2.8021   -0.2438 S.3     1  UNL1       -0.0876
     13 C          -9.7306    4.6422   -0.2651 C.3     1  UNL1        0.0784
     14 C         -11.1858    5.1763   -0.3363 C.2     1  UNL1        0.2424
     15 O         -12.1609    4.4163   -0.3734 O.2     1  UNL1       -0.2732
     16 N         -11.3404    6.5730   -0.3571 N.am    1  UNL1       -0.2063
     17 N         -12.6294    7.0725   -0.4150 N.2     1  UNL1       -0.1877
     18 C         -12.8400    8.3526   -0.4367 C.2     1  UNL1        0.0529
     19 C         -14.2323    8.9091   -0.4914 C.ar    1  UNL1       -0.0020
     20 C         -14.4562   10.2944   -0.5224 C.ar    1  UNL1       -0.0529
     21 C         -15.7685   10.7994   -0.5573 C.ar    1  UNL1       -0.0577
     22 C         -16.8617    9.9297   -0.5619 C.ar    1  UNL1       -0.0201
     23 C         -16.6323    8.5581   -0.5398 C.ar    1  UNL1        0.1175
     24 O         -17.6628    7.6634   -0.5502 O.3     1  UNL1       -0.5067
     25 C         -15.3344    8.0457   -0.5045 C.ar    1  UNL1       -0.0115
     26 S          -6.6784    3.1842   -0.1254 S.2     1  UNL1       -0.0330
     27 C          -1.0610    1.2257    0.0023 C.ar    1  UNL1       -0.0575
     28 C           0.3304    1.1913    0.0064 C.ar    1  UNL1       -0.0586
     29 H           2.9060   -1.0374    0.0005 H       1  UNL1        0.0278
     30 H           2.8827    0.5109    0.8639 H       1  UNL1        0.0278
     31 H           2.8605    0.4786   -0.9176 H       1  UNL1        0.0278
     32 H           0.7634   -2.1699    0.0054 H       1  UNL1        0.0620
     33 H          -1.6954   -2.1147   -0.0043 H       1  UNL1        0.0621
     34 H          -3.7544   -0.4418    0.8415 H       1  UNL1        0.0429
     35 H          -3.7165   -0.4377   -0.9391 H       1  UNL1        0.0429
     36 H          -9.1773    4.9954   -1.1408 H       1  UNL1        0.0476
     37 H          -9.2578    5.0142    0.6492 H       1  UNL1        0.0476
     38 H         -10.5589    7.2170   -0.3252 H       1  UNL1        0.1772
     39 H         -12.0132    9.0840   -0.4128 H       1  UNL1        0.0851
     40 H         -13.6293   10.9994   -0.5183 H       1  UNL1        0.0624
     41 H         -15.9429   11.8742   -0.5793 H       1  UNL1        0.0619
     42 H         -17.8710   10.3334   -0.5818 H       1  UNL1        0.0654
     43 H         -18.5090    8.1381   -0.5839 H       1  UNL1        0.2921
     44 H         -15.1913    6.9681   -0.4844 H       1  UNL1        0.0660
     45 H          -1.5073    2.2147    0.0042 H       1  UNL1        0.0621
     46 H           0.8772    2.1312    0.0071 H       1  UNL1        0.0620
@<TRIPOS>BOND
     1     1     2    1
     2     2     3   ar
     3     3     4   ar
     4     4     5   ar
     5     5     6    1
     6     6     7    1
     7     7     8    1
     8     8     9   ar
     9     9    10   ar
    10    10    11   ar
    11    11    12    1
    12    12    13    1
    13    13    14    1
    14    14    15    2
    15    14    16   am
    16    16    17    1
    17    17    18    2
    18    18    19    1
    19    19    20   ar
    20    20    21   ar
    21    21    22   ar
    22    22    23   ar
    23    23    24    1
    24    23    25   ar
    25    19    25   ar
    26    11    26   ar
    27     8    26   ar
    28     5    27   ar
    29    27    28   ar
    30     2    28   ar
    31     1    29    1
    32     1    30    1
    33     1    31    1
    34     3    32    1
    35     4    33    1
    36     6    34    1
    37     6    35    1
    38    13    36    1
    39    13    37    1
    40    16    38    1
    41    18    39    1
    42    20    40    1
    43    21    41    1
    44    22    42    1
    45    24    43    1
    46    25    44    1
    47    27    45    1
    48    28    46    1
