@<TRIPOS>MOLECULE
*****
 58 61 0 0 0
SMALL
GASTEIGER

@<TRIPOS>ATOM
      1 C           1.0087    0.0023   -0.0566 C.3     1  UNL1       -0.0238
      2 C           2.4981   -0.0926   -0.1364 C.2     1  UNL1        0.0379
      3 C           3.2601   -1.2064   -0.1572 C.2     1  UNL1        0.0504
      4 N           2.8196   -2.5342   -0.2075 N.am    1  UNL1       -0.2853
      5 C           3.6681   -3.6323   -0.3354 C.2     1  UNL1        0.2273
      6 O           4.8972   -3.4854   -0.3933 O.2     1  UNL1       -0.2746
      7 C           3.0165   -5.0395   -0.4271 C.3     1  UNL1        0.0779
      8 S           4.3462   -6.2770   -0.5440 S.3     1  UNL1       -0.0785
      9 C           3.7298   -7.8786   -0.6228 C.ar    1  UNL1        0.1672
     10 N           4.5130   -8.9201   -0.4890 N.ar    1  UNL1       -0.2270
     11 C           3.7331  -10.0244   -0.7041 C.ar    1  UNL1        0.0605
     12 C           4.3561  -11.3700   -0.6190 C.3     1  UNL1       -0.0206
     13 C           2.4185   -9.6481   -0.9587 C.ar    1  UNL1        0.0435
     14 C           1.1626  -10.4379   -1.2323 C.3     1  UNL1        0.0145
     15 C           1.3269  -11.9444   -1.1312 C.ar    1  UNL1       -0.0416
     16 C           1.2057  -12.7865   -2.2447 C.ar    1  UNL1       -0.0582
     17 C           1.4400  -14.1612   -2.1170 C.ar    1  UNL1       -0.0615
     18 C           1.9211  -14.6857   -0.9177 C.ar    1  UNL1       -0.0617
     19 C           2.0610  -13.8577    0.1889 C.ar    1  UNL1       -0.0615
     20 C           1.6881  -12.5158    0.1006 C.ar    1  UNL1       -0.0582
     21 N           2.4490   -8.2591   -0.9048 N.ar    1  UNL1       -0.3362
     22 C           4.7481   -0.7784   -0.1005 C.3     1  UNL1        0.0789
     23 C           5.3203   -1.0821    1.2867 C.3     1  UNL1       -0.0394
     24 N           4.6642    0.7169   -0.1948 N.pl3   1  UNL1       -0.2450
     25 C           5.6612    1.4401   -0.8891 C.ar    1  UNL1        0.0482
     26 C           6.2453    2.5663   -0.2781 C.ar    1  UNL1       -0.0391
     27 C           7.2077    3.3596   -0.9306 C.ar    1  UNL1       -0.0600
     28 C           7.6565    3.0124   -2.1991 C.ar    1  UNL1       -0.0616
     29 C           7.1177    1.8883   -2.8188 C.ar    1  UNL1       -0.0600
     30 C           6.1303    1.1141   -2.1720 C.ar    1  UNL1       -0.0391
     31 N           3.3126    1.0448   -0.2493 N.pl3   1  UNL1       -0.2663
     32 H           0.5403   -0.9863   -0.1100 H       1  UNL1        0.0291
     33 H           0.6098    0.5918   -0.8866 H       1  UNL1        0.0291
     34 H           0.6784    0.4560    0.8852 H       1  UNL1        0.0291
     35 H           1.8180   -2.6863   -0.2338 H       1  UNL1        0.1546
     36 H           2.3935   -5.0896   -1.3245 H       1  UNL1        0.0475
     37 H           2.4101   -5.2261    0.4639 H       1  UNL1        0.0475
     38 H           5.4423  -11.3258   -0.5328 H       1  UNL1        0.0293
     39 H           4.1094  -11.9714   -1.4997 H       1  UNL1        0.0293
     40 H           4.0255  -11.8812    0.2867 H       1  UNL1        0.0293
     41 H           0.7746  -10.1704   -2.2236 H       1  UNL1        0.0376
     42 H           0.3882  -10.1492   -0.5098 H       1  UNL1        0.0376
     43 H           0.9561  -12.3850   -3.2242 H       1  UNL1        0.0620
     44 H           1.2742  -14.8242   -2.9622 H       1  UNL1        0.0618
     45 H           2.2011  -15.7335   -0.8492 H       1  UNL1        0.0618
     46 H           2.5011  -14.2358    1.1085 H       1  UNL1        0.0618
     47 H           1.8348  -11.8716    0.9669 H       1  UNL1        0.0620
     48 H           1.6733   -7.6361   -1.0637 H       1  UNL1        0.1676
     49 H           5.3156   -1.2147   -0.9263 H       1  UNL1        0.0578
     50 H           4.7821   -0.5214    2.0631 H       1  UNL1        0.0252
     51 H           6.3703   -0.7826    1.3374 H       1  UNL1        0.0252
     52 H           5.2473   -2.1377    1.5572 H       1  UNL1        0.0252
     53 H           5.9742    2.8207    0.7428 H       1  UNL1        0.0637
     54 H           7.6057    4.2485   -0.4462 H       1  UNL1        0.0618
     55 H           8.4204    3.6084   -2.6962 H       1  UNL1        0.0618
     56 H           7.4589    1.6199   -3.8168 H       1  UNL1        0.0618
     57 H           5.7272    0.2580   -2.7041 H       1  UNL1        0.0637
     58 H           3.0227    1.8647    0.2858 H       1  UNL1        0.1698
@<TRIPOS>BOND
     1     1     2    1
     2     2     3    2
     3     3     4    1
     4     4     5   am
     5     5     6    2
     6     5     7    1
     7     7     8    1
     8     8     9    1
     9     9    10   ar
    10    10    11   ar
    11    11    12    1
    12    11    13   ar
    13    13    14    1
    14    14    15    1
    15    15    16   ar
    16    16    17   ar
    17    17    18   ar
    18    18    19   ar
    19    19    20   ar
    20    15    20   ar
    21    13    21   ar
    22     9    21   ar
    23     3    22    1
    24    22    23    1
    25    22    24    1
    26    24    25    1
    27    25    26   ar
    28    26    27   ar
    29    27    28   ar
    30    28    29   ar
    31    29    30   ar
    32    25    30   ar
    33    24    31    1
    34     2    31    1
    35     1    32    1
    36     1    33    1
    37     1    34    1
    38     4    35    1
    39     7    36    1
    40     7    37    1
    41    12    38    1
    42    12    39    1
    43    12    40    1
    44    14    41    1
    45    14    42    1
    46    16    43    1
    47    17    44    1
    48    18    45    1
    49    19    46    1
    50    20    47    1
    51    21    48    1
    52    22    49    1
    53    23    50    1
    54    23    51    1
    55    23    52    1
    56    26    53    1
    57    27    54    1
    58    28    55    1
    59    29    56    1
    60    30    57    1
    61    31    58    1
