@<TRIPOS>MOLECULE
*****
 65 67 0 0 0
SMALL
GASTEIGER

@<TRIPOS>ATOM
      1 C           1.0477   -2.0259    0.3443 C.3     1  UNL1       -0.0245
      2 C           2.5049   -2.2159    0.5429 C.3     1  UNL1       -0.0343
      3 N           2.9296   -3.2297    1.6043 N.4     1  UNL1        0.2424
      4 C           2.3869   -4.6562    1.4422 C.3     1  UNL1        0.0275
      5 C           0.8742   -4.7600    1.6557 C.ar    1  UNL1        0.1564
      6 N           0.2382   -3.7237    2.1056 N.ar    1  UNL1       -0.2211
      7 C          -1.0890   -3.7051    1.8104 C.ar    1  UNL1        0.1166
      8 S          -1.9493   -2.2503    1.6143 S.2     1  UNL1       -0.0617
      9 C          -3.4391   -3.0657    1.4269 C.ar    1  UNL1        0.1018
     10 C          -4.6245   -2.2180    1.4224 C.2     1  UNL1        0.3465
     11 O          -4.6197   -0.9977    1.4938 O.2     1  UNL1       -0.2444
     12 O          -5.7533   -2.9761    1.3546 O.3     1  UNL1       -0.4581
     13 C          -7.0134   -2.2841    1.3761 C.3     1  UNL1        0.0978
     14 C          -7.1692   -1.4406    0.1174 C.3     1  UNL1       -0.0280
     15 C          -8.1256   -3.3329    1.4137 C.3     1  UNL1       -0.0280
     16 C          -3.2423   -4.4459    1.3778 C.ar    1  UNL1       -0.0149
     17 C          -4.2927   -5.4956    1.3468 C.3     1  UNL1       -0.0376
     18 C          -1.8443   -4.7830    1.4520 C.ar    1  UNL1        0.0756
     19 C          -1.1362   -6.0515    1.3420 C.ar    1  UNL1        0.2602
     20 O          -1.6589   -7.1440    1.3431 O.2     1  UNL1       -0.2671
     21 N           0.2453   -5.9087    1.2610 N.ar    1  UNL1       -0.3061
     22 C           4.4490   -3.2624    1.6856 C.3     1  UNL1       -0.0016
     23 C           5.0128   -1.8857    2.0329 C.3     1  UNL1        0.1285
     24 O           4.7160   -0.8623    1.0721 O.3     1  UNL1       -0.3831
     25 C           6.5127   -1.9456    2.0892 C.3     1  UNL1        0.1204
     26 O           6.9540   -2.8574    3.0807 O.3     1  UNL1       -0.4889
     27 C           8.3228   -2.9316    3.1654 C.ar    1  UNL1        0.1235
     28 C           8.8572   -4.2230    3.1715 C.ar    1  UNL1       -0.0197
     29 C          10.2367   -4.4026    3.0779 C.ar    1  UNL1       -0.0583
     30 C          11.0866   -3.3222    3.2783 C.ar    1  UNL1       -0.0613
     31 C          10.5557   -2.0478    3.4275 C.ar    1  UNL1       -0.0554
     32 C           9.1822   -1.8254    3.2749 C.ar    1  UNL1       -0.0088
     33 C           8.7318   -0.3992    3.2070 C.3     1  UNL1       -0.0362
     34 H           0.7892   -1.2099   -0.3276 H       1  UNL1        0.0281
     35 H           0.6604   -1.7132    1.3176 H       1  UNL1        0.0281
     36 H           0.6177   -2.9298   -0.0860 H       1  UNL1        0.0281
     37 H           2.7765   -1.2377    0.9198 H       1  UNL1        0.0812
     38 H           3.0054   -2.4803   -0.3891 H       1  UNL1        0.0812
     39 H           2.5561   -2.8944    2.5091 H       1  UNL1        0.2039
     40 H           2.8891   -5.2972    2.1745 H       1  UNL1        0.0897
     41 H           2.6669   -4.9720    0.4309 H       1  UNL1        0.0897
     42 H          -7.0718   -1.6740    2.2854 H       1  UNL1        0.0728
     43 H          -7.0762   -2.0691   -0.7748 H       1  UNL1        0.0265
     44 H          -6.3913   -0.6785    0.0355 H       1  UNL1        0.0265
     45 H          -8.1342   -0.9301    0.1068 H       1  UNL1        0.0265
     46 H          -8.0741   -3.9932    0.5396 H       1  UNL1        0.0265
     47 H          -9.1103   -2.8540    1.4245 H       1  UNL1        0.0265
     48 H          -8.0413   -3.9749    2.2967 H       1  UNL1        0.0265
     49 H          -5.3045   -5.1037    1.3622 H       1  UNL1        0.0278
     50 H          -4.1839   -6.1091    2.2469 H       1  UNL1        0.0278
     51 H          -4.1879   -6.1182    0.4571 H       1  UNL1        0.0278
     52 H           0.7441   -6.7879    1.2203 H       1  UNL1        0.1702
     53 H           4.8035   -3.5921    0.7021 H       1  UNL1        0.0841
     54 H           4.7281   -4.0037    2.4427 H       1  UNL1        0.0841
     55 H           4.6065   -1.5641    3.0005 H       1  UNL1        0.0681
     56 H           5.0064   -1.1284    0.1814 H       1  UNL1        0.2102
     57 H           6.7316   -0.9144    2.3273 H       1  UNL1        0.0725
     58 H           6.9278   -2.1811    1.0989 H       1  UNL1        0.0725
     59 H           8.2140   -5.0964    3.2284 H       1  UNL1        0.0654
     60 H          10.6530   -5.3830    2.8638 H       1  UNL1        0.0619
     61 H          12.1625   -3.4658    3.3267 H       1  UNL1        0.0618
     62 H          11.2225   -1.2128    3.6309 H       1  UNL1        0.0621
     63 H           9.5321    0.3131    3.4045 H       1  UNL1        0.0279
     64 H           7.9248   -0.2245    3.9259 H       1  UNL1        0.0279
     65 H           8.4218   -0.1760    2.1789 H       1  UNL1        0.0279
@<TRIPOS>UNITY_ATOM_ATTR
3 1
charge 1
@<TRIPOS>BOND
     1     1     2    1
     2     2     3    1
     3     3     4    1
     4     4     5    1
     5     5     6   ar
     6     6     7   ar
     7     7     8   ar
     8     8     9   ar
     9     9    10    1
    10    10    11    2
    11    10    12    1
    12    12    13    1
    13    13    14    1
    14    13    15    1
    15     9    16   ar
    16    16    17    1
    17    16    18   ar
    18     7    18   ar
    19    18    19   ar
    20    19    20    2
    21    19    21   ar
    22     5    21   ar
    23     3    22    1
    24    23    25    1
    25    25    26    1
    26    26    27    1
    27    27    28   ar
    28    28    29   ar
    29    29    30   ar
    30    30    31   ar
    31    31    32   ar
    32    27    32   ar
    33    32    33    1
    34    23    24    1
    35    23    22    1
    36     1    34    1
    37     1    35    1
    38     1    36    1
    39     2    37    1
    40     2    38    1
    41     3    39    1
    42     4    40    1
    43     4    41    1
    44    13    42    1
    45    14    43    1
    46    14    44    1
    47    14    45    1
    48    15    46    1
    49    15    47    1
    50    15    48    1
    51    17    49    1
    52    17    50    1
    53    17    51    1
    54    21    52    1
    55    22    53    1
    56    22    54    1
    57    23    55    1
    58    24    56    1
    59    25    57    1
    60    25    58    1
    61    28    59    1
    62    29    60    1
    63    30    61    1
    64    31    62    1
    65    33    63    1
    66    33    64    1
    67    33    65    1
