@<TRIPOS>MOLECULE
*****
 35 36 0 0 0
SMALL
GASTEIGER

@<TRIPOS>ATOM
      1 C           1.0104   -0.0591   -0.1216 C.3     1  UNL1        0.0788
      2 O           2.4272    0.0302   -0.2906 O.3     1  UNL1       -0.4951
      3 C           3.0916    0.8343    0.5939 C.ar    1  UNL1        0.1204
      4 C           4.3021    1.3978    0.1978 C.ar    1  UNL1       -0.0199
      5 C           5.0880    2.1098    1.1110 C.ar    1  UNL1       -0.0580
      6 C           4.6494    2.2803    2.4192 C.ar    1  UNL1       -0.0569
      7 C           3.4543    1.6852    2.8383 C.ar    1  UNL1       -0.0270
      8 C           3.0747    1.7843    4.2900 C.3     1  UNL1        0.0345
      9 N           1.7909    1.1868    4.6056 N.pl3   1  UNL1       -0.3391
     10 C           1.0764    1.3725    5.7692 C.ar    1  UNL1        0.0397
     11 C           0.4231    0.2039    6.2382 C.ar    1  UNL1       -0.0387
     12 C          -0.3670    0.2130    7.3810 C.ar    1  UNL1       -0.0416
     13 C          -0.4502    1.3816    8.1157 C.ar    1  UNL1        0.0418
     14 CL         -1.3104    1.3973    9.6041 Cl      1  UNL1       -0.0835
     15 C           0.1760    2.5483    7.6759 C.ar    1  UNL1       -0.0295
     16 C           0.9309    2.5750    6.4917 C.ar    1  UNL1        0.0586
     17 C           1.4683    3.9020    6.0254 C.2     1  UNL1        0.2434
     18 N           1.6290    4.9161    6.9238 N.am    1  UNL1       -0.3253
     19 O           1.7464    4.1923    4.8620 O.2     1  UNL1       -0.2704
     20 C           2.6736    1.0104    1.8996 C.ar    1  UNL1       -0.0153
     21 H           0.6466   -0.8748   -0.7511 H       1  UNL1        0.0660
     22 H           0.5536    0.8775   -0.4506 H       1  UNL1        0.0660
     23 H           0.6713   -0.3069    0.8908 H       1  UNL1        0.0660
     24 H           4.6382    1.2887   -0.8273 H       1  UNL1        0.0654
     25 H           6.0550    2.5079    0.8175 H       1  UNL1        0.0619
     26 H           5.2363    2.8768    3.1167 H       1  UNL1        0.0621
     27 H           3.1709    2.8352    4.5091 H       1  UNL1        0.0511
     28 H           3.8323    1.2933    4.9082 H       1  UNL1        0.0511
     29 H           1.2266    0.7943    3.8684 H       1  UNL1        0.1464
     30 H           0.5627   -0.7433    5.7131 H       1  UNL1        0.0637
     31 H          -0.8933   -0.6852    7.6913 H       1  UNL1        0.0633
     32 H           0.0335    3.4431    8.2650 H       1  UNL1        0.0640
     33 H           1.0273    5.0356    7.7224 H       1  UNL1        0.1453
     34 H           1.9510    5.7666    6.4770 H       1  UNL1        0.1453
     35 H           1.7352    0.5853    2.1977 H       1  UNL1        0.0657
@<TRIPOS>BOND
     1     1     2    1
     2     2     3    1
     3     3     4   ar
     4     4     5   ar
     5     5     6   ar
     6     6     7   ar
     7     7     8    1
     8     8     9    1
     9     9    10    1
    10    10    11   ar
    11    11    12   ar
    12    12    13   ar
    13    13    14    1
    14    13    15   ar
    15    15    16   ar
    16    10    16   ar
    17    16    17    1
    18    17    18   am
    19    17    19    2
    20     7    20   ar
    21     3    20   ar
    22     1    21    1
    23     1    22    1
    24     1    23    1
    25     4    24    1
    26     5    25    1
    27     6    26    1
    28     8    27    1
    29     8    28    1
    30     9    29    1
    31    11    30    1
    32    12    31    1
    33    15    32    1
    34    18    33    1
    35    18    34    1
    36    20    35    1
