REMARK  5 active torsions:
REMARK  status: ('A' for Active; 'I' for Inactive)
REMARK    1  A    between atoms: C_5  and  C_6 
REMARK       I    between atoms: C_6  and  N_7 
REMARK    2  A    between atoms: C_10  and  N_11 
REMARK       I    between atoms: N_11  and  C_12 
REMARK    3  A    between atoms: C_12  and  C_14 
REMARK    4  A    between atoms: C_18  and  O_19 
REMARK    5  A    between atoms: O_19  and  C_20 
ROOT
ATOM      1  N   UNL d   1       1.065   2.382  -0.059  0.00  0.00    -0.322 N 
ATOM      2  C   UNL d   1       2.437   2.593  -0.180  0.00  0.00     0.256 C 
ATOM      3  O   UNL d   1       3.010   3.380   0.570  0.00  0.00    -0.267 OA
ATOM      4  H   UNL d   1       0.551   3.222   0.196  0.00  0.00     0.169 HD
ENDROOT
BRANCH   1   5
ATOM      5  C   UNL d   1       0.359   1.145   0.059  0.00  0.00     0.042 C 
ATOM      6  C   UNL d   1      -1.059   1.184   0.011  0.00  0.00     0.047 C 
ATOM      7  C   UNL d   1      -1.821  -0.009  -0.004  0.00  0.00     0.034 C 
ATOM      8  C   UNL d   1      -1.157  -1.232   0.007  0.00  0.00     0.017 C 
ATOM      9  C   UNL d   1       0.223  -1.277   0.108  0.00  0.00     0.010 C 
ATOM     10  C   UNL d   1       0.989  -0.112   0.206  0.00  0.00    -0.035 C 
ATOM     11  C   UNL d   1       2.446  -0.357   0.475  0.00  0.00     0.050 C 
BRANCH   7  12
ATOM     12  C   UNL d   1      -3.321   0.040  -0.046  0.00  0.00     0.249 C 
ATOM     13  N   UNL d   1      -4.006  -1.156  -0.065  0.00  0.00    -0.366 N 
ATOM     14  H   UNL d   1      -3.599  -2.076  -0.046  0.00  0.00     0.159 HD
ATOM     15  H   UNL d   1      -5.017  -1.113  -0.082  0.00  0.00     0.159 HD
ATOM     16  O   UNL d   1      -3.926   1.093  -0.060  0.00  0.00    -0.268 OA
ENDBRANCH   7  12
ENDBRANCH   1   5
BRANCH   2  17
ATOM     17  C   UNL d   1       3.219   1.874  -1.256  0.00  0.00     0.035 C 
ATOM     18  C   UNL d   1       4.610   1.722  -1.113  0.00  0.00     0.017 C 
ATOM     19  C   UNL d   1       5.291   0.779  -1.897  0.00  0.00     0.004 C 
ATOM     20  C   UNL d   1       4.586  -0.048  -2.784  0.00  0.00     0.037 C 
ATOM     21  C   UNL d   1       3.199   0.082  -2.923  0.00  0.00     0.075 C 
ATOM     22  C   UNL d   1       2.545   1.104  -2.226  0.00  0.00     0.054 C 
BRANCH  21  23
ATOM     23  O   UNL d   1       2.571  -0.895  -3.654  0.00  0.00    -0.290 OA
BRANCH  23  24
ATOM     24  C   UNL d   1       1.148  -0.969  -3.564  0.00  0.00     0.505 C 
ATOM     25  F   UNL d   1       0.600   0.205  -3.961  0.00  0.00    -0.184 F 
ATOM     26  F   UNL d   1       0.723  -1.903  -4.453  0.00  0.00    -0.184 F 
ENDBRANCH  23  24
ENDBRANCH  21  23
ENDBRANCH   2  17
TORSDOF 5
