@<TRIPOS>MOLECULE
*****
 54 56 0 0 0
SMALL
GASTEIGER

@<TRIPOS>ATOM
      1 C           1.0010   -0.1202   -0.0462 C.3     1  UNL1       -0.0653
      2 C           2.5130   -0.2087   -0.1581 C.3     1  UNL1       -0.0552
      3 C           3.0605   -1.4049    0.6273 C.3     1  UNL1       -0.0439
      4 C           4.5789   -1.4973    0.4609 C.3     1  UNL1       -0.0016
      5 S           5.1800   -2.9483    1.3806 S.3     1  UNL1       -0.1234
      6 C           6.8940   -2.5807    1.7891 C.ar    1  UNL1        0.0291
      7 C           7.6978   -3.7425    1.6609 C.ar    1  UNL1       -0.0465
      8 C           9.0698   -3.7311    1.8933 C.ar    1  UNL1       -0.0606
      9 C           9.6850   -2.5303    2.2050 C.ar    1  UNL1       -0.0599
     10 C           8.9115   -1.3640    2.3618 C.ar    1  UNL1       -0.0394
     11 C           7.5013   -1.3671    2.2027 C.ar    1  UNL1        0.0469
     12 N           6.8152   -0.1188    2.4406 N.am    1  UNL1       -0.2839
     13 C           5.5139   -0.0122    2.9308 C.2     1  UNL1        0.2275
     14 O           4.9621   -0.9569    3.5117 O.2     1  UNL1       -0.2746
     15 C           4.7739    1.3450    2.7255 C.3     1  UNL1        0.0780
     16 S           2.9895    1.0529    2.9488 S.3     1  UNL1       -0.0750
     17 C           2.0705    2.4598    2.5464 C.ar    1  UNL1        0.2105
     18 N           2.5677    3.6739    2.3018 N.ar    1  UNL1       -0.1443
     19 N           1.4473    4.4302    2.4231 N.ar    1  UNL1       -0.2446
     20 C           0.3314    3.6739    2.6845 C.ar    1  UNL1        0.2317
     21 N          -0.8975    4.2090    2.9457 N.pl3   1  UNL1       -0.2054
     22 N          -1.9566    3.3891    3.2530 N.2     1  UNL1       -0.1875
     23 C          -3.1203    3.9227    3.4507 C.2     1  UNL1        0.0528
     24 C          -4.2993    3.0777    3.7761 C.ar    1  UNL1       -0.0041
     25 C          -5.5708    3.4073    3.2871 C.ar    1  UNL1       -0.0530
     26 C          -6.6883    2.6609    3.6858 C.ar    1  UNL1       -0.0598
     27 C          -6.5295    1.5604    4.5297 C.ar    1  UNL1       -0.0434
     28 C          -5.2588    1.2306    5.0011 C.ar    1  UNL1        0.0416
     29 CL         -5.0785   -0.0830    6.0987 Cl      1  UNL1       -0.0835
     30 C          -4.1427    1.9801    4.6272 C.ar    1  UNL1       -0.0347
     31 N           0.7065    2.4166    2.6807 N.ar    1  UNL1       -0.1865
     32 H           0.6271    0.7232   -0.6341 H       1  UNL1        0.0230
     33 H           0.6742    0.0201    0.9893 H       1  UNL1        0.0230
     34 H           0.5420   -1.0381   -0.4223 H       1  UNL1        0.0230
     35 H           2.9570    0.7361    0.1747 H       1  UNL1        0.0263
     36 H           2.8015   -0.3098   -1.2079 H       1  UNL1        0.0263
     37 H           2.5819   -2.3243    0.2755 H       1  UNL1        0.0273
     38 H           2.7802   -1.3272    1.6857 H       1  UNL1        0.0273
     39 H           5.0250   -0.5490    0.7459 H       1  UNL1        0.0380
     40 H           4.8554   -1.6278   -0.5852 H       1  UNL1        0.0380
     41 H           7.2454   -4.6869    1.3565 H       1  UNL1        0.0629
     42 H           9.6414   -4.6541    1.8169 H       1  UNL1        0.0618
     43 H          10.7666   -2.5093    2.3315 H       1  UNL1        0.0618
     44 H           9.4452   -0.4616    2.6522 H       1  UNL1        0.0636
     45 H           7.4027    0.6987    2.5550 H       1  UNL1        0.1549
     46 H           5.0132    1.7852    1.7478 H       1  UNL1        0.0475
     47 H           5.0902    2.0058    3.5288 H       1  UNL1        0.0475
     48 H           1.5337    5.4360    2.3843 H       1  UNL1        0.1919
     49 H          -1.0222    5.2157    3.0162 H       1  UNL1        0.1774
     50 H          -3.2964    5.0122    3.3980 H       1  UNL1        0.0851
     51 H          -5.7065    4.2209    2.5791 H       1  UNL1        0.0624
     52 H          -7.6861    2.9365    3.3490 H       1  UNL1        0.0618
     53 H          -7.3948    0.9661    4.8172 H       1  UNL1        0.0632
     54 H          -3.1585    1.7266    5.0125 H       1  UNL1        0.0638
@<TRIPOS>BOND
     1     1     2    1
     2     2     3    1
     3     3     4    1
     4     4     5    1
     5     5     6    1
     6     6     7   ar
     7     7     8   ar
     8     8     9   ar
     9     9    10   ar
    10    10    11   ar
    11     6    11   ar
    12    11    12    1
    13    12    13   am
    14    13    14    2
    15    13    15    1
    16    15    16    1
    17    16    17    1
    18    17    18   ar
    19    18    19   ar
    20    19    20   ar
    21    20    21    1
    22    21    22    1
    23    22    23    2
    24    23    24    1
    25    24    25   ar
    26    25    26   ar
    27    26    27   ar
    28    27    28   ar
    29    28    29    1
    30    28    30   ar
    31    24    30   ar
    32    20    31   ar
    33    17    31   ar
    34     1    32    1
    35     1    33    1
    36     1    34    1
    37     2    35    1
    38     2    36    1
    39     3    37    1
    40     3    38    1
    41     4    39    1
    42     4    40    1
    43     7    41    1
    44     8    42    1
    45     9    43    1
    46    10    44    1
    47    12    45    1
    48    15    46    1
    49    15    47    1
    50    19    48    1
    51    21    49    1
    52    23    50    1
    53    25    51    1
    54    26    52    1
    55    27    53    1
    56    30    54    1
