@<TRIPOS>MOLECULE
*****
 33 34 0 0 0
SMALL
GASTEIGER

@<TRIPOS>ATOM
      1 C           2.4449   -0.3586    0.4658 C.3     1  UNL1       -0.0380
      2 C           0.9904   -0.1131    0.1867 C.ar    1  UNL1       -0.0292
      3 C           0.2253   -1.2772    0.0800 C.ar    1  UNL1       -0.0564
      4 C          -1.1555   -1.2320   -0.0055 C.ar    1  UNL1       -0.0493
      5 C          -1.8208   -0.0089   -0.0079 C.ar    1  UNL1        0.0383
      6 C          -3.3202    0.0404   -0.0458 C.2     1  UNL1        0.2416
      7 N          -4.0057   -1.1559   -0.0613 N.am    1  UNL1       -0.3253
      8 O          -3.9255    1.0934   -0.0595 O.2     1  UNL1       -0.2704
      9 C          -1.0590    1.1833    0.0052 C.ar    1  UNL1       -0.0281
     10 C           0.3591    1.1428    0.0429 C.ar    1  UNL1        0.0373
     11 N           1.0642    2.3792   -0.0774 N.am    1  UNL1       -0.2813
     12 C           2.4341    2.5826   -0.1975 C.2     1  UNL1        0.2483
     13 O           3.0117    3.3682    0.5503 O.2     1  UNL1       -0.2699
     14 C           3.2173    1.8642   -1.2727 C.ar    1  UNL1        0.0398
     15 C           4.6133    1.7333   -1.1203 C.ar    1  UNL1       -0.0312
     16 C           5.3159    0.8070   -1.9039 C.ar    1  UNL1        0.0431
     17 CL          7.0180    0.6290   -1.7116 Cl      1  UNL1       -0.0835
     18 C           4.6470   -0.0358   -2.7918 C.ar    1  UNL1       -0.0250
     19 C           3.2709    0.0977   -2.9448 C.ar    1  UNL1        0.0431
     20 CL          2.3929   -1.1105   -3.8072 Cl      1  UNL1       -0.0835
     21 C           2.5655    1.0891   -2.2535 C.ar    1  UNL1       -0.0312
     22 H           2.6789   -1.4087    0.6484 H       1  UNL1        0.0278
     23 H           2.8262    0.2642    1.2763 H       1  UNL1        0.0278
     24 H           3.0345   -0.2097   -0.4129 H       1  UNL1        0.0278
     25 H           0.7181   -2.2466    0.0796 H       1  UNL1        0.0621
     26 H          -1.6683   -2.1834   -0.0429 H       1  UNL1        0.0625
     27 H          -3.5954   -2.0744   -0.0487 H       1  UNL1        0.1453
     28 H          -5.0165   -1.1144   -0.0812 H       1  UNL1        0.1453
     29 H          -1.5903    2.1359   -0.0350 H       1  UNL1        0.0644
     30 H           0.5546    3.2152    0.1961 H       1  UNL1        0.1551
     31 H           5.1347    2.2600   -0.3207 H       1  UNL1        0.0640
     32 H           5.1818   -0.8231   -3.3181 H       1  UNL1        0.0647
     33 H           1.4807    1.0744   -2.3111 H       1  UNL1        0.0640
@<TRIPOS>BOND
     1     1     2    1
     2     2     3   ar
     3     3     4   ar
     4     4     5   ar
     5     5     6    1
     6     6     7   am
     7     6     8    2
     8     5     9   ar
     9     9    10   ar
    10     2    10   ar
    11    10    11    1
    12    11    12   am
    13    12    13    2
    14    12    14    1
    15    14    15   ar
    16    15    16   ar
    17    16    17    1
    18    16    18   ar
    19    18    19   ar
    20    19    20    1
    21    19    21   ar
    22    14    21   ar
    23     1    22    1
    24     1    23    1
    25     1    24    1
    26     3    25    1
    27     4    26    1
    28     7    27    1
    29     7    28    1
    30     9    29    1
    31    11    30    1
    32    15    31    1
    33    18    32    1
    34    21    33    1
