@<TRIPOS>MOLECULE
*****
 39 41 0 0 0
SMALL
GASTEIGER

@<TRIPOS>ATOM
      1 O           5.1415   -1.1283   -1.3568 O.2     1  UNL1       -0.2507
      2 C           5.3991    0.0731   -1.2597 C.2     1  UNL1        0.3231
      3 N           5.8751    0.8378   -2.3136 N.am    1  UNL1       -0.1781
      4 O           6.1021    0.1157   -3.5279 O.3     1  UNL1       -0.2740
      5 C           6.5954    0.9568   -4.5819 C.3     1  UNL1        0.0983
      6 C           6.9795    0.1237   -5.7938 C.ar    1  UNL1       -0.0197
      7 C           6.0115   -0.5619   -6.5449 C.ar    1  UNL1       -0.0563
      8 C           6.3877   -1.4016   -7.6015 C.ar    1  UNL1       -0.0614
      9 C           7.7266   -1.5069   -7.9731 C.ar    1  UNL1       -0.0617
     10 C           8.6951   -0.8006   -7.2652 C.ar    1  UNL1       -0.0614
     11 C           8.3253    0.0013   -6.1794 C.ar    1  UNL1       -0.0563
     12 N           5.2882    0.7484   -0.0588 N.am    1  UNL1       -0.2910
     13 C           4.6353    0.1771    1.1383 C.3     1  UNL1        0.0504
     14 C           4.9600   -1.2954    1.5567 C.3     1  UNL1       -0.0263
     15 C           5.5371   -1.3257    2.9824 C.3     1  UNL1       -0.0253
     16 C           5.5479    0.1075    3.3770 C.ar    1  UNL1       -0.0410
     17 C           5.9597    0.5939    4.6111 C.ar    1  UNL1       -0.0399
     18 C           5.7592    1.9415    4.8831 C.ar    1  UNL1        0.0413
     19 CL          6.0486    2.5355    6.4729 Cl      1  UNL1       -0.0835
     20 C           5.2472    2.7985    3.9009 C.ar    1  UNL1       -0.0431
     21 C           4.8678    2.2995    2.6467 C.ar    1  UNL1       -0.0552
     22 C           5.0166    0.9419    2.3885 C.ar    1  UNL1       -0.0239
     23 H           5.9647    1.8439   -2.3219 H       1  UNL1        0.1841
     24 H           7.4730    1.5125   -4.2299 H       1  UNL1        0.0634
     25 H           5.8228    1.6787   -4.8701 H       1  UNL1        0.0634
     26 H           4.9558   -0.4624   -6.3025 H       1  UNL1        0.0621
     27 H           5.6371   -1.9895   -8.1248 H       1  UNL1        0.0618
     28 H           8.0144   -2.1415   -8.8080 H       1  UNL1        0.0618
     29 H           9.7424   -0.8913   -7.5436 H       1  UNL1        0.0618
     30 H           9.1044    0.5240   -5.6301 H       1  UNL1        0.0621
     31 H           5.2008    1.7498   -0.1419 H       1  UNL1        0.1509
     32 H           3.5526    0.2703    0.9786 H       1  UNL1        0.0549
     33 H           5.6459   -1.8175    0.8854 H       1  UNL1        0.0289
     34 H           4.0345   -1.8918    1.5606 H       1  UNL1        0.0289
     35 H           6.5430   -1.7550    3.0100 H       1  UNL1        0.0314
     36 H           4.8927   -1.8929    3.6673 H       1  UNL1        0.0314
     37 H           6.3932   -0.0709    5.3524 H       1  UNL1        0.0635
     38 H           5.1280    3.8562    4.1200 H       1  UNL1        0.0632
     39 H           4.4358    2.9686    1.9103 H       1  UNL1        0.0621
@<TRIPOS>BOND
     1     1     2    2
     2     2     3   am
     3     3     4    1
     4     4     5    1
     5     5     6    1
     6     6     7   ar
     7     7     8   ar
     8     8     9   ar
     9     9    10   ar
    10    10    11   ar
    11     6    11   ar
    12     2    12   am
    13    13    14    1
    14    14    15    1
    15    15    16    1
    16    16    17   ar
    17    17    18   ar
    18    18    19    1
    19    18    20   ar
    20    20    21   ar
    21    21    22   ar
    22    16    22   ar
    23    13    22    1
    24    13    12    1
    25     3    23    1
    26     5    24    1
    27     5    25    1
    28     7    26    1
    29     8    27    1
    30     9    28    1
    31    10    29    1
    32    11    30    1
    33    12    31    1
    34    13    32    1
    35    14    33    1
    36    14    34    1
    37    15    35    1
    38    15    36    1
    39    17    37    1
    40    20    38    1
    41    21    39    1
