@<TRIPOS>MOLECULE
*****
 43 46 0 0 0
SMALL
GASTEIGER

@<TRIPOS>ATOM
      1 C           2.5674    0.0006   -0.0034 C.3     1  UNL1       -0.0397
      2 C           1.0771   -0.0126   -0.1165 C.ar    1  UNL1       -0.0502
      3 C           0.3849   -1.2316   -0.1034 C.ar    1  UNL1       -0.0588
      4 C          -0.9814   -1.2551   -0.3168 C.ar    1  UNL1       -0.0612
      5 C          -1.6438   -0.0621   -0.5685 C.ar    1  UNL1       -0.0576
      6 C          -1.0103    1.1980   -0.3809 C.ar    1  UNL1       -0.0322
      7 C          -1.9497    2.3494    0.0218 C.3     1  UNL1        0.0722
      8 C          -2.6823    1.8120    1.2372 C.2     1  UNL1        0.2277
      9 O          -1.9436    1.3806    2.1270 O.2     1  UNL1       -0.2745
     10 N          -4.0521    1.6503    1.2313 N.am    1  UNL1       -0.2847
     11 C          -4.7003    0.6093    1.9632 C.ar    1  UNL1        0.0340
     12 C          -6.0757    0.4260    1.8502 C.ar    1  UNL1       -0.0404
     13 C          -6.7259   -0.5402    2.6414 C.ar    1  UNL1       -0.0594
     14 C          -6.0076   -1.3740    3.5103 C.ar    1  UNL1       -0.0525
     15 C          -4.6311   -1.2359    3.5976 C.ar    1  UNL1        0.0015
     16 C          -3.8120   -1.9258    4.5837 C.ar    1  UNL1        0.0658
     17 C          -3.0196   -1.3832    5.5780 C.ar    1  UNL1       -0.0166
     18 C          -2.3438   -2.4698    6.1503 C.ar    1  UNL1        0.0497
     19 N          -2.6690   -3.6278    5.5711 N.ar    1  UNL1       -0.1818
     20 N          -3.5446   -3.2683    4.6099 N.ar    1  UNL1       -0.2770
     21 C          -4.0031   -0.2689    2.8068 C.ar    1  UNL1       -0.0313
     22 C          -1.7697    3.8548    0.4013 C.3     1  UNL1       -0.0337
     23 C          -1.8513    3.4888   -0.9994 C.3     1  UNL1       -0.0337
     24 C           0.3735    1.2019   -0.2010 C.ar    1  UNL1       -0.0547
     25 H           2.9686   -1.0173    0.0273 H       1  UNL1        0.0278
     26 H           2.8889    0.5308    0.8968 H       1  UNL1        0.0278
     27 H           2.9754    0.4935   -0.8908 H       1  UNL1        0.0278
     28 H           0.9018   -2.1674    0.0922 H       1  UNL1        0.0620
     29 H          -1.5476   -2.1768   -0.2123 H       1  UNL1        0.0618
     30 H          -2.7277   -0.1062   -0.6750 H       1  UNL1        0.0621
     31 H          -4.6146    2.3619    0.7840 H       1  UNL1        0.1548
     32 H          -6.6610    1.0094    1.1450 H       1  UNL1        0.0636
     33 H          -7.8098   -0.6200    2.6080 H       1  UNL1        0.0618
     34 H          -6.5304   -2.0864    4.1424 H       1  UNL1        0.0624
     35 H          -2.9319   -0.3340    5.8253 H       1  UNL1        0.0654
     36 H          -1.6226   -2.4574    6.9576 H       1  UNL1        0.0848
     37 H          -3.8951   -3.9889    3.9893 H       1  UNL1        0.1889
     38 H          -2.9289   -0.2146    2.9380 H       1  UNL1        0.0643
     39 H          -0.8522    4.1904    0.8601 H       1  UNL1        0.0279
     40 H          -2.6432    4.3930    0.7786 H       1  UNL1        0.0279
     41 H          -0.9008    3.6510   -1.5209 H       1  UNL1        0.0279
     42 H          -2.6908    3.7400   -1.6263 H       1  UNL1        0.0279
     43 H           0.8926    2.1389   -0.0142 H       1  UNL1        0.0623
@<TRIPOS>BOND
     1     1     2    1
     2     2     3   ar
     3     3     4   ar
     4     4     5   ar
     5     5     6   ar
     6     6     7    1
     7     7     8    1
     8     8     9    2
     9     8    10   am
    10    10    11    1
    11    11    12   ar
    12    12    13   ar
    13    13    14   ar
    14    14    15   ar
    15    15    16    1
    16    16    17   ar
    17    17    18   ar
    18    18    19   ar
    19    19    20   ar
    20    16    20   ar
    21    15    21   ar
    22    11    21   ar
    23     7    22    1
    24    22    23    1
    25     7    23    1
    26     6    24   ar
    27     2    24   ar
    28     1    25    1
    29     1    26    1
    30     1    27    1
    31     3    28    1
    32     4    29    1
    33     5    30    1
    34    10    31    1
    35    12    32    1
    36    13    33    1
    37    14    34    1
    38    17    35    1
    39    18    36    1
    40    20    37    1
    41    21    38    1
    42    22    39    1
    43    22    40    1
    44    23    41    1
    45    23    42    1
    46    24    43    1
