@<TRIPOS>MOLECULE
*****
 61 64 0 0 0
SMALL
GASTEIGER

@<TRIPOS>ATOM
      1 C           1.0159    0.0673    0.1389 C.2     1  UNL1       -0.1010
      2 C           2.3618    0.2480    0.2432 C.2     1  UNL1       -0.0715
      3 C           3.2178    1.0868   -0.6608 C.3     1  UNL1        0.0448
      4 N           4.6974    0.8744   -0.5121 N.ar    1  UNL1       -0.3009
      5 C           5.8536    1.8100   -0.3896 C.ar    1  UNL1        0.1515
      6 C           5.8094    3.4452   -0.4007 C.3     1  UNL1        0.0693
      7 N           4.4644    4.0109   -0.5293 N.pl3   1  UNL1       -0.3367
      8 C           4.1592    5.3540   -0.5770 C.ar    1  UNL1        0.0275
      9 C           4.9093    6.2466   -1.3256 C.ar    1  UNL1       -0.0406
     10 C           4.6248    7.6105   -1.3432 C.ar    1  UNL1       -0.0571
     11 C           3.5812    8.1342   -0.5991 C.ar    1  UNL1       -0.0503
     12 C           3.3104    9.6006   -0.5989 C.3     1  UNL1       -0.0397
     13 C           2.8192    7.2566    0.1548 C.ar    1  UNL1       -0.0571
     14 C           3.0999    5.8862    0.1586 C.ar    1  UNL1       -0.0406
     15 N           6.9676    1.0492   -0.2730 N.ar    1  UNL1       -0.1319
     16 N           6.5917   -0.3004   -0.3091 N.ar    1  UNL1       -0.1224
     17 C           5.2781   -0.4030   -0.4514 C.ar    1  UNL1        0.1924
     18 S           4.4846   -2.0036   -0.5354 S.3     1  UNL1       -0.0766
     19 C           2.6663   -1.9098   -0.8338 C.3     1  UNL1        0.0792
     20 C           1.9099   -3.1782   -0.8166 C.2     1  UNL1        0.2425
     21 O           2.5627   -4.2037   -0.6730 O.2     1  UNL1       -0.2732
     22 N           0.4913   -3.1274   -0.8992 N.am    1  UNL1       -0.2063
     23 N          -0.1803   -4.3381   -0.9438 N.2     1  UNL1       -0.1876
     24 C          -1.4687   -4.4166   -1.0698 C.2     1  UNL1        0.0569
     25 C          -2.1786   -5.7425   -1.1211 C.ar    1  UNL1        0.0436
     26 C          -3.5857   -5.7662   -1.2696 C.ar    1  UNL1        0.1261
     27 O          -4.3972   -4.6669   -1.3886 O.3     1  UNL1       -0.5061
     28 C          -4.2391   -7.0004   -1.2918 C.ar    1  UNL1       -0.0189
     29 C          -3.5303   -8.1811   -1.1659 C.ar    1  UNL1       -0.0505
     30 C          -2.1685   -8.1671   -1.0409 C.ar    1  UNL1       -0.0170
     31 C          -1.5973   -9.3918   -0.9557 C.ar    1  UNL1       -0.0540
     32 C          -0.2676   -9.3216   -0.8187 C.ar    1  UNL1       -0.0612
     33 C           0.9868   -9.3248   -0.6748 C.ar    1  UNL1       -0.0611
     34 C           0.1430   -7.6017   -0.8009 C.ar    1  UNL1       -0.0533
     35 C          -1.3828   -7.0317   -0.9933 C.ar    1  UNL1       -0.0057
     36 H           0.4778   -0.7697    0.6214 H       1  UNL1        0.0532
     37 H           0.4331    0.7184   -0.4808 H       1  UNL1        0.0532
     38 H           2.9947   -0.4789    0.8170 H       1  UNL1        0.0584
     39 H           2.8892    2.0231   -0.2674 H       1  UNL1        0.0536
     40 H           2.9021    0.9877   -1.7194 H       1  UNL1        0.0536
     41 H           6.4336    3.8568   -1.2171 H       1  UNL1        0.0542
     42 H           6.2495    3.8647    0.5295 H       1  UNL1        0.0542
     43 H           3.7183    3.3641   -0.6089 H       1  UNL1        0.1465
     44 H           5.7197    5.8801   -1.9380 H       1  UNL1        0.0636
     45 H           5.2386    8.2684   -1.9399 H       1  UNL1        0.0621
     46 H           4.0105   10.1206   -1.2589 H       1  UNL1        0.0278
     47 H           3.4278   10.0047    0.4084 H       1  UNL1        0.0278
     48 H           2.2968    9.8027   -0.9492 H       1  UNL1        0.0278
     49 H           2.0006    7.6293    0.7536 H       1  UNL1        0.0621
     50 H           2.4786    5.2442    0.7677 H       1  UNL1        0.0636
     51 H           2.4407   -1.2230   -1.6493 H       1  UNL1        0.0476
     52 H           2.1292   -1.6671    0.0666 H       1  UNL1        0.0476
     53 H          -0.0518   -2.2694   -0.9560 H       1  UNL1        0.1772
     54 H          -2.0688   -3.4983   -1.1381 H       1  UNL1        0.0853
     55 H          -3.9339   -3.8150   -1.3718 H       1  UNL1        0.2922
     56 H          -5.3137   -7.0662   -1.4078 H       1  UNL1        0.0654
     57 H          -4.0271   -9.1432   -1.1657 H       1  UNL1        0.0625
     58 H          -1.9322  -10.3794   -0.9447 H       1  UNL1        0.0624
     59 H           0.9281   -8.8695   -0.7717 H       1  UNL1        0.0618
     60 H           1.0299  -10.7177   -0.6527 H       1  UNL1        0.0618
     61 H           0.6182   -6.4634   -0.7860 H       1  UNL1        0.0624
@<TRIPOS>BOND
     1     1     2    2
     2     2     3    1
     3     3     4    1
     4     4     5   ar
     5     5     6    1
     6     6     7    1
     7     7     8    1
     8     8     9   ar
     9     9    10   ar
    10    10    11   ar
    11    11    12    1
    12    11    13   ar
    13    13    14   ar
    14     8    14   ar
    15     5    15   ar
    16    15    16   ar
    17    16    17   ar
    18     4    17   ar
    19    17    18    1
    20    18    19    1
    21    19    20    1
    22    20    21    2
    23    20    22   am
    24    22    23    1
    25    23    24    2
    26    24    25    1
    27    25    26   ar
    28    26    27    1
    29    26    28   ar
    30    28    29   ar
    31    29    30   ar
    32    30    31   ar
    33    31    32   ar
    34    32    33   ar
    35    33    34   ar
    36    34    35   ar
    37    25    35   ar
    38    30    35   ar
    39     1    36    1
    40     1    37    1
    41     2    38    1
    42     3    39    1
    43     3    40    1
    44     6    41    1
    45     6    42    1
    46     7    43    1
    47     9    44    1
    48    10    45    1
    49    12    46    1
    50    12    47    1
    51    12    48    1
    52    13    49    1
    53    14    50    1
    54    19    51    1
    55    19    52    1
    56    22    53    1
    57    24    54    1
    58    27    55    1
    59    28    56    1
    60    29    57    1
    61    31    58    1
    62    32    59    1
    63    33    60    1
    64    34    61    1
