@<TRIPOS>MOLECULE
*****
 55 58 0 0 0
SMALL
GASTEIGER

@<TRIPOS>ATOM
      1 N           1.2063   -0.0154   -0.1318 N.am    1  UNL1       -0.3134
      2 C           2.5550    0.0540   -0.0826 C.2     1  UNL1        0.2973
      3 O           3.1213    0.8861    0.6230 O.2     1  UNL1       -0.2531
      4 N           3.1884   -0.8572   -0.8637 N.am    1  UNL1       -0.2955
      5 C           4.6368   -0.9304   -0.9230 C.3     1  UNL1        0.0383
      6 C           5.1276   -2.0471   -1.8205 C.ar    1  UNL1       -0.0302
      7 C           4.6458   -3.3478   -1.6461 C.ar    1  UNL1       -0.0564
      8 C           5.1157   -4.3986   -2.4434 C.ar    1  UNL1       -0.0493
      9 C           6.0365   -4.1789   -3.4854 C.ar    1  UNL1        0.0371
     10 C           6.3294   -5.3381   -4.4050 C.2     1  UNL1        0.2497
     11 O           5.7756   -6.4060   -4.1464 O.2     1  UNL1       -0.2698
     12 N           7.2193   -5.1594   -5.4534 N.am    1  UNL1       -0.2607
     13 C           7.3717   -6.1592   -6.3927 C.ar    1  UNL1        0.1652
     14 N           6.4663   -7.0085   -6.8071 N.ar    1  UNL1       -0.2246
     15 C           6.9920   -7.8349   -7.7856 C.ar    1  UNL1        0.0802
     16 C           6.1287   -8.7196   -8.5509 C.ar    1  UNL1        0.0010
     17 C           6.2979  -10.1064   -8.6296 C.ar    1  UNL1       -0.0508
     18 C           5.4321  -10.8905   -9.4300 C.ar    1  UNL1       -0.0398
     19 C           4.3498  -10.3020  -10.1047 C.ar    1  UNL1        0.0337
     20 N           3.4041  -11.1080  -10.8038 N.am    1  UNL1       -0.2815
     21 C           2.2716  -10.6201  -11.4551 C.2     1  UNL1        0.2483
     22 O           1.9387   -9.4435  -11.5802 O.2     1  UNL1       -0.2699
     23 C           1.3387  -11.5970  -12.0611 C.ar    1  UNL1        0.0370
     24 C           0.7443  -11.2753  -13.2939 C.ar    1  UNL1       -0.0496
     25 C          -0.2886  -12.0621  -13.8041 C.ar    1  UNL1       -0.0610
     26 C          -0.6923  -13.2019  -13.1125 C.ar    1  UNL1       -0.0617
     27 C          -0.1054  -13.5221  -11.8854 C.ar    1  UNL1       -0.0610
     28 C           0.9011  -12.7140  -11.3488 C.ar    1  UNL1       -0.0496
     29 C           4.2176   -8.9154  -10.0255 C.ar    1  UNL1       -0.0398
     30 C           5.0829   -8.1362   -9.2600 C.ar    1  UNL1       -0.0508
     31 C           8.3243   -7.6170   -8.0806 C.ar    1  UNL1        0.0049
     32 S           8.8972   -6.2706   -7.1581 S.2     1  UNL1       -0.0599
     33 C           6.5583   -2.8892   -3.6311 C.ar    1  UNL1       -0.0493
     34 C           6.1138   -1.8381   -2.7992 C.ar    1  UNL1       -0.0564
     35 H           0.6913    0.6484    0.4319 H       1  UNL1        0.1465
     36 H           0.6888   -0.6809   -0.6830 H       1  UNL1        0.1465
     37 H           2.6394   -1.4916   -1.4218 H       1  UNL1        0.1506
     38 H           5.0176   -1.0885    0.0939 H       1  UNL1        0.0512
     39 H           5.0084    0.0446   -1.2604 H       1  UNL1        0.0512
     40 H           3.8885   -3.5534   -0.8913 H       1  UNL1        0.0621
     41 H           4.7375   -5.4018   -2.2468 H       1  UNL1        0.0625
     42 H           7.8232   -4.3590   -5.5322 H       1  UNL1        0.1571
     43 H           7.0796  -10.5910   -8.0482 H       1  UNL1        0.0625
     44 H           5.6245  -11.9587   -9.5014 H       1  UNL1        0.0636
     45 H           3.5536  -12.1095  -10.7892 H       1  UNL1        0.1551
     46 H           1.0642  -10.3898  -13.8418 H       1  UNL1        0.0625
     47 H          -0.7937  -11.7733  -14.7233 H       1  UNL1        0.0618
     48 H          -1.4781  -13.8325  -13.5223 H       1  UNL1        0.0618
     49 H          -0.4613  -14.3852  -11.3288 H       1  UNL1        0.0618
     50 H           1.2892  -12.9276  -10.3580 H       1  UNL1        0.0625
     51 H           3.4352   -8.3776  -10.5439 H       1  UNL1        0.0636
     52 H           4.9154   -7.0624   -9.2185 H       1  UNL1        0.0625
     53 H           8.9414   -8.1108   -8.8198 H       1  UNL1        0.0716
     54 H           7.3045   -2.6599   -4.3831 H       1  UNL1        0.0625
     55 H           6.5393   -0.8446   -2.9378 H       1  UNL1        0.0621
@<TRIPOS>BOND
     1     1     2   am
     2     2     3    2
     3     2     4   am
     4     4     5    1
     5     5     6    1
     6     6     7   ar
     7     7     8   ar
     8     8     9   ar
     9     9    10    1
    10    10    11    2
    11    10    12   am
    12    12    13    1
    13    13    14   ar
    14    14    15   ar
    15    15    16    1
    16    16    17   ar
    17    17    18   ar
    18    18    19   ar
    19    19    20    1
    20    20    21   am
    21    21    22    2
    22    21    23    1
    23    23    24   ar
    24    24    25   ar
    25    25    26   ar
    26    26    27   ar
    27    27    28   ar
    28    23    28   ar
    29    19    29   ar
    30    29    30   ar
    31    16    30   ar
    32    15    31   ar
    33    31    32   ar
    34    13    32   ar
    35     9    33   ar
    36    33    34   ar
    37     6    34   ar
    38     1    35    1
    39     1    36    1
    40     4    37    1
    41     5    38    1
    42     5    39    1
    43     7    40    1
    44     8    41    1
    45    12    42    1
    46    17    43    1
    47    18    44    1
    48    20    45    1
    49    24    46    1
    50    25    47    1
    51    26    48    1
    52    27    49    1
    53    28    50    1
    54    29    51    1
    55    30    52    1
    56    31    53    1
    57    33    54    1
    58    34    55    1
