REMARK  3 active torsions:
REMARK  status: ('A' for Active; 'I' for Inactive)
REMARK       I    between atoms: C_2  and  N_3 
REMARK    1  A    between atoms: C_2  and  C_14 
REMARK    2  A    between atoms: N_3  and  C_4 
REMARK    3  A    between atoms: C_19  and  C_20 
ROOT
ATOM      1  O   UNL d   1       1.038   0.236   0.260  0.00  0.00    -0.267 OA
ATOM      2  C   UNL d   1       2.257   0.203   0.095  0.00  0.00     0.257 C 
ATOM      3  N   UNL d   1       2.962   1.044  -0.771  0.00  0.00    -0.322 N 
ATOM      4  H   UNL d   1       3.917   0.795  -0.997  0.00  0.00     0.169 HD
ENDROOT
BRANCH   2   5
ATOM      5  C   UNL d   1       3.073  -0.811   0.830  0.00  0.00     0.046 A 
ATOM      6  C   UNL d   1       4.276  -0.396   1.423  0.00  0.00     0.018 A 
ATOM      7  C   UNL d   1       5.128  -1.327   2.022  0.00  0.00     0.001 A 
ATOM      8  C   UNL d   1       4.750  -2.664   2.114  0.00  0.00     0.001 A 
ATOM      9  C   UNL d   1       3.522  -3.074   1.597  0.00  0.00     0.016 A 
ATOM     10  C   UNL d   1       2.666  -2.157   0.958  0.00  0.00     0.025 A 
BRANCH  10  11
ATOM     11  C   UNL d   1       1.398  -2.649   0.430  0.00  0.00     0.138 A 
ATOM     12  N   UNL d   1       0.999  -2.597  -0.825  0.00  0.00    -0.241 NA
ATOM     13  C   UNL d   1      -0.285  -3.076  -0.828  0.00  0.00     0.136 A 
ATOM     14  C   UNL d   1      -0.653  -3.503   0.424  0.00  0.00     0.109 A 
ATOM     15  N   UNL d   1       0.428  -3.233   1.216  0.00  0.00    -0.349 N 
ATOM     16  H   UNL d   1       0.495  -3.388   2.212  0.00  0.00     0.167 HD
ENDBRANCH  10  11
ENDBRANCH   2   5
BRANCH   3  17
ATOM     17  C   UNL d   1       2.283   1.912  -1.663  0.00  0.00     0.053 A 
ATOM     18  C   UNL d   1       1.181   2.664  -1.272  0.00  0.00     0.147 A 
ATOM     19  N   UNL d   1       0.467   3.473  -2.094  0.00  0.00    -0.258 NA
ATOM     20  C   UNL d   1       0.819   3.517  -3.387  0.00  0.00     0.066 A 
ATOM     21  C   UNL d   1       0.060   4.282  -4.265  0.00  0.00     0.032 A 
ATOM     22  C   UNL d   1       1.930   2.805  -3.893  0.00  0.00    -0.005 A 
ATOM     23  C   UNL d   1       0.369   4.366  -5.624  0.00  0.00     0.002 A 
ATOM     24  C   UNL d   1       1.460   3.666  -6.126  0.00  0.00     0.001 A 
ATOM     25  C   UNL d   1       2.236   2.885  -5.266  0.00  0.00     0.014 A 
ATOM     26  C   UNL d   1       2.683   2.019  -2.993  0.00  0.00     0.044 A 
ENDBRANCH   3  17
TORSDOF 3
