REMARK  5 active torsions:
REMARK  status: ('A' for Active; 'I' for Inactive)
REMARK       I    between atoms: N_1  and  C_2 
REMARK    1  A    between atoms: C_2  and  C_4 
REMARK    2  A    between atoms: C_7  and  C_8 
REMARK       I    between atoms: C_8  and  N_10 
REMARK    3  A    between atoms: N_10  and  C_11 
REMARK    4  A    between atoms: C_14  and  O_15 
REMARK    5  A    between atoms: O_15  and  C_16 
ROOT
ATOM      1  C   UNL d   1       5.219   4.830  -1.780  0.00  0.00     0.256 C 
ATOM      2  O   UNL d   1       6.186   4.644  -2.518  0.00  0.00    -0.267 OA
ATOM      3  N   UNL d   1       4.783   6.100  -1.392  0.00  0.00    -0.323 N 
ATOM      4  H   UNL d   1       4.105   6.217  -0.654  0.00  0.00     0.169 HD
ENDROOT
BRANCH   1   5
ATOM      5  C   UNL d   1       4.491   3.621  -1.276  0.00  0.00     0.032 A 
ATOM      6  C   UNL d   1       4.946   2.351  -1.688  0.00  0.00     0.018 A 
ATOM      7  C   UNL d   1       4.238   1.184  -1.361  0.00  0.00     0.018 A 
ATOM      8  C   UNL d   1       3.097   1.272  -0.562  0.00  0.00     0.031 A 
ATOM      9  C   UNL d   1       2.665   2.524  -0.110  0.00  0.00     0.018 A 
ATOM     10  C   UNL d   1       3.353   3.691  -0.467  0.00  0.00     0.018 A 
BRANCH   8  11
ATOM     11  C   UNL d   1       2.400   0.049  -0.096  0.00  0.00     0.249 C 
ATOM     12  N   UNL d   1       1.036   0.098  -0.042  0.00  0.00    -0.366 N 
ATOM     13  H   UNL d   1       0.547  -0.728   0.280  0.00  0.00     0.159 HD
ATOM     14  H   UNL d   1       0.489   0.859  -0.420  0.00  0.00     0.159 HD
ATOM     15  O   UNL d   1       3.024  -0.952   0.250  0.00  0.00    -0.268 OA
ENDBRANCH   8  11
ENDBRANCH   1   5
BRANCH   3  16
ATOM     16  C   UNL d   1       5.324   7.283  -1.950  0.00  0.00     0.038 A 
ATOM     17  C   UNL d   1       5.510   8.437  -1.182  0.00  0.00     0.032 A 
ATOM     18  C   UNL d   1       6.032   9.604  -1.777  0.00  0.00     0.042 A 
ATOM     19  C   UNL d   1       6.394   9.618  -3.132  0.00  0.00     0.113 A 
ATOM     20  C   UNL d   1       6.161   8.467  -3.883  0.00  0.00     0.151 A 
ATOM     21  F   UNL d   1       6.432   8.412  -5.193  0.00  0.00    -0.203 F 
ATOM     22  C   UNL d   1       5.635   7.321  -3.306  0.00  0.00     0.074 A 
BRANCH  19  23
ATOM     23  O   UNL d   1       6.962  10.775  -3.596  0.00  0.00    -0.287 OA
BRANCH  23  24
ATOM     24  C   UNL d   1       7.451  10.736  -4.936  0.00  0.00     0.505 C 
ATOM     25  F   UNL d   1       6.397  10.716  -5.788  0.00  0.00    -0.184 F 
ATOM     26  F   UNL d   1       8.098  11.908  -5.168  0.00  0.00    -0.184 F 
ENDBRANCH  23  24
ENDBRANCH  19  23
ENDBRANCH   3  16
TORSDOF 5
