@<TRIPOS>MOLECULE
*****
 49 49 0 0 0
SMALL
GASTEIGER

@<TRIPOS>ATOM
      1 C           0.9993   -0.0768    0.0600 C.3     1  UNL1       -0.0653
      2 C           2.5216   -0.0861    0.0705 C.3     1  UNL1       -0.0559
      3 C           3.0689   -1.0392    1.1387 C.3     1  UNL1       -0.0519
      4 C           4.6080   -1.0565    1.1581 C.3     1  UNL1       -0.0373
      5 C           5.1635   -2.0116    2.2285 C.3     1  UNL1        0.0131
      6 N           6.6307   -2.0682    2.2907 N.am    1  UNL1       -0.2982
      7 C           7.2862   -2.8810    3.2010 C.2     1  UNL1        0.3160
      8 O           6.6904   -3.5986    4.0055 O.2     1  UNL1       -0.2513
      9 N           8.6732   -2.8340    3.1428 N.am    1  UNL1       -0.2180
     10 N           9.4572   -3.6381    4.0505 N.am    1  UNL1       -0.2297
     11 C          10.8453   -3.5835    4.0130 C.2     1  UNL1        0.2530
     12 O          11.4600   -2.8823    3.2072 O.2     1  UNL1       -0.2693
     13 C          11.5691   -4.4464    5.0205 C.2     1  UNL1        0.0022
     14 C          12.9199   -4.4695    5.1060 C.2     1  UNL1       -0.0494
     15 C          13.7362   -5.3404    5.9983 C.ar    1  UNL1       -0.0180
     16 C          14.9769   -4.9183    6.5168 C.ar    1  UNL1       -0.0126
     17 C          15.8447   -5.8225    7.1624 C.ar    1  UNL1        0.1241
     18 O          17.0941   -5.3500    7.4861 O.3     1  UNL1       -0.4950
     19 C          18.0445   -6.3286    7.9201 C.3     1  UNL1        0.0788
     20 C          15.4216   -7.1308    7.3893 C.ar    1  UNL1        0.0218
     21 C          14.1942   -7.5659    6.8938 C.ar    1  UNL1        0.1241
     22 O          13.9276   -8.8942    7.1016 O.3     1  UNL1       -0.4950
     23 C          12.7256   -9.3808    6.5163 C.3     1  UNL1        0.0788
     24 C          13.3666   -6.6752    6.2009 C.ar    1  UNL1       -0.0126
     25 H           0.6253    0.6084   -0.7078 H       1  UNL1        0.0230
     26 H           0.6034    0.2493    1.0272 H       1  UNL1        0.0230
     27 H           0.6034   -1.0746   -0.1542 H       1  UNL1        0.0230
     28 H           2.8840    0.9318    0.2555 H       1  UNL1        0.0263
     29 H           2.8840   -0.3854   -0.9199 H       1  UNL1        0.0263
     30 H           2.6875   -2.0500    0.9469 H       1  UNL1        0.0266
     31 H           2.6875   -0.7340    2.1211 H       1  UNL1        0.0266
     32 H           4.9744   -0.0392    1.3409 H       1  UNL1        0.0280
     33 H           4.9743   -1.3536    0.1681 H       1  UNL1        0.0280
     34 H           4.7951   -3.0271    2.0406 H       1  UNL1        0.0462
     35 H           4.7956   -1.7095    3.2163 H       1  UNL1        0.0462
     36 H           7.1636   -1.4962    1.6521 H       1  UNL1        0.1503
     37 H           9.1976   -2.2502    2.4983 H       1  UNL1        0.1744
     38 H           8.9193   -4.2065    4.7021 H       1  UNL1        0.1731
     39 H          10.9636   -5.0601    5.6760 H       1  UNL1        0.0670
     40 H          13.5155   -3.8533    4.4313 H       1  UNL1        0.0625
     41 H          15.2932   -3.8827    6.4055 H       1  UNL1        0.0660
     42 H          19.0268   -5.8524    8.0030 H       1  UNL1        0.0660
     43 H          18.1459   -7.1548    7.2042 H       1  UNL1        0.0660
     44 H          17.7737   -6.7055    8.9118 H       1  UNL1        0.0660
     45 H          16.0369   -7.8448    7.9282 H       1  UNL1        0.0691
     46 H          12.6547  -10.4528    6.7157 H       1  UNL1        0.0660
     47 H          12.7312   -9.2447    5.4286 H       1  UNL1        0.0660
     48 H          11.8563   -8.8943    6.9707 H       1  UNL1        0.0660
     49 H          12.4324   -7.0203    5.7763 H       1  UNL1        0.0660
@<TRIPOS>BOND
     1     1     2    1
     2     2     3    1
     3     3     4    1
     4     4     5    1
     5     5     6    1
     6     6     7   am
     7     7     8    2
     8     7     9   am
     9     9    10    1
    10    10    11   am
    11    11    12    2
    12    11    13    1
    13    13    14    2
    14    14    15    1
    15    15    16   ar
    16    16    17   ar
    17    17    18    1
    18    18    19    1
    19    17    20   ar
    20    20    21   ar
    21    21    22    1
    22    22    23    1
    23    21    24   ar
    24    15    24   ar
    25     1    25    1
    26     1    26    1
    27     1    27    1
    28     2    28    1
    29     2    29    1
    30     3    30    1
    31     3    31    1
    32     4    32    1
    33     4    33    1
    34     5    34    1
    35     5    35    1
    36     6    36    1
    37     9    37    1
    38    10    38    1
    39    13    39    1
    40    14    40    1
    41    16    41    1
    42    19    42    1
    43    19    43    1
    44    19    44    1
    45    20    45    1
    46    23    46    1
    47    23    47    1
    48    23    48    1
    49    24    49    1
