@<TRIPOS>MOLECULE
*****
 35 35 0 0 0
SMALL
GASTEIGER

@<TRIPOS>ATOM
      1 C           1.0458   -0.0243   -0.0899 C.3     1  UNL1       -0.0627
      2 C           2.5778   -0.0461   -0.0762 C.3     1  UNL1       -0.0463
      3 C           3.0575   -0.8878    1.1055 C.3     1  UNL1       -0.0627
      4 C           3.1151   -0.5925   -1.4117 C.3     1  UNL1       -0.0424
      5 C           4.6498   -0.6179   -1.5014 C.3     1  UNL1        0.0256
      6 C           5.1258   -1.1767   -2.8343 C.2     1  UNL1        0.2291
      7 O           4.3606   -1.5570   -3.7199 O.2     1  UNL1       -0.2743
      8 N           6.4995   -1.2410   -2.9810 N.am    1  UNL1       -0.2344
      9 N           7.0113   -1.7231   -4.2033 N.am    1  UNL1       -0.2342
     10 C           8.3723   -1.8541   -4.3799 C.2     1  UNL1        0.2324
     11 O           9.1902   -1.5263   -3.5212 O.2     1  UNL1       -0.2740
     12 C           8.8609   -2.4125   -5.6825 C.3     1  UNL1        0.0398
     13 C           7.9808   -2.8335   -6.8400 C.3     1  UNL1       -0.0383
     14 C           8.6926   -3.8835   -6.0279 C.3     1  UNL1       -0.0320
     15 C           7.9806   -4.8109   -5.1043 C.3     1  UNL1       -0.0617
     16 H           0.6541    0.3813    0.8496 H       1  UNL1        0.0232
     17 H           0.6381   -1.0338   -0.2144 H       1  UNL1        0.0232
     18 H           0.6657    0.5974   -0.9070 H       1  UNL1        0.0232
     19 H           2.9324    0.9842    0.0554 H       1  UNL1        0.0296
     20 H           2.7263   -1.9267    1.0001 H       1  UNL1        0.0232
     21 H           2.6667   -0.4968    2.0498 H       1  UNL1        0.0232
     22 H           4.1477   -0.8844    1.1851 H       1  UNL1        0.0232
     23 H           2.7174    0.0189   -2.2331 H       1  UNL1        0.0272
     24 H           2.7247   -1.6066   -1.5697 H       1  UNL1        0.0272
     25 H           5.0678   -1.2521   -0.7133 H       1  UNL1        0.0359
     26 H           5.0413    0.3975   -1.3706 H       1  UNL1        0.0359
     27 H           7.1760   -0.9537   -2.2753 H       1  UNL1        0.1728
     28 H           6.3227   -2.0520   -4.8753 H       1  UNL1        0.1728
     29 H           9.8182   -1.9764   -5.9642 H       1  UNL1        0.0397
     30 H           8.3571   -2.6526   -7.8459 H       1  UNL1        0.0275
     31 H           6.9058   -2.7414   -6.7827 H       1  UNL1        0.0275
     32 H           9.5097   -4.3991   -6.5250 H       1  UNL1        0.0306
     33 H           7.1626   -4.3318   -4.5622 H       1  UNL1        0.0233
     34 H           8.6907   -5.2016   -4.3676 H       1  UNL1        0.0233
     35 H           7.5635   -5.6594   -5.6544 H       1  UNL1        0.0233
@<TRIPOS>BOND
     1     1     2    1
     2     2     3    1
     3     2     4    1
     4     4     5    1
     5     5     6    1
     6     6     7    2
     7     6     8   am
     8     8     9    1
     9     9    10   am
    10    10    11    2
    11    10    12    1
    12    12    13    1
    13    13    14    1
    14    12    14    1
    15    14    15    1
    16     1    16    1
    17     1    17    1
    18     1    18    1
    19     2    19    1
    20     3    20    1
    21     3    21    1
    22     3    22    1
    23     4    23    1
    24     4    24    1
    25     5    25    1
    26     5    26    1
    27     8    27    1
    28     9    28    1
    29    12    29    1
    30    13    30    1
    31    13    31    1
    32    14    32    1
    33    15    33    1
    34    15    34    1
    35    15    35    1
