@<TRIPOS>MOLECULE
*****
 29 29 0 0 0
SMALL
GASTEIGER

@<TRIPOS>ATOM
      1 C           1.0252    0.0799    0.0660 C.3     1  UNL1       -0.0652
      2 C           2.5479    0.0966    0.0893 C.3     1  UNL1       -0.0545
      3 C           3.0812    0.9333    1.2617 C.3     1  UNL1       -0.0376
      4 C           4.6100    0.9613    1.2962 C.3     1  UNL1        0.0131
      5 N           5.1682    1.7543    2.3909 N.am    1  UNL1       -0.2991
      6 C           6.5374    1.8798    2.5102 C.2     1  UNL1        0.3050
      7 O           7.2938    1.3308    1.7048 O.2     1  UNL1       -0.2525
      8 N           6.9616    2.6418    3.5777 N.am    1  UNL1       -0.2515
      9 C           8.3232    2.8211    3.8104 C.ar    1  UNL1        0.1691
     10 C           9.3130    3.0575    2.8291 C.ar    1  UNL1        0.0222
     11 C          10.4959    3.1408    3.5151 C.ar    1  UNL1        0.1361
     12 C          11.8930    3.3746    3.0957 C.3     1  UNL1       -0.0036
     13 O          10.2405    2.9806    4.8436 O.2     1  UNL1       -0.3581
     14 N           8.8635    2.8456    5.0366 N.ar    1  UNL1       -0.0627
     15 H           0.6581   -0.5190   -0.7742 H       1  UNL1        0.0230
     16 H           0.6249    1.0931   -0.0412 H       1  UNL1        0.0230
     17 H           0.6250   -0.3519    0.9889 H       1  UNL1        0.0230
     18 H           2.9138    0.5013   -0.8621 H       1  UNL1        0.0263
     19 H           2.9142   -0.9346    0.1621 H       1  UNL1        0.0263
     20 H           2.6984    0.5220    2.2032 H       1  UNL1        0.0280
     21 H           2.6960    1.9565    1.1799 H       1  UNL1        0.0280
     22 H           4.9968    1.3710    0.3550 H       1  UNL1        0.0462
     23 H           5.0008   -0.0595    1.3902 H       1  UNL1        0.0462
     24 H           4.5493    2.2100    3.0453 H       1  UNL1        0.1502
     25 H           6.3676    2.7696    4.3818 H       1  UNL1        0.1579
     26 H           9.1682    3.1746    1.7675 H       1  UNL1        0.0687
     27 H          11.9420    3.5593    2.0159 H       1  UNL1        0.0309
     28 H          12.5243    2.5075    3.3113 H       1  UNL1        0.0309
     29 H          12.3177    4.2492    3.5979 H       1  UNL1        0.0309
@<TRIPOS>BOND
     1     1     2    1
     2     2     3    1
     3     3     4    1
     4     4     5    1
     5     5     6   am
     6     6     7    2
     7     6     8   am
     8     8     9    1
     9     9    10   ar
    10    10    11   ar
    11    11    12    1
    12    11    13   ar
    13    13    14   ar
    14     9    14   ar
    15     1    15    1
    16     1    16    1
    17     1    17    1
    18     2    18    1
    19     2    19    1
    20     3    20    1
    21     3    21    1
    22     4    22    1
    23     4    23    1
    24     5    24    1
    25     8    25    1
    26    10    26    1
    27    12    27    1
    28    12    28    1
    29    12    29    1
