REMARK  9 active torsions:
REMARK  status: ('A' for Active; 'I' for Inactive)
REMARK    1  A    between atoms: C_2  and  C_3 
REMARK       I    between atoms: C_2  and  N_15 
REMARK    2  A    between atoms: C_3  and  S_4 
REMARK    3  A    between atoms: S_4  and  C_5 
REMARK    4  A    between atoms: C_5  and  C_6 
REMARK    5  A    between atoms: N_15  and  C_16 
REMARK    6  A    between atoms: C_16  and  C_17 
REMARK    7  A    between atoms: C_17  and  N_18 
REMARK    8  A    between atoms: N_18  and  C_19 
REMARK    9  A    between atoms: C_24  and  N_25 
ROOT
ATOM      1  O   UNL d   1       0.955   0.084   0.172  0.00  0.00    -0.273 OA
ATOM      2  C   UNL d   1       2.169   0.022  -0.008  0.00  0.00     0.226 C 
ATOM      3  N   UNL d   1       2.966   0.772   0.805  0.00  0.00    -0.359 N 
ATOM      4  H   UNL d   1       2.446   1.219   1.559  0.00  0.00     0.162 HD
ENDROOT
BRANCH   2   5
ATOM      5  C   UNL d   1       2.870  -0.825  -1.073  0.00  0.00     0.177 C 
BRANCH   5   6
ATOM      6  S   UNL d   1       1.621  -1.617  -2.136  0.00  0.00    -0.152 SA
BRANCH   6   7
ATOM      7  C   UNL d   1       2.651  -2.552  -3.307  0.00  0.00     0.152 C 
BRANCH   7   8
ATOM      8  C   UNL d   1       1.757  -3.312  -4.238  0.00  0.00     0.114 A 
ATOM      9  N   UNL d   1       1.750  -4.616  -4.433  0.00  0.00    -0.233 NA
ATOM     10  C   UNL d   1       0.758  -4.849  -5.356  0.00  0.00     0.085 A 
ATOM     11  C   UNL d   1       0.334  -6.058  -5.925  0.00  0.00     0.034 A 
ATOM     12  C   UNL d   1       0.142  -3.664  -5.739  0.00  0.00     0.062 A 
ATOM     13  C   UNL d   1      -0.694  -6.029  -6.877  0.00  0.00     0.002 A 
ATOM     14  C   UNL d   1      -1.301  -4.823  -7.237  0.00  0.00     0.002 A 
ATOM     15  C   UNL d   1      -0.900  -3.607  -6.668  0.00  0.00     0.032 A 
ATOM     16  N   UNL d   1       0.796  -2.700  -5.015  0.00  0.00    -0.342 N 
ATOM     17  H   UNL d   1       0.590  -1.711  -5.020  0.00  0.00     0.167 HD
ENDBRANCH   7   8
ENDBRANCH   6   7
ENDBRANCH   5   6
ENDBRANCH   2   5
BRANCH   3  18
ATOM     18  C   UNL d   1       4.420   0.836   0.787  0.00  0.00     0.142 C 
BRANCH  18  19
ATOM     19  C   UNL d   1       4.902   1.762   1.887  0.00  0.00     0.139 C 
BRANCH  19  20
ATOM     20  N   UNL d   1       6.333   1.836   2.063  0.00  0.00    -0.386 N 
ATOM     21  H   UNL d   1       6.904   1.182   1.530  0.00  0.00     0.159 HD
BRANCH  20  22
ATOM     22  C   UNL d   1       6.955   2.342   3.208  0.00  0.00     0.061 A 
ATOM     23  C   UNL d   1       8.202   2.981   2.923  0.00  0.00     0.031 A 
ATOM     24  C   UNL d   1       9.054   3.487   3.913  0.00  0.00     0.002 A 
ATOM     25  C   UNL d   1       8.665   3.432   5.235  0.00  0.00     0.003 A 
ATOM     26  C   UNL d   1       7.445   2.855   5.554  0.00  0.00     0.038 A 
ATOM     27  C   UNL d   1       6.570   2.313   4.579  0.00  0.00     0.129 A 
BRANCH  27  28
ATOM     28  N   UNL d   1       5.345   1.719   5.195  0.00  0.00    -0.113 N 
ATOM     29  O   UNL d   1       5.167   1.930   6.413  0.00  0.00    -0.532 OA
ATOM     30  O   UNL d   1       4.567   1.026   4.563  0.00  0.00    -0.532 OA
ENDBRANCH  27  28
ENDBRANCH  20  22
ENDBRANCH  19  20
ENDBRANCH  18  19
ENDBRANCH   3  18
TORSDOF 9
