REMARK  9 active torsions:
REMARK  status: ('A' for Active; 'I' for Inactive)
REMARK    1  A    between atoms: CG_2  and  CB_4 
REMARK    2  A    between atoms: CA_5  and  CB_4 
REMARK    3  A    between atoms: CA_5  and  C_32 
REMARK    4  A    between atoms: CA_5  and  N_6 
REMARK       I    between atoms: N_6  and  C_7 
REMARK    5  A    between atoms: C_9  and  C_7 
REMARK    6  A    between atoms: C_9  and  N_20 
REMARK    7  A    between atoms: C_9  and  C_10 
REMARK    8  A    between atoms: C_10  and  C_11 
REMARK    9  A    between atoms: C_30  and  O_31 
ROOT
ATOM      1  C   UNK d   0      11.097   0.090  -2.818  0.00  0.00     0.188 C 
ENDROOT
BRANCH   1   2
ATOM      2  N   UNK d   0      10.328   1.156  -2.082  0.00  0.00    -0.290 N 
ATOM      3  C   UNK d   0       9.202   0.954  -1.302  0.00  0.00     0.260 C 
ATOM      4  O   UNK d   0       8.981   0.039  -0.508  0.00  0.00    -0.267 OA
ATOM      5  C   UNK d   0       8.150   1.973  -1.469  0.00  0.00     0.058 A 
ATOM      6  C   UNK d   0       6.890   1.792  -0.896  0.00  0.00     0.019 A 
ATOM      7  C   UNK d   0       8.438   3.062  -2.302  0.00  0.00     0.047 A 
ATOM      8  C   UNK d   0       5.887   2.709  -1.175  0.00  0.00     0.001 A 
ATOM      9  C   UNK d   0       6.153   3.794  -2.013  0.00  0.00     0.002 A 
ATOM     10  C   UNK d   0       7.423   3.973  -2.568  0.00  0.00     0.030 A 
ATOM     11  N   UNK d   0       9.730   3.307  -2.725  0.00  0.00    -0.346 N 
ATOM     12  C   UNK d   0      10.781   2.507  -2.199  0.00  0.00     0.332 C 
ATOM     13  H   UNK d   0       9.918   3.837  -3.560  0.00  0.00     0.164 HD
BRANCH  12  14
ATOM     14  O   UNK d   0      11.134   3.017  -0.933  0.00  0.00    -0.359 OA
ATOM     15  H   UNK d   0      10.329   2.953  -0.398  0.00  0.00     0.214 HD
ENDBRANCH  12  14
ENDBRANCH   1   2
BRANCH   1  16
ATOM     16  C   UNK d   0      12.624   0.151  -2.520  0.00  0.00     0.076 C 
BRANCH  16  17
ATOM     17  C   UNK d   0      12.912  -0.075  -1.066  0.00  0.00    -0.028 A 
ATOM     18  C   UNK d   0      11.981  -0.442  -0.121  0.00  0.00     0.096 A 
ATOM     19  N   UNK d   0      12.552  -0.551   1.093  0.00  0.00    -0.365 N 
ATOM     20  C   UNK d   0      13.886  -0.297   0.973  0.00  0.00     0.042 A 
ATOM     21  H   UNK d   0      12.046  -0.811   1.925  0.00  0.00     0.165 HD
ATOM     22  C   UNK d   0      14.863  -0.303   1.959  0.00  0.00     0.030 A 
ATOM     23  C   UNK d   0      14.149  -0.020  -0.374  0.00  0.00    -0.002 A 
ATOM     24  C   UNK d   0      16.160  -0.000   1.556  0.00  0.00     0.002 A 
ATOM     25  C   UNK d   0      16.465   0.257   0.218  0.00  0.00     0.001 A 
ATOM     26  C   UNK d   0      15.472   0.237  -0.765  0.00  0.00     0.014 A 
ENDBRANCH  16  17
ENDBRANCH   1  16
BRANCH   1  27
ATOM     27  C   UNK d   0      10.647  -1.400  -2.689  0.00  0.00     0.241 C 
ATOM     28  N   LEU d   1       9.358  -1.684  -3.076  0.00  0.00    -0.345 N 
ATOM     29  H   LEU d   1       8.913  -1.087  -3.754  0.00  0.00     0.163 HD
ATOM     30  O   UNK d   0      11.408  -2.285  -2.292  0.00  0.00    -0.271 OA
BRANCH  28  31
ATOM     31  CA  LEU d   1       8.914  -3.094  -3.027  0.00  0.00     0.185 C 
BRANCH  31  32
ATOM     32  C   LEU d   1       9.417  -4.045  -4.165  0.00  0.00     0.196 C 
ATOM     33  O   LEU d   1      10.079  -3.493  -5.095  0.00  0.00    -0.646 OA
ATOM     34  OXT LEU d   1       9.057  -5.256  -4.053  0.00  0.00    -0.646 OA
ENDBRANCH  31  32
BRANCH  31  35
ATOM     35  CB  LEU d   1       7.384  -3.131  -2.952  0.00  0.00     0.040 C 
BRANCH  35  36
ATOM     36  CG  LEU d   1       6.854  -4.130  -1.907  0.00  0.00    -0.020 C 
ATOM     37  CD1 LEU d   1       7.327  -3.777  -0.493  0.00  0.00     0.009 C 
ATOM     38  CD2 LEU d   1       5.326  -4.143  -1.935  0.00  0.00     0.009 C 
ENDBRANCH  35  36
ENDBRANCH  31  35
ENDBRANCH  28  31
ENDBRANCH   1  27
TORSDOF 9
