REMARK  5 active torsions:
REMARK  status: ('A' for Active; 'I' for Inactive)
REMARK       I    between atoms: C_2  and  N_3 
REMARK    1  A    between atoms: C_2  and  C_24 
REMARK    2  A    between atoms: N_3  and  N_4 
REMARK       I    between atoms: N_4  and  C_5 
REMARK    3  A    between atoms: C_5  and  C_7 
REMARK    4  A    between atoms: N_9  and  C_10 
REMARK       I    between atoms: C_24  and  N_26 
REMARK    5  A    between atoms: N_26  and  C_27 
ROOT
ATOM      1  C   UNL d   1       2.407  -2.731  -4.131  0.00  0.00     0.154 A 
ATOM      2  N   UNL d   1       2.759  -3.956  -4.577  0.00  0.00    -0.161 NA
ATOM      3  N   UNL d   1       1.984  -4.201  -5.668  0.00  0.00    -0.237 N 
ATOM      4  C   UNL d   1       1.050  -3.197  -5.861  0.00  0.00     0.045 A 
ATOM      5  C   UNL d   1       1.290  -2.247  -4.872  0.00  0.00     0.003 A 
ATOM      6  C   UNL d   1       0.547  -0.961  -4.693  0.00  0.00     0.043 C 
ATOM      7  C   UNL d   1       0.243  -0.307  -6.040  0.00  0.00     0.005 C 
ATOM      8  C   UNL d   1      -1.022  -0.874  -6.694  0.00  0.00     0.001 C 
ATOM      9  C   UNL d   1      -1.246  -2.376  -6.458  0.00  0.00     0.006 C 
ATOM     10  C   UNL d   1      -0.034  -3.209  -6.905  0.00  0.00     0.060 C 
ENDROOT
BRANCH   1  11
ATOM     11  C   UNL d   1       3.159  -2.030  -3.055  0.00  0.00     0.291 C 
ATOM     12  N   UNL d   1       2.413  -1.337  -2.099  0.00  0.00    -0.262 N 
ATOM     13  H   UNL d   1       1.395  -1.356  -2.050  0.00  0.00     0.190 HD
ATOM     14  O   UNL d   1       4.396  -2.010  -2.999  0.00  0.00    -0.264 OA
BRANCH  12  15
ATOM     15  N   UNL d   1       3.099  -0.629  -1.058  0.00  0.00    -0.259 N 
ATOM     16  C   UNL d   1       2.360   0.025  -0.080  0.00  0.00     0.327 C 
ATOM     17  O   UNL d   1       1.127   0.015  -0.092  0.00  0.00    -0.261 OA
ATOM     18  H   UNL d   1       4.112  -0.668  -1.106  0.00  0.00     0.190 HD
BRANCH  16  19
ATOM     19  C   UNL d   1       3.122   0.788   1.051  0.00  0.00     0.311 C 
ATOM     20  O   UNL d   1       2.476   1.348   1.936  0.00  0.00    -0.262 OA
ATOM     21  N   UNL d   1       4.514   0.808   1.020  0.00  0.00    -0.348 N 
ATOM     22  H   UNL d   1       5.031   0.295   0.323  0.00  0.00     0.163 HD
BRANCH  21  23
ATOM     23  C   UNL d   1       5.277   1.482   2.041  0.00  0.00     0.085 A 
ATOM     24  C   UNL d   1       6.731   1.815   1.828  0.00  0.00     0.027 A 
ATOM     25  C   UNL d   1       5.710   2.914   1.859  0.00  0.00     0.027 A 
ENDBRANCH  21  23
ENDBRANCH  16  19
ENDBRANCH  12  15
ENDBRANCH   1  11
BRANCH   3  26
ATOM     26  C   UNL d   1       2.127  -5.414  -6.405  0.00  0.00     0.058 A 
ATOM     27  C   UNL d   1       2.103  -6.634  -5.715  0.00  0.00     0.033 A 
ATOM     28  C   UNL d   1       2.167  -7.843  -6.422  0.00  0.00     0.026 A 
ATOM     29  C   UNL d   1       2.308  -7.832  -7.809  0.00  0.00     0.034 A 
ATOM     30 CL   UNL d   1       2.411  -9.320  -8.670  0.00  0.00    -0.084 Cl
ATOM     31  C   UNL d   1       2.366  -6.621  -8.500  0.00  0.00     0.026 A 
ATOM     32  C   UNL d   1       2.260  -5.407  -7.802  0.00  0.00     0.033 A 
ENDBRANCH   3  26
TORSDOF 5
