@<TRIPOS>MOLECULE
*****
 41 43 0 0 0
SMALL
GASTEIGER

@<TRIPOS>ATOM
      1 C           0.9574    0.0215    0.0444 C.3     1  UNL1        0.0789
      2 O           2.3878   -0.0179    0.0196 O.3     1  UNL1       -0.4935
      3 C           2.9707   -1.2464    0.2138 C.ar    1  UNL1        0.1419
      4 C           4.0850   -1.2747    1.0671 C.ar    1  UNL1        0.0251
      5 C           4.7894   -2.4849    1.3509 C.ar    1  UNL1        0.1459
      6 O           5.7886   -2.2351    2.2762 O.3     1  UNL1       -0.4931
      7 C           6.6431   -3.3051    2.5857 C.3     1  UNL1        0.0789
      8 C           4.3937   -3.7171    0.7307 C.ar    1  UNL1        0.0912
      9 N           4.9553   -5.0453    1.0268 N.pl3   1  UNL1       -0.2126
     10 S           4.5708   -6.5557    0.2724 S.O2    1  UNL1        0.0740
     11 O           3.2455   -6.8866    0.7449 O.2     1  UNL1       -0.1499
     12 O           4.8609   -6.4039   -1.1391 O.2     1  UNL1       -0.1499
     13 C           5.7635   -7.8873    0.9601 C.ar    1  UNL1        0.1303
     14 C           5.5706   -9.4112    1.0986 C.ar    1  UNL1        0.0100
     15 C           6.6656  -10.2469    1.6898 C.ar    1  UNL1        0.1443
     16 C           7.7879   -9.5202    1.7533 C.ar    1  UNL1        0.0772
     17 C           7.9199   -8.1922    1.9077 C.ar    1  UNL1       -0.0166
     18 C           6.9585   -7.3662    1.4314 C.ar    1  UNL1        0.0695
     19 CL          7.6583   -5.8329    1.3272 Cl      1  UNL1       -0.0815
     20 N           8.9263  -10.2072    1.3936 N.am    1  UNL1       -0.2797
     21 C           9.4778  -10.5473    2.5805 C.2     1  UNL1        0.2549
     22 O          10.2768   -9.8670    3.2436 O.2     1  UNL1       -0.2717
     23 C           8.7644  -11.8205    2.8425 C.3     1  UNL1        0.1656
     24 O           7.1470  -11.6262    2.1393 O.3     1  UNL1       -0.4808
     25 C           3.3094   -3.6367   -0.1402 C.ar    1  UNL1       -0.0139
     26 C           2.6209   -2.4406   -0.4176 C.ar    1  UNL1        0.0845
     27 CL          1.4075   -2.5977   -1.6396 Cl      1  UNL1       -0.0797
     28 H           0.6351    1.0570   -0.1086 H       1  UNL1        0.0660
     29 H           0.5680   -0.3265    1.0058 H       1  UNL1        0.0660
     30 H           0.4888   -0.5253   -0.7706 H       1  UNL1        0.0660
     31 H           4.4137   -0.3453    1.5427 H       1  UNL1        0.0692
     32 H           7.4582   -3.0486    3.2662 H       1  UNL1        0.0660
     33 H           7.1280   -3.5738    1.6508 H       1  UNL1        0.0660
     34 H           6.0763   -4.1013    3.0840 H       1  UNL1        0.0660
     35 H           5.8557   -5.0733    1.4762 H       1  UNL1        0.1738
     36 H           4.6292   -9.7698    0.6462 H       1  UNL1        0.0675
     37 H           8.9011   -7.8550    2.2035 H       1  UNL1        0.0652
     38 H           8.5395  -11.0801    0.9871 H       1  UNL1        0.1550
     39 H           8.8147  -12.1259    3.8999 H       1  UNL1        0.0795
     40 H           9.4120  -12.5044    2.2260 H       1  UNL1        0.0795
     41 H           2.9613   -4.5265   -0.6497 H       1  UNL1        0.0653
@<TRIPOS>BOND
     1     1     2    1
     2     2     3    1
     3     3     4   ar
     4     4     5   ar
     5     5     6    1
     6     6     7    1
     7     5     8   ar
     8     8     9    1
     9     9    10    1
    10    10    11    2
    11    10    12    2
    12    10    13    1
    13    13    14   ar
    14    14    15   ar
    15    15    16   ar
    16    16    17   ar
    17    17    18   ar
    18    13    18   ar
    19    18    19    1
    20    16    20    1
    21    20    21   am
    22    21    22    2
    23    21    23    1
    24    23    24    1
    25    15    24    1
    26     8    25   ar
    27    25    26   ar
    28     3    26   ar
    29    26    27    1
    30     1    28    1
    31     1    29    1
    32     1    30    1
    33     4    31    1
    34     7    32    1
    35     7    33    1
    36     7    34    1
    37     9    35    1
    38    14    36    1
    39    17    37    1
    40    20    38    1
    41    23    39    1
    42    23    40    1
    43    25    41    1
