REMARK  5 active torsions:
REMARK  status: ('A' for Active; 'I' for Inactive)
REMARK       I    between atoms: C_2  and  N_3 
REMARK    1  A    between atoms: C_2  and  C_17 
REMARK    2  A    between atoms: N_3  and  N_4 
REMARK       I    between atoms: N_4  and  C_5 
REMARK    3  A    between atoms: C_5  and  C_7 
REMARK    4  A    between atoms: C_22  and  O_23 
REMARK    5  A    between atoms: O_23  and  C_24 
ROOT
ATOM      1  O   UNL d   1       0.915   0.157  -0.080  0.00  0.00    -0.264 OA
ATOM      2  C   UNL d   1       2.131   0.061  -0.029  0.00  0.00     0.286 C 
ATOM      3  N   UNL d   1       2.790   0.140   1.210  0.00  0.00    -0.262 N 
ATOM      4  H   UNL d   1       3.805   0.175   1.306  0.00  0.00     0.190 HD
ENDROOT
BRANCH   2   5
ATOM      5  C   UNL d   1       2.949  -0.146  -1.236  0.00  0.00     0.103 A 
ATOM      6  C   UNL d   1       4.029  -0.986  -1.441  0.00  0.00     0.049 A 
ATOM      7  C   UNL d   1       4.383  -0.972  -2.821  0.00  0.00    -0.007 A 
ATOM      8  C   UNL d   1       5.351  -1.661  -3.571  0.00  0.00     0.016 A 
ATOM      9  C   UNL d   1       3.527  -0.089  -3.473  0.00  0.00     0.045 A 
ATOM     10  C   UNL d   1       5.444  -1.463  -4.952  0.00  0.00     0.038 A 
ATOM     11  C   UNL d   1       4.596  -0.578  -5.612  0.00  0.00     0.080 A 
ATOM     12  C   UNL d   1       3.622   0.137  -4.873  0.00  0.00     0.067 A 
ATOM     13  N   UNL d   1       2.668   0.401  -2.493  0.00  0.00    -0.351 N 
ATOM     14  H   UNL d   1       1.915   1.052  -2.671  0.00  0.00     0.166 HD
BRANCH  11  15
ATOM     15  O   UNL d   1       4.631  -0.351  -6.968  0.00  0.00    -0.255 OA
BRANCH  15  16
ATOM     16  C   UNL d   1       5.594  -1.089  -7.724  0.00  0.00     0.530 C 
ATOM     17  F   UNL d   1       6.854  -0.803  -7.325  0.00  0.00    -0.144 F 
ATOM     18  F   UNL d   1       5.386  -2.422  -7.620  0.00  0.00    -0.144 F 
ATOM     19  F   UNL d   1       5.493  -0.759  -9.032  0.00  0.00    -0.144 F 
ENDBRANCH  15  16
ENDBRANCH  11  15
ENDBRANCH   2   5
BRANCH   3  20
ATOM     20  N   UNL d   1       1.983   0.345   2.432  0.00  0.00    -0.267 N 
ATOM     21  C   UNL d   1       2.608   0.608   3.628  0.00  0.00     0.244 C 
ATOM     22  O   UNL d   1       3.853   0.599   3.631  0.00  0.00    -0.271 OA
ATOM     23  H   UNL d   1       0.980   0.331   2.298  0.00  0.00     0.190 HD
BRANCH  21  24
ATOM     24  C   UNL d   1       1.819   0.780   5.034  0.00  0.00     0.043 C 
ATOM     25  C   UNL d   1       0.246   1.078   5.341  0.00  0.00     0.024 C 
ATOM     26  C   UNL d   1       0.011   1.188   6.902  0.00  0.00    -0.013 C 
ATOM     27  C   UNL d   1       0.382  -0.190   7.474  0.00  0.00     0.009 C 
ATOM     28  C   UNL d   1       0.863   2.376   7.380  0.00  0.00     0.009 C 
ATOM     29  C   UNL d   1       1.874  -0.436   7.299  0.00  0.00    -0.013 C 
ATOM     30  C   UNL d   1       2.655   0.725   7.931  0.00  0.00     0.009 C 
ATOM     31  C   UNL d   1       2.178  -0.533   5.798  0.00  0.00     0.024 C 
ATOM     32  C   UNL d   1       2.338   2.047   7.220  0.00  0.00    -0.013 C 
ATOM     33  C   UNL d   1       2.631   1.930   5.725  0.00  0.00     0.024 C 
ENDBRANCH  21  24
ENDBRANCH   3  20
TORSDOF 5
