REMARK  11 active torsions:
REMARK  status: ('A' for Active; 'I' for Inactive)
REMARK    1  A    between atoms: C_2  and  C_3 
REMARK       I    between atoms: C_2  and  N_13 
REMARK    2  A    between atoms: C_3  and  N_4 
REMARK    3  A    between atoms: N_13  and  N_14 
REMARK    4  A    between atoms: N_14  and  C_15 
REMARK    5  A    between atoms: C_15  and  N_17 
REMARK       I    between atoms: N_17  and  C_18 
REMARK    6  A    between atoms: C_18  and  C_20 
REMARK    7  A    between atoms: C_24  and  O_25 
REMARK    8  A    between atoms: O_25  and  C_26 
REMARK    9  A    between atoms: C_26  and  C_27 
REMARK   10  A    between atoms: C_27  and  O_28 
REMARK   11  A    between atoms: O_28  and  C_29 
ROOT
ATOM      1  N   UNL d   1       6.436  -1.376  -2.234  0.00  0.00    -0.298 N 
ATOM      2  C   UNL d   1       7.235  -1.941  -3.257  0.00  0.00     0.258 C 
ATOM      3  O   UNL d   1       6.802  -2.509  -4.264  0.00  0.00    -0.267 OA
ATOM      4  H   UNL d   1       6.936  -0.893  -1.501  0.00  0.00     0.171 HD
ENDROOT
BRANCH   1   5
ATOM      5  C   UNL d   1       5.019  -1.331  -2.195  0.00  0.00     0.193 C 
ATOM      6  S   UNL d   1       3.999  -2.008  -3.357  0.00  0.00    -0.039 SA
BRANCH   5   7
ATOM      7  N   UNL d   1       4.469  -0.662  -1.074  0.00  0.00    -0.273 N 
ATOM      8  H   UNL d   1       5.022  -0.230  -0.345  0.00  0.00     0.189 HD
BRANCH   7   9
ATOM      9  N   UNL d   1       3.038  -0.587  -0.970  0.00  0.00    -0.266 N 
ATOM     10  C   UNL d   1       2.250   0.001  -0.002  0.00  0.00     0.254 C 
ATOM     11  O   UNL d   1       1.025  -0.075  -0.124  0.00  0.00    -0.270 OA
ATOM     12  H   UNL d   1       2.520  -1.042  -1.729  0.00  0.00     0.190 HD
BRANCH  10  13
ATOM     13  C   UNL d   1       2.925   0.695   1.161  0.00  0.00     0.233 C 
BRANCH  13  14
ATOM     14  N   UNL d   1       2.001   1.292   2.133  0.00  0.00    -0.347 N 
ATOM     15  C   UNL d   1       1.147   0.560   2.927  0.00  0.00     0.092 A 
ATOM     16  C   UNL d   1       0.464   1.428   3.746  0.00  0.00     0.031 A 
ATOM     17  C   UNL d   1       0.934   2.737   3.475  0.00  0.00    -0.008 A 
ATOM     18  C   UNL d   1       0.611   4.002   4.006  0.00  0.00     0.014 A 
ATOM     19  C   UNL d   1       1.903   2.636   2.466  0.00  0.00     0.044 A 
ATOM     20  C   UNL d   1       1.263   5.139   3.528  0.00  0.00     0.001 A 
ATOM     21  C   UNL d   1       2.223   5.026   2.527  0.00  0.00     0.002 A 
ATOM     22  C   UNL d   1       2.559   3.780   1.979  0.00  0.00     0.030 A 
ENDBRANCH  13  14
ENDBRANCH  10  13
ENDBRANCH   7   9
ENDBRANCH   5   7
ENDBRANCH   1   5
BRANCH   2  23
ATOM     23  C   UNL d   1       8.723  -1.837  -3.204  0.00  0.00     0.035 C 
ATOM     24  C   UNL d   1       9.462  -2.181  -2.072  0.00  0.00     0.017 C 
ATOM     25  C   UNL d   1      10.862  -2.128  -2.123  0.00  0.00     0.004 C 
ATOM     26  C   UNL d   1      11.517  -1.633  -3.260  0.00  0.00     0.037 C 
ATOM     27  C   UNL d   1      10.794  -1.313  -4.411  0.00  0.00     0.069 C 
ATOM     28  C   UNL d   1       9.409  -1.505  -4.397  0.00  0.00     0.053 C 
BRANCH  27  29
ATOM     29  O   UNL d   1      11.531  -0.823  -5.463  0.00  0.00    -0.349 OA
BRANCH  29  30
ATOM     30  C   UNL d   1      10.806  -0.442  -6.642  0.00  0.00     0.202 C 
BRANCH  30  31
ATOM     31  C   UNL d   1      11.740   0.201  -7.676  0.00  0.00     0.202 C 
BRANCH  31  32
ATOM     32  O   UNL d   1      10.994   0.508  -8.873  0.00  0.00    -0.349 OA
BRANCH  32  33
ATOM     33  C   UNL d   1      11.750   1.109  -9.848  0.00  0.00     0.068 C 
ATOM     34  C   UNL d   1      13.003   0.634 -10.234  0.00  0.00     0.037 C 
ATOM     35  C   UNL d   1      13.797   1.382 -11.106  0.00  0.00     0.003 C 
ATOM     36  C   UNL d   1      13.285   2.531 -11.703  0.00  0.00     0.000 C 
ATOM     37  C   UNL d   1      11.966   2.909 -11.454  0.00  0.00     0.003 C 
ATOM     38  C   UNL d   1      11.211   2.220 -10.499  0.00  0.00     0.037 C 
ENDBRANCH  32  33
ENDBRANCH  31  32
ENDBRANCH  30  31
ENDBRANCH  29  30
ENDBRANCH  27  29
ENDBRANCH   2  23
TORSDOF 11
