@<TRIPOS>MOLECULE
*****
 69 71 0 0 0
SMALL
GASTEIGER

@<TRIPOS>ATOM
      1 C           6.5920    6.2622    9.7948 C.3     1  UNL1       -0.0652
      2 C           6.2141    5.0870    8.9171 C.3     1  UNL1       -0.0545
      3 C           6.6844    5.3264    7.4876 C.3     1  UNL1       -0.0376
      4 C           6.2858    4.1618    6.6110 C.3     1  UNL1        0.0116
      5 N           6.5695    4.4083    5.2175 N.am    1  UNL1       -0.3135
      6 C           6.5375    3.3119    4.3713 C.2     1  UNL1        0.2381
      7 O           6.3143    2.2178    4.8534 O.2     1  UNL1       -0.2734
      8 C           6.9352    3.5652    2.8487 C.3     1  UNL1        0.1276
      9 C           6.0868    2.6794    1.8751 C.ar    1  UNL1       -0.0148
     10 C           6.1911    2.7290    0.4665 C.ar    1  UNL1       -0.0561
     11 C           5.7920    1.6095   -0.3179 C.ar    1  UNL1       -0.0580
     12 C           5.0692    0.5549    0.2420 C.ar    1  UNL1       -0.0202
     13 C           4.7700    0.6202    1.5849 C.ar    1  UNL1        0.1172
     14 O           4.0440   -0.3244    2.2448 O.3     1  UNL1       -0.5068
     15 C           5.2718    1.6473    2.3726 C.ar    1  UNL1       -0.0148
     16 N           8.4663    3.4615    2.8330 N.am    1  UNL1       -0.2830
     17 C           9.2213    2.4537    2.0788 C.3     1  UNL1        0.0156
     18 C           8.5323    1.3939    1.2918 C.3     1  UNL1       -0.0400
     19 C           9.2847    0.4200    0.4374 C.3     1  UNL1       -0.0639
     20 C           9.1696    4.5224    3.4779 C.2     1  UNL1        0.2574
     21 O           8.5206    5.4564    3.9769 O.2     1  UNL1       -0.2716
     22 C          10.7893    4.5498    3.5576 C.3     1  UNL1        0.1924
     23 O          11.3318    3.3768    4.1797 O.3     1  UNL1       -0.3711
     24 C          11.3776    4.7477    2.1317 C.ar    1  UNL1       -0.0027
     25 C          12.0011    3.7186    1.4079 C.ar    1  UNL1       -0.0550
     26 C          12.4939    3.9390    0.1159 C.ar    1  UNL1       -0.0614
     27 C          12.4621    5.2099   -0.4494 C.ar    1  UNL1       -0.0617
     28 C          11.8584    6.2403    0.2354 C.ar    1  UNL1       -0.0614
     29 C          11.2279    5.9616    1.4375 C.ar    1  UNL1       -0.0550
     30 C          11.2167    5.6872    4.5546 C.ar    1  UNL1       -0.0027
     31 C          11.6603    5.4142    5.8607 C.ar    1  UNL1       -0.0550
     32 C          11.8181    6.4493    6.7951 C.ar    1  UNL1       -0.0614
     33 C          11.6655    7.7836    6.4226 C.ar    1  UNL1       -0.0617
     34 C          11.2982    8.0865    5.1328 C.ar    1  UNL1       -0.0614
     35 C          11.0283    7.0495    4.2561 C.ar    1  UNL1       -0.0550
     36 H           6.2467    6.0991   10.8187 H       1  UNL1        0.0230
     37 H           6.1371    7.1838    9.4180 H       1  UNL1        0.0230
     38 H           7.6781    6.3964    9.8111 H       1  UNL1        0.0230
     39 H           5.1261    4.9497    8.9340 H       1  UNL1        0.0263
     40 H           6.6611    4.1678    9.3154 H       1  UNL1        0.0263
     41 H           7.7749    5.4485    7.4634 H       1  UNL1        0.0280
     42 H           6.2483    6.2508    7.0936 H       1  UNL1        0.0280
     43 H           5.2077    3.9756    6.6718 H       1  UNL1        0.0462
     44 H           6.7972    3.2501    6.9468 H       1  UNL1        0.0462
     45 H           7.2444    5.1364    4.9731 H       1  UNL1        0.1487
     46 H           6.6880    4.6057    2.5948 H       1  UNL1        0.0648
     47 H           6.8347    3.4712   -0.0142 H       1  UNL1        0.0621
     48 H           6.1649    1.4999   -1.3383 H       1  UNL1        0.0619
     49 H           4.7774   -0.3007   -0.3575 H       1  UNL1        0.0654
     50 H           3.6280   -0.9197    1.6065 H       1  UNL1        0.2921
     51 H           5.0374    1.5361    3.4207 H       1  UNL1        0.0657
     52 H           9.8888    1.9300    2.7471 H       1  UNL1        0.0465
     53 H           9.7540    3.0340    1.3322 H       1  UNL1        0.0465
     54 H           8.1251    1.9764    0.4921 H       1  UNL1        0.0278
     55 H           7.8204    0.8614    1.9197 H       1  UNL1        0.0278
     56 H           9.8675    0.9596   -0.3160 H       1  UNL1        0.0230
     57 H           8.5286   -0.1646   -0.1053 H       1  UNL1        0.0230
     58 H           9.9143   -0.2442    1.0196 H       1  UNL1        0.0230
     59 H          11.1464    2.5910    3.6652 H       1  UNL1        0.2116
     60 H          12.0239    2.6974    1.7798 H       1  UNL1        0.0621
     61 H          12.9102    3.1107   -0.4481 H       1  UNL1        0.0618
     62 H          12.8650    5.3955   -1.4378 H       1  UNL1        0.0618
     63 H          11.8235    7.2534   -0.1558 H       1  UNL1        0.0618
     64 H          10.5742    6.7495    1.7668 H       1  UNL1        0.0621
     65 H          11.8395    4.3923    6.1925 H       1  UNL1        0.0621
     66 H          12.0293    6.2093    7.8321 H       1  UNL1        0.0618
     67 H          11.7933    8.5888    7.1354 H       1  UNL1        0.0618
     68 H          11.1336    9.1055    4.7959 H       1  UNL1        0.0618
     69 H          10.5683    7.3964    3.3542 H       1  UNL1        0.0621
@<TRIPOS>BOND
     1     1     2    1
     2     2     3    1
     3     3     4    1
     4     4     5    1
     5     5     6   am
     6     6     7    2
     7     9    10   ar
     8    10    11   ar
     9    11    12   ar
    10    12    13   ar
    11    13    14    1
    12    13    15   ar
    13     9    15   ar
    14     8    16    1
    15    16    17    1
    16    17    18    1
    17    18    19    1
    18    16    20   am
    19    20    21    2
    20    20    22    1
    21    22    23    1
    22    22    24    1
    23    24    25   ar
    24    25    26   ar
    25    26    27   ar
    26    27    28   ar
    27    28    29   ar
    28    24    29   ar
    29    22    30    1
    30    30    31   ar
    31    31    32   ar
    32    32    33   ar
    33    33    34   ar
    34    34    35   ar
    35    30    35   ar
    36     8     9    1
    37     8     6    1
    38     1    36    1
    39     1    37    1
    40     1    38    1
    41     2    39    1
    42     2    40    1
    43     3    41    1
    44     3    42    1
    45     4    43    1
    46     4    44    1
    47     5    45    1
    48     8    46    1
    49    10    47    1
    50    11    48    1
    51    12    49    1
    52    14    50    1
    53    15    51    1
    54    17    52    1
    55    17    53    1
    56    18    54    1
    57    18    55    1
    58    19    56    1
    59    19    57    1
    60    19    58    1
    61    23    59    1
    62    25    60    1
    63    26    61    1
    64    27    62    1
    65    28    63    1
    66    29    64    1
    67    31    65    1
    68    32    66    1
    69    33    67    1
    70    34    68    1
    71    35    69    1
