REMARK  10 active torsions:
REMARK  status: ('A' for Active; 'I' for Inactive)
REMARK    1  A    between atoms: C_3  and  N_4 
REMARK       I    between atoms: N_4  and  C_5 
REMARK    2  A    between atoms: C_5  and  C_7 
REMARK    3  A    between atoms: C_7  and  C_8 
REMARK    4  A    between atoms: C_8  and  N_9 
REMARK       I    between atoms: N_9  and  C_10 
REMARK       I    between atoms: C_10  and  N_12 
REMARK    5  A    between atoms: N_12  and  N_13 
REMARK       I    between atoms: N_13  and  C_14 
REMARK    6  A    between atoms: C_16  and  C_14 
REMARK    7  A    between atoms: C_16  and  O_18 
REMARK    8  A    between atoms: O_18  and  C_19 
REMARK    9  A    between atoms: C_22  and  O_23 
REMARK   10  A    between atoms: O_23  and  C_24 
ROOT
ATOM      1  C   UNL d   1      22.383  -7.550  -2.062  0.00  0.00     0.014 C 
ATOM      2  C   UNL d   1      21.953  -6.423  -1.982  0.00  0.00    -0.098 C 
ATOM      3  C   UNL d   1      21.465  -5.044  -1.836  0.00  0.00     0.216 C 
ENDROOT
BRANCH   3   4
ATOM      4  N   UNL d   1      20.491  -4.692  -2.864  0.00  0.00    -0.351 N 
ATOM      5  C   UNL d   1      19.916  -3.432  -2.891  0.00  0.00     0.219 C 
ATOM      6  O   UNL d   1      20.210  -2.580  -2.056  0.00  0.00    -0.274 OA
ATOM      7  H   UNL d   1      20.252  -5.397  -3.548  0.00  0.00     0.163 HD
BRANCH   5   8
ATOM      8  C   UNL d   1      18.898  -3.157  -4.016  0.00  0.00     0.122 C 
BRANCH   8   9
ATOM      9  C   UNL d   1      18.327  -1.717  -3.943  0.00  0.00     0.134 C 
BRANCH   9  10
ATOM     10  N   UNL d   1      17.340  -1.353  -4.990  0.00  0.00    -0.341 N 
ATOM     11  C   UNL d   1      16.741  -0.097  -5.022  0.00  0.00     0.334 C 
ATOM     12  O   UNL d   1      17.003   0.791  -4.214  0.00  0.00    -0.246 OA
ATOM     13  N   UNL d   1      15.811   0.095  -6.041  0.00  0.00    -0.249 N 
ATOM     14  H   UNL d   1      15.570  -0.599  -6.742  0.00  0.00     0.192 HD
ATOM     15  H   UNL d   1      17.077  -2.047  -5.673  0.00  0.00     0.164 HD
BRANCH  13  16
ATOM     16  N   UNL d   1      15.076   1.342  -6.107  0.00  0.00    -0.264 N 
ATOM     17  C   UNL d   1      14.155   1.553  -7.139  0.00  0.00     0.265 C 
ATOM     18  O   UNL d   1      13.861   0.653  -7.932  0.00  0.00    -0.269 OA
ATOM     19  H   UNL d   1      15.422   2.088  -5.504  0.00  0.00     0.190 HD
BRANCH  17  20
ATOM     20  C   UNL d   1      13.634   3.025  -7.312  0.00  0.00     0.218 C 
ATOM     21  C   UNL d   1      12.114   2.974  -7.077  0.00  0.00     0.050 C 
BRANCH  20  22
ATOM     22  O   UNL d   1      13.822   3.698  -8.570  0.00  0.00    -0.337 OA
BRANCH  22  23
ATOM     23  C   UNL d   1      15.101   3.821  -9.041  0.00  0.00     0.070 A 
ATOM     24  C   UNL d   1      15.437   4.962  -9.771  0.00  0.00     0.039 A 
ATOM     25  C   UNL d   1      16.701   5.061 -10.390  0.00  0.00     0.039 A 
ATOM     26  C   UNL d   1      17.672   4.071 -10.205  0.00  0.00     0.068 A 
ATOM     27  C   UNL d   1      17.325   2.939  -9.493  0.00  0.00     0.039 A 
ATOM     28  C   UNL d   1      16.056   2.818  -8.945  0.00  0.00     0.039 A 
BRANCH  26  29
ATOM     29  O   UNL d   1      18.915   4.287 -10.737  0.00  0.00    -0.352 OA
BRANCH  29  30
ATOM     30  C   UNL d   1      19.907   3.300 -10.419  0.00  0.00     0.171 C 
ATOM     31  C   UNL d   1      21.243   3.733 -10.987  0.00  0.00     0.034 C 
ENDBRANCH  29  30
ENDBRANCH  26  29
ENDBRANCH  22  23
ENDBRANCH  20  22
ENDBRANCH  17  20
ENDBRANCH  13  16
ENDBRANCH   9  10
ENDBRANCH   8   9
ENDBRANCH   5   8
ENDBRANCH   3   4
TORSDOF 10
