REMARK  8 active torsions:
REMARK  status: ('A' for Active; 'I' for Inactive)
REMARK    1  A    between atoms: C_2  and  O_3 
REMARK    2  A    between atoms: O_3  and  C_4 
REMARK    3  A    between atoms: C_7  and  N_8 
REMARK    4  A    between atoms: N_8  and  C_9 
REMARK    5  A    between atoms: C_14  and  C_15 
REMARK       I    between atoms: C_15  and  N_17 
REMARK    6  A    between atoms: N_17  and  N_18 
REMARK       I    between atoms: N_18  and  C_19 
REMARK       I    between atoms: C_19  and  N_21 
REMARK    7  A    between atoms: N_21  and  C_22 
REMARK    8  A    between atoms: C_22  and  C_23 
ROOT
ATOM      1  C   UNL d   1       9.284  -1.677   1.162  0.00  0.00     0.143 A 
ATOM      2  N   UNL d   1      10.195  -0.951   0.448  0.00  0.00    -0.242 NA
ATOM      3  C   UNL d   1      10.942  -0.035   1.108  0.00  0.00     0.119 A 
ATOM      4  C   UNL d   1      10.847   0.176   2.470  0.00  0.00     0.020 A 
ATOM      5  C   UNL d   1       9.950  -0.605   3.205  0.00  0.00     0.022 A 
ATOM      6  C   UNL d   1       9.149  -1.563   2.565  0.00  0.00     0.079 A 
ENDROOT
BRANCH   6   7
ATOM      7  C   UNL d   1       8.176  -2.450   3.324  0.00  0.00     0.274 C 
ATOM      8  O   UNL d   1       7.543  -3.370   2.793  0.00  0.00    -0.266 OA
ATOM      9  N   UNL d   1       7.996  -2.227   4.679  0.00  0.00    -0.262 N 
ATOM     10  H   UNL d   1       8.527  -1.581   5.254  0.00  0.00     0.190 HD
BRANCH   9  11
ATOM     11  N   UNL d   1       7.086  -3.051   5.388  0.00  0.00    -0.249 N 
ATOM     12  C   UNL d   1       6.991  -2.907   6.753  0.00  0.00     0.334 C 
ATOM     13  O   UNL d   1       7.668  -2.081   7.372  0.00  0.00    -0.246 OA
ATOM     14  N   UNL d   1       6.094  -3.746   7.351  0.00  0.00    -0.341 N 
ATOM     15  H   UNL d   1       5.582  -4.397   6.777  0.00  0.00     0.164 HD
ATOM     16  H   UNL d   1       6.534  -3.698   4.826  0.00  0.00     0.192 HD
BRANCH  14  17
ATOM     17  C   UNL d   1       5.844  -3.720   8.783  0.00  0.00     0.129 C 
BRANCH  17  18
ATOM     18  C   UNL d   1       4.737  -4.644   9.212  0.00  0.00     0.003 A 
ATOM     19  C   UNL d   1       3.519  -4.763   8.331  0.00  0.00     0.007 A 
ATOM     20  C   UNL d   1       4.402  -5.964   8.557  0.00  0.00     0.007 A 
ENDBRANCH  17  18
ENDBRANCH  14  17
ENDBRANCH   9  11
ENDBRANCH   6   7
BRANCH   1  21
ATOM     21  N   UNL d   1       8.373  -2.450   0.412  0.00  0.00    -0.340 N 
ATOM     22  H   UNL d   1       8.801  -2.846  -0.415  0.00  0.00     0.167 HD
BRANCH  21  23
ATOM     23  C   UNL d   1       7.014  -2.083   0.217  0.00  0.00     0.033 A 
ATOM     24  C   UNL d   1       6.174  -2.876  -0.569  0.00  0.00     0.032 A 
ATOM     25  C   UNL d   1       4.815  -2.550  -0.711  0.00  0.00     0.039 A 
ATOM     26  C   UNL d   1       4.256  -1.485   0.001  0.00  0.00     0.068 A 
ATOM     27  C   UNL d   1       5.066  -0.735   0.839  0.00  0.00     0.039 A 
ATOM     28  C   UNL d   1       6.426  -1.021   0.924  0.00  0.00     0.032 A 
BRANCH  26  29
ATOM     29  O   UNL d   1       2.903  -1.309  -0.103  0.00  0.00    -0.352 OA
BRANCH  29  30
ATOM     30  C   UNL d   1       2.463   0.051  -0.050  0.00  0.00     0.171 C 
ATOM     31  C   UNL d   1       0.946   0.061  -0.036  0.00  0.00     0.034 C 
ENDBRANCH  29  30
ENDBRANCH  26  29
ENDBRANCH  21  23
ENDBRANCH   1  21
TORSDOF 8
