REMARK  5 active torsions:
REMARK  status: ('A' for Active; 'I' for Inactive)
REMARK    1  A    between atoms: C_2  and  C_4 
REMARK    2  A    between atoms: C_7  and  N_8 
REMARK       I    between atoms: N_8  and  C_9 
REMARK    3  A    between atoms: C_9  and  C_11 
REMARK    4  A    between atoms: C_11  and  N_13 
REMARK    5  A    between atoms: N_13  and  C_14 
ROOT
ATOM      1  N   UNL d   1       5.218  -2.287  -4.347  0.00  0.00    -0.321 N 
ATOM      2  C   UNL d   1       4.887  -2.124  -5.696  0.00  0.00     0.284 C 
ATOM      3  O   UNL d   1       3.938  -1.513  -6.167  0.00  0.00    -0.265 OA
ATOM      4  H   UNL d   1       6.015  -2.888  -4.154  0.00  0.00     0.169 HD
ENDROOT
BRANCH   2   5
ATOM      5  C   UNL d   1       5.819  -2.790  -6.720  0.00  0.00     0.169 C 
ATOM      6  S   UNL d   1       7.340  -3.246  -6.178  0.00  0.00    -0.054 SA
BRANCH   5   7
ATOM      7  N   UNL d   1       5.314  -2.793  -8.024  0.00  0.00    -0.342 N 
ATOM      8  H   UNL d   1       4.577  -2.107  -8.198  0.00  0.00     0.167 HD
BRANCH   7   9
ATOM      9  C   UNL d   1       5.919  -3.393  -9.156  0.00  0.00     0.045 A 
ATOM     10  C   UNL d   1       6.218  -2.619 -10.301  0.00  0.00    -0.035 A 
ATOM     11  C   UNL d   1       6.141  -1.114 -10.333  0.00  0.00     0.050 C 
ATOM     12  C   UNL d   1       6.777  -3.248 -11.432  0.00  0.00     0.009 A 
ATOM     13  C   UNL d   1       7.104  -4.599 -11.407  0.00  0.00     0.001 A 
ATOM     14  C   UNL d   1       6.793  -5.361 -10.287  0.00  0.00     0.009 A 
ATOM     15  C   UNL d   1       6.167  -4.784  -9.171  0.00  0.00    -0.035 A 
ATOM     16  C   UNL d   1       5.731  -5.704  -8.064  0.00  0.00     0.050 C 
ENDBRANCH   7   9
ENDBRANCH   5   7
ENDBRANCH   2   5
BRANCH   1  17
ATOM     17  C   UNL d   1       4.562  -1.693  -3.246  0.00  0.00     0.035 A 
ATOM     18  C   UNL d   1       4.986  -1.973  -1.937  0.00  0.00     0.030 A 
ATOM     19  C   UNL d   1       4.270  -1.465  -0.837  0.00  0.00     0.017 A 
ATOM     20  C   UNL d   1       3.164  -0.632  -1.046  0.00  0.00     0.009 A 
ATOM     21  C   UNL d   1       2.781  -0.306  -2.341  0.00  0.00     0.017 A 
ATOM     22  C   UNL d   1       3.482  -0.829  -3.423  0.00  0.00     0.030 A 
BRANCH  20  23
ATOM     23  C   UNL d   1       2.446  -0.034   0.104  0.00  0.00     0.155 C 
ATOM     24  C   UNL d   1       0.939  -0.007   0.058  0.00  0.00     0.096 C 
ATOM     25  O   UNL d   1       3.087   0.404   1.054  0.00  0.00    -0.293 OA
ENDBRANCH  20  23
ENDBRANCH   1  17
TORSDOF 5
