REMARK  10 active torsions:
REMARK  status: ('A' for Active; 'I' for Inactive)
REMARK    1  A    between atoms: C_2  and  O_3 
REMARK    2  A    between atoms: O_3  and  C_4 
REMARK    3  A    between atoms: C_4  and  C_6 
REMARK    4  A    between atoms: C_6  and  N_7 
REMARK    5  A    between atoms: C_12  and  C_11 
REMARK    6  A    between atoms: N_15  and  C_12 
REMARK    7  A    between atoms: C_12  and  C_13 
REMARK    8  A    between atoms: N_15  and  C_30 
REMARK    9  A    between atoms: N_15  and  C_16 
REMARK   10  A    between atoms: C_16  and  C_17 
ROOT
ATOM      1  N   UNL d   1       5.593  -1.778   3.895  0.00  0.00    -0.052 N 
ATOM      2  H   UNL d   1       5.490  -1.298   3.033  0.00  0.00     0.281 HD
ENDROOT
BRANCH   1   3
ATOM      3  C   UNL d   1       5.219  -0.862   5.068  0.00  0.00     0.189 C 
ATOM      4  C   UNL d   1       6.106  -1.262   6.226  0.00  0.00     0.033 C 
ATOM      5  C   UNL d   1       5.461  -0.693   7.462  0.00  0.00     0.002 C 
ATOM      6  C   UNL d   1       5.670   0.804   7.339  0.00  0.00     0.000 C 
ATOM      7  C   UNL d   1       4.923   1.387   6.138  0.00  0.00     0.002 C 
ATOM      8  C   UNL d   1       5.311   0.672   4.833  0.00  0.00     0.033 C 
ENDBRANCH   1   3
BRANCH   1   9
ATOM      9  C   UNL d   1       7.045  -1.847   3.638  0.00  0.00     0.280 C 
BRANCH   9  10
ATOM     10  C   UNL d   1       7.362  -2.185   2.240  0.00  0.00     0.036 A 
ATOM     11  C   UNL d   1       6.493  -2.374   1.234  0.00  0.00     0.028 A 
ATOM     12  C   UNL d   1       6.896  -2.651  -0.100  0.00  0.00    -0.008 A 
ATOM     13  C   UNL d   1       5.930  -2.752  -1.103  0.00  0.00     0.014 C 
ATOM     14  C   UNL d   1       8.255  -2.743  -0.330  0.00  0.00     0.051 A 
ATOM     15  C   UNL d   1       6.369  -2.776  -2.401  0.00  0.00     0.008 C 
ATOM     16  C   UNL d   1       7.723  -3.040  -2.643  0.00  0.00    -0.054 C 
ATOM     17  C   UNL d   1       8.142  -3.402  -4.027  0.00  0.00     0.049 C 
ATOM     18  C   UNL d   1       8.673  -3.058  -1.599  0.00  0.00    -0.028 C 
ATOM     19  C   UNL d   1      10.101  -3.446  -1.791  0.00  0.00     0.051 C 
ATOM     20  N   UNL d   1       9.168  -2.526   0.724  0.00  0.00    -0.322 N 
ATOM     21  C   UNL d   1       8.794  -2.204   1.972  0.00  0.00     0.253 A 
ATOM     22  H   UNL d   1      10.164  -2.541   0.556  0.00  0.00     0.169 HD
ATOM     23  O   UNL d   1       9.596  -1.917   2.893  0.00  0.00    -0.268 OA
ENDBRANCH   9  10
ENDBRANCH   1   9
BRANCH   1  24
ATOM     24  C   UNL d   1       4.562  -2.918   3.593  0.00  0.00     0.261 C 
BRANCH  24  25
ATOM     25  C   UNL d   1       3.508  -2.172   2.569  0.00  0.00     0.037 C 
ATOM     26  C   UNL d   1       3.543  -0.652   2.768  0.00  0.00     0.007 C 
ENDBRANCH  24  25
BRANCH  24  27
ATOM     27  C   UNL d   1       3.988  -3.410   4.893  0.00  0.00     0.179 C 
ATOM     28  N   UNL d   1       4.528  -3.240   6.078  0.00  0.00    -0.112 NA
ATOM     29  N   UNL d   1       3.628  -3.558   7.030  0.00  0.00    -0.023 NA
ATOM     30  N   UNL d   1       2.571  -4.095   6.465  0.00  0.00    -0.044 NA
ATOM     31  N   UNL d   1       2.821  -4.048   5.147  0.00  0.00    -0.223 N 
BRANCH  31  32
ATOM     32  C   UNL d   1       1.957  -4.705   4.227  0.00  0.00     0.265 C 
BRANCH  32  33
ATOM     33  C   UNL d   1       2.532  -6.048   3.926  0.00  0.00     0.278 C 
ATOM     34  O   UNL d   1       3.615  -6.457   4.330  0.00  0.00    -0.263 OA
BRANCH  33  35
ATOM     35  O   UNL d   1       1.752  -6.681   3.018  0.00  0.00    -0.321 OA
BRANCH  35  36
ATOM     36  C   UNL d   1       2.211  -8.003   2.726  0.00  0.00     0.174 C 
ATOM     37  C   UNL d   1       1.251  -8.631   1.742  0.00  0.00     0.034 C 
ENDBRANCH  35  36
ENDBRANCH  33  35
ENDBRANCH  32  33
ENDBRANCH  31  32
ENDBRANCH  24  27
ENDBRANCH   1  24
TORSDOF 10
