@<TRIPOS>MOLECULE
*****
 49 50 0 0 0
SMALL
GASTEIGER

@<TRIPOS>ATOM
      1 C           3.0951    0.6760   -1.3356 C.3     1  UNL1       -0.0462
      2 C           2.4537    0.0270   -0.1100 C.3     1  UNL1        0.0286
      3 C           0.8819    0.0098   -0.1706 C.3     1  UNL1        0.0435
      4 C           0.2594    0.0104   -1.5865 C.2     1  UNL1        0.2308
      5 O           0.9045   -0.0238   -2.6360 O.2     1  UNL1       -0.2742
      6 N          -1.1128    0.0699   -1.7031 N.am    1  UNL1       -0.2341
      7 N          -1.6168    0.0794   -3.0426 N.am    1  UNL1       -0.2304
      8 C          -2.9733    0.1483   -3.2652 C.2     1  UNL1        0.2601
      9 O          -3.7877    0.1708   -2.3399 O.2     1  UNL1       -0.2687
     10 C          -3.4557    0.2170   -4.6813 C.ar    1  UNL1        0.0382
     11 C          -2.8906   -0.5320   -5.7243 C.ar    1  UNL1       -0.0482
     12 C          -3.4818   -0.5184   -7.0015 C.ar    1  UNL1       -0.0427
     13 C          -4.6220    0.2502   -7.2420 C.ar    1  UNL1        0.0410
     14 CL         -5.3506    0.2524   -8.8021 Cl      1  UNL1       -0.0835
     15 C          -5.1809    1.0084   -6.2176 C.ar    1  UNL1       -0.0427
     16 C          -4.6002    0.9889   -4.9433 C.ar    1  UNL1       -0.0482
     17 N           2.9803    0.7053    1.0944 N.am    1  UNL1       -0.3120
     18 C           4.3441    0.7882    1.3587 C.2     1  UNL1        0.2163
     19 O           5.2051    0.2414    0.6727 O.2     1  UNL1       -0.2755
     20 C           4.7554    1.6381    2.5569 C.3     1  UNL1        0.0356
     21 C           4.5525    3.1361    2.2970 C.3     1  UNL1       -0.0419
     22 C           4.8309    3.9787    3.5432 C.3     1  UNL1       -0.0524
     23 C           4.0280    3.4825    4.7408 C.3     1  UNL1       -0.0530
     24 C           4.3244    2.0144    5.0252 C.3     1  UNL1       -0.0524
     25 C           4.0272    1.1519    3.8096 C.3     1  UNL1       -0.0419
     26 H           4.1758    0.7888   -1.2649 H       1  UNL1        0.0248
     27 H           2.6743    1.6740   -1.4912 H       1  UNL1        0.0248
     28 H           2.9691    0.0531   -2.2199 H       1  UNL1        0.0248
     29 H           2.8034   -1.0119   -0.0342 H       1  UNL1        0.0500
     30 H           0.5247   -0.8882    0.3551 H       1  UNL1        0.0377
     31 H           0.4772    0.8656    0.3851 H       1  UNL1        0.0377
     32 H          -1.7944    0.0283   -0.9483 H       1  UNL1        0.1728
     33 H          -0.9047    0.1718   -3.7704 H       1  UNL1        0.1731
     34 H          -2.0271   -1.1704   -5.5576 H       1  UNL1        0.0625
     35 H          -3.0659   -1.1273   -7.8024 H       1  UNL1        0.0632
     36 H          -6.0769    1.5989   -6.3954 H       1  UNL1        0.0632
     37 H          -5.0569    1.5698   -4.1443 H       1  UNL1        0.0625
     38 H           2.3365    1.1873    1.7063 H       1  UNL1        0.1490
     39 H           5.8336    1.4712    2.7068 H       1  UNL1        0.0394
     40 H           3.5282    3.3259    1.9567 H       1  UNL1        0.0272
     41 H           5.2127    3.4689    1.4851 H       1  UNL1        0.0272
     42 H           4.5855    5.0278    3.3425 H       1  UNL1        0.0265
     43 H           5.9010    3.9431    3.7842 H       1  UNL1        0.0265
     44 H           2.9569    3.6120    4.5403 H       1  UNL1        0.0265
     45 H           4.2648    4.0832    5.6253 H       1  UNL1        0.0265
     46 H           3.7128    1.6683    5.8651 H       1  UNL1        0.0265
     47 H           5.3751    1.8965    5.3147 H       1  UNL1        0.0265
     48 H           2.9441    1.1599    3.6505 H       1  UNL1        0.0272
     49 H           4.3024    0.1095    4.0092 H       1  UNL1        0.0272
@<TRIPOS>BOND
     1     3     4    1
     2     4     5    2
     3     4     6   am
     4     6     7    1
     5     7     8   am
     6     8     9    2
     7     8    10    1
     8    10    11   ar
     9    11    12   ar
    10    12    13   ar
    11    13    14    1
    12    13    15   ar
    13    15    16   ar
    14    10    16   ar
    15     2    17    1
    16    17    18   am
    17    18    19    2
    18    18    20    1
    19    20    21    1
    20    21    22    1
    21    22    23    1
    22    23    24    1
    23    24    25    1
    24    20    25    1
    25     2     3    1
    26     2     1    1
    27     1    26    1
    28     1    27    1
    29     1    28    1
    30     2    29    1
    31     3    30    1
    32     3    31    1
    33     6    32    1
    34     7    33    1
    35    11    34    1
    36    12    35    1
    37    15    36    1
    38    16    37    1
    39    17    38    1
    40    20    39    1
    41    21    40    1
    42    21    41    1
    43    22    42    1
    44    22    43    1
    45    23    44    1
    46    23    45    1
    47    24    46    1
    48    24    47    1
    49    25    48    1
    50    25    49    1
