REMARK  10 active torsions:
REMARK  status: ('A' for Active; 'I' for Inactive)
REMARK    1  A    between atoms: C_2  and  O_3 
REMARK    2  A    between atoms: O_3  and  C_4 
REMARK       I    between atoms: C_4  and  N_6 
REMARK    3  A    between atoms: N_6  and  C_7 
REMARK    4  A    between atoms: C_7  and  C_8 
REMARK    5  A    between atoms: C_7  and  C_23 
REMARK    6  A    between atoms: C_8  and  N_9 
REMARK       I    between atoms: N_9  and  C_10 
REMARK       I    between atoms: C_10  and  N_12 
REMARK    7  A    between atoms: N_12  and  C_13 
REMARK    8  A    between atoms: C_13  and  C_14 
REMARK    9  A    between atoms: C_18  and  N_19 
REMARK   10  A    between atoms: C_23  and  C_24 
ROOT
ATOM      1  N   UNL d   1       6.662   1.333  -1.306  0.00  0.00    -0.341 N 
ATOM      2  C   UNL d   1       7.296   0.854  -2.416  0.00  0.00     0.316 C 
ATOM      3  O   UNL d   1       7.944   1.551  -3.187  0.00  0.00    -0.247 OA
ATOM      4  N   UNL d   1       7.089  -0.480  -2.594  0.00  0.00    -0.339 N 
ATOM      5  H   UNL d   1       6.405   0.671  -0.580  0.00  0.00     0.164 HD
ATOM      6  H   UNL d   1       6.599  -0.994  -1.877  0.00  0.00     0.164 HD
ENDROOT
BRANCH   1   7
ATOM      7  C   UNL d   1       6.870   2.692  -0.885  0.00  0.00     0.149 C 
BRANCH   7   8
ATOM      8  C   UNL d   1       6.286   3.137   0.479  0.00  0.00     0.105 C 
BRANCH   8   9
ATOM      9  N   UNL d   1       4.840   2.846   0.547  0.00  0.00    -0.331 N 
ATOM     10  C   UNL d   1       4.374   1.551   0.424  0.00  0.00     0.360 C 
ATOM     11  O   UNL d   1       5.087   0.561   0.450  0.00  0.00    -0.239 OA
ATOM     12  H   UNL d   1       4.162   3.594   0.551  0.00  0.00     0.165 HD
BRANCH  10  13
ATOM     13  O   UNL d   1       3.027   1.497   0.222  0.00  0.00    -0.304 OA
BRANCH  13  14
ATOM     14  C   UNL d   1       2.584   0.148  -0.038  0.00  0.00     0.176 C 
ATOM     15  C   UNL d   1       1.071   0.092  -0.056  0.00  0.00     0.034 C 
ENDBRANCH  13  14
ENDBRANCH  10  13
ENDBRANCH   8   9
BRANCH   8  16
ATOM     16  C   UNL d   1       6.617   4.641   0.771  0.00  0.00     0.031 C 
BRANCH  16  17
ATOM     17  C   UNL d   1       8.134   5.019   0.860  0.00  0.00    -0.021 C 
ATOM     18  C   UNL d   1       8.944   4.827  -0.426  0.00  0.00     0.009 C 
ATOM     19  C   UNL d   1       8.315   6.500   1.216  0.00  0.00     0.009 C 
ENDBRANCH  16  17
ENDBRANCH   8  16
ENDBRANCH   7   8
ENDBRANCH   1   7
BRANCH   4  20
ATOM     20  C   UNL d   1       7.560  -1.136  -3.790  0.00  0.00     0.162 C 
BRANCH  20  21
ATOM     21  C   UNL d   1       7.209  -2.602  -3.815  0.00  0.00    -0.038 A 
ATOM     22  C   UNL d   1       5.924  -3.043  -3.462  0.00  0.00     0.009 A 
ATOM     23  C   UNL d   1       5.646  -4.405  -3.341  0.00  0.00     0.003 A 
ATOM     24  C   UNL d   1       6.612  -5.350  -3.685  0.00  0.00     0.036 A 
ATOM     25  C   UNL d   1       7.876  -4.920  -4.106  0.00  0.00     0.103 A 
ATOM     26  C   UNL d   1       8.177  -3.552  -4.178  0.00  0.00     0.045 A 
BRANCH  25  27
ATOM     27  N   UNL d   1       8.917  -5.910  -4.408  0.00  0.00    -0.116 N 
ATOM     28  O   UNL d   1       8.622  -7.109  -4.298  0.00  0.00    -0.532 OA
ATOM     29  O   UNL d   1      10.034  -5.489  -4.741  0.00  0.00    -0.532 OA
ENDBRANCH  25  27
ENDBRANCH  20  21
ENDBRANCH   4  20
TORSDOF 10
