REMARK  5 active torsions:
REMARK  status: ('A' for Active; 'I' for Inactive)
REMARK    1  A    between atoms: C_3  and  C_4 
REMARK       I    between atoms: C_4  and  N_6 
REMARK    2  A    between atoms: N_6  and  N_7 
REMARK       I    between atoms: N_7  and  C_8 
REMARK       I    between atoms: C_8  and  N_10 
REMARK    3  A    between atoms: N_10  and  C_11 
REMARK    4  A    between atoms: C_11  and  C_12 
REMARK    5  A    between atoms: C_18  and  N_19 
ROOT
ATOM      1  C   UNL d   1       1.087  -2.661   0.004  0.00  0.00     0.270 C 
ATOM      2  O   UNL d   1       0.346  -3.655  -0.019  0.00  0.00    -0.266 OA
ATOM      3  N   UNL d   1       2.461  -2.826   0.034  0.00  0.00    -0.262 N 
ATOM      4  H   UNL d   1       3.144  -2.104   0.135  0.00  0.00     0.190 HD
ENDROOT
BRANCH   1   5
ATOM      5  C   UNL d   1       0.447  -1.241   0.007  0.00  0.00     0.042 A 
ATOM      6  C   UNL d   1       1.102   0.029  -0.002  0.00  0.00    -0.013 A 
ATOM      7  C   UNL d   1       2.582   0.226  -0.032  0.00  0.00     0.052 C 
ATOM      8  C   UNL d   1       0.313   1.240   0.003  0.00  0.00     0.109 A 
ATOM      9  C   UNL d   1      -1.088   1.197   0.002  0.00  0.00     0.037 A 
ATOM     10  C   UNL d   1      -1.732  -0.031  -0.004  0.00  0.00     0.003 A 
ATOM     11  C   UNL d   1      -0.980  -1.221   0.003  0.00  0.00     0.018 A 
BRANCH   8  12
ATOM     12  N   UNL d   1       0.932   2.610   0.001  0.00  0.00    -0.115 N 
ATOM     13  O   UNL d   1       0.161   3.584  -0.007  0.00  0.00    -0.532 OA
ATOM     14  O   UNL d   1       2.158   2.734   0.009  0.00  0.00    -0.532 OA
ENDBRANCH   8  12
ENDBRANCH   1   5
BRANCH   3  15
ATOM     15  N   UNL d   1       3.158  -4.055  -0.012  0.00  0.00    -0.249 N 
ATOM     16  C   UNL d   1       4.545  -3.952  -0.015  0.00  0.00     0.334 C 
ATOM     17  O   UNL d   1       5.102  -2.849   0.013  0.00  0.00    -0.246 OA
ATOM     18  N   UNL d   1       5.227  -5.149  -0.054  0.00  0.00    -0.341 N 
ATOM     19  H   UNL d   1       4.719  -6.013   0.010  0.00  0.00     0.164 HD
ATOM     20  H   UNL d   1       2.622  -4.911  -0.008  0.00  0.00     0.192 HD
BRANCH  18  21
ATOM     21  C   UNL d   1       6.674  -5.147  -0.032  0.00  0.00     0.129 C 
BRANCH  21  22
ATOM     22  C   UNL d   1       7.419  -6.444   0.108  0.00  0.00     0.003 A 
ATOM     23  C   UNL d   1       7.050  -7.902   0.304  0.00  0.00     0.007 A 
ATOM     24  C   UNL d   1       7.469  -7.426  -1.054  0.00  0.00     0.007 A 
ENDBRANCH  21  22
ENDBRANCH  18  21
ENDBRANCH   3  15
TORSDOF 5
