@<TRIPOS>MOLECULE
*****
 44 46 0 0 0
SMALL
GASTEIGER

@<TRIPOS>ATOM
      1 O           1.0143   -0.1155   -0.0853 O.2     1  UNL1       -0.2749
      2 C           2.2429    0.0200   -0.0748 C.2     1  UNL1        0.2236
      3 C           2.9788    1.3617    0.0254 C.3     1  UNL1        0.0777
      4 S           1.7829    2.7181    0.1194 S.3     1  UNL1       -0.0750
      5 C           2.6944    4.1985    0.1964 C.ar    1  UNL1        0.2105
      6 N           4.0187    4.3018    0.3537 N.ar    1  UNL1       -0.1443
      7 N           4.1686    5.6527    0.3876 N.ar    1  UNL1       -0.2446
      8 C           2.9700    6.3116    0.2578 C.ar    1  UNL1        0.2317
      9 N           2.8479    7.6729    0.2720 N.pl3   1  UNL1       -0.2054
     10 N           1.6060    8.2562    0.1613 N.2     1  UNL1       -0.1875
     11 C           1.5287    9.5487    0.0917 C.2     1  UNL1        0.0542
     12 C           0.2098   10.2239   -0.0783 C.ar    1  UNL1        0.0143
     13 C          -0.8982    9.7274    0.6264 C.ar    1  UNL1       -0.0516
     14 C          -2.1589   10.3137    0.4737 C.ar    1  UNL1       -0.0597
     15 C          -2.3227   11.4019   -0.3810 C.ar    1  UNL1       -0.0419
     16 C          -1.2221   11.9139   -1.0766 C.ar    1  UNL1        0.0599
     17 CL         -1.5108   13.2805   -2.1016 Cl      1  UNL1       -0.0820
     18 C           0.0518   11.3295   -0.9316 C.ar    1  UNL1        0.0679
     19 CL          1.4012   11.9395   -1.8361 Cl      1  UNL1       -0.0814
     20 N           2.0349    5.3977    0.1339 N.ar    1  UNL1       -0.1865
     21 N           2.9715   -1.1299   -0.1680 N.am    1  UNL1       -0.3105
     22 C           4.4103   -1.2950   -0.1614 C.3     1  UNL1        0.0369
     23 C           4.8843   -2.7322   -0.2593 C.ar    1  UNL1       -0.0289
     24 C           4.0359   -3.8360   -0.0666 C.ar    1  UNL1       -0.0570
     25 C           4.5075   -5.1457   -0.1766 C.ar    1  UNL1       -0.0601
     26 C           5.8513   -5.3827   -0.4407 C.ar    1  UNL1       -0.0434
     27 C           6.7179   -4.3050   -0.5972 C.ar    1  UNL1        0.0413
     28 CL          8.3887   -4.6021   -0.8875 Cl      1  UNL1       -0.0835
     29 C           6.2446   -2.9902   -0.5153 C.ar    1  UNL1       -0.0387
     30 H           3.6038    1.4692   -0.8662 H       1  UNL1        0.0475
     31 H           3.6040    1.3417    0.9222 H       1  UNL1        0.0475
     32 H           5.0950    6.0415    0.5078 H       1  UNL1        0.1919
     33 H           3.6669    8.2723    0.3466 H       1  UNL1        0.1774
     34 H           2.4214   10.1974    0.1391 H       1  UNL1        0.0852
     35 H          -0.7838    8.8809    1.3020 H       1  UNL1        0.0624
     36 H          -3.0159    9.9182    1.0164 H       1  UNL1        0.0618
     37 H          -3.3102   11.8453   -0.5035 H       1  UNL1        0.0633
     38 H           2.3698   -1.9341   -0.2795 H       1  UNL1        0.1490
     39 H           4.7930   -0.8477    0.7620 H       1  UNL1        0.0512
     40 H           4.7977   -0.7224   -1.0114 H       1  UNL1        0.0512
     41 H           2.9850   -3.7154    0.1773 H       1  UNL1        0.0621
     42 H           3.8181   -5.9767   -0.0480 H       1  UNL1        0.0618
     43 H           6.2125   -6.4045   -0.5145 H       1  UNL1        0.0632
     44 H           6.9447   -2.1676   -0.6495 H       1  UNL1        0.0635
@<TRIPOS>BOND
     1     1     2    2
     2     2     3    1
     3     3     4    1
     4     4     5    1
     5     5     6   ar
     6     6     7   ar
     7     7     8   ar
     8     8     9    1
     9     9    10    1
    10    10    11    2
    11    11    12    1
    12    12    13   ar
    13    13    14   ar
    14    14    15   ar
    15    15    16   ar
    16    16    17    1
    17    16    18   ar
    18    12    18   ar
    19    18    19    1
    20     8    20   ar
    21     5    20   ar
    22     2    21   am
    23    21    22    1
    24    22    23    1
    25    23    24   ar
    26    24    25   ar
    27    25    26   ar
    28    26    27   ar
    29    27    28    1
    30    27    29   ar
    31    23    29   ar
    32     3    30    1
    33     3    31    1
    34     7    32    1
    35     9    33    1
    36    11    34    1
    37    13    35    1
    38    14    36    1
    39    15    37    1
    40    21    38    1
    41    22    39    1
    42    22    40    1
    43    24    41    1
    44    25    42    1
    45    26    43    1
    46    29    44    1
