@<TRIPOS>MOLECULE
*****
 58 60 0 0 0
SMALL
GASTEIGER

@<TRIPOS>ATOM
      1 C           1.7446    3.5036    1.0693 C.3     1  UNL1       -0.0647
      2 C           2.4921    2.2161    1.3701 C.3     1  UNL1       -0.0493
      3 C           2.9945    1.5007    0.1039 C.3     1  UNL1       -0.0189
      4 C           2.3744    0.0746    0.0753 C.3     1  UNL1       -0.0584
      5 C           4.5307    1.4810    0.0902 C.ar    1  UNL1       -0.0426
      6 C           5.1489    0.2263    0.1355 C.ar    1  UNL1       -0.0548
      7 C           6.5032    0.1157    0.0877 C.ar    1  UNL1       -0.0181
      8 C           7.2537    1.2497   -0.1351 C.ar    1  UNL1        0.1380
      9 O           8.4374    0.8790   -0.6983 O.3     1  UNL1       -0.5049
     10 C           6.7772    2.5673   -0.0631 C.ar    1  UNL1        0.0749
     11 N           7.6541    3.7491   -0.1552 N.am    1  UNL1       -0.2937
     12 C           9.0926    3.7821   -0.0540 C.2     1  UNL1        0.1412
     13 S          10.0867    2.5304    0.5145 S.2     1  UNL1       -0.0182
     14 N           9.6900    5.0519   -0.3071 N.am    1  UNL1       -0.2635
     15 C          11.0582    5.3007   -0.1516 C.2     1  UNL1        0.2515
     16 O          11.9676    4.4470   -0.1610 O.2     1  UNL1       -0.2697
     17 C          11.6167    6.6432   -0.0139 C.ar    1  UNL1        0.0644
     18 C          12.8092    6.8224   -0.7574 C.ar    1  UNL1        0.0295
     19 C          13.6202    7.9162   -0.5273 C.ar    1  UNL1        0.2740
     20 N          14.9643    7.9782   -1.1203 N.pl3   1  UNL1        0.0796
     21 O          15.3177    7.0226   -1.8458 O.2     1  UNL1        0.0414
     22 O          15.6674    8.9482   -0.8562 O.co2   1  UNL1       -0.5760
     23 C          13.1899    8.9058    0.3576 C.ar    1  UNL1        0.0174
     24 C          11.9921    8.7251    1.0836 C.ar    1  UNL1       -0.0335
     25 C          11.1922    7.5709    0.9508 C.ar    1  UNL1        0.0425
     26 N          10.0727    7.3948    1.7322 N.pl3   1  UNL1       -0.3249
     27 C           9.9116    6.3334    2.7482 C.3     1  UNL1        0.0357
     28 C           8.5380    5.6588    2.5763 C.3     1  UNL1        0.0634
     29 O           7.4378    6.5659    2.3980 O.3     1  UNL1       -0.3767
     30 C           7.6826    7.5509    1.3781 C.3     1  UNL1        0.0634
     31 C           8.9642    8.3455    1.6670 C.3     1  UNL1        0.0357
     32 C           5.3583    2.6633    0.0428 C.ar    1  UNL1       -0.0335
     33 H           1.4194    3.9579    2.0104 H       1  UNL1        0.0230
     34 H           0.8553    3.3132    0.4602 H       1  UNL1        0.0230
     35 H           2.3807    4.2231    0.5461 H       1  UNL1        0.0230
     36 H           1.8194    1.5629    1.9391 H       1  UNL1        0.0268
     37 H           3.3247    2.4492    2.0429 H       1  UNL1        0.0268
     38 H           2.6535    2.0028   -0.8126 H       1  UNL1        0.0346
     39 H           2.6773   -0.4995    0.9633 H       1  UNL1        0.0236
     40 H           2.6932   -0.4879   -0.8127 H       1  UNL1        0.0236
     41 H           1.2820    0.0941    0.0686 H       1  UNL1        0.0236
     42 H           4.6187   -0.7183    0.1306 H       1  UNL1        0.0622
     43 H           6.9744   -0.8595    0.0520 H       1  UNL1        0.0655
     44 H           8.9844    0.5794    0.0566 H       1  UNL1        0.2922
     45 H           7.1483    4.6299   -0.0912 H       1  UNL1        0.1539
     46 H           9.1132    5.8802   -0.2547 H       1  UNL1        0.1568
     47 H          13.1261    6.0330   -1.4452 H       1  UNL1        0.0693
     48 H          13.7884    9.7987    0.5190 H       1  UNL1        0.0686
     49 H          11.7306    9.4819    1.8223 H       1  UNL1        0.0638
     50 H           9.9349    6.7867    3.7458 H       1  UNL1        0.0486
     51 H          10.7154    5.5880    2.7072 H       1  UNL1        0.0486
     52 H           8.3143    4.9599    3.3874 H       1  UNL1        0.0575
     53 H           8.5534    5.0433    1.7053 H       1  UNL1        0.0575
     54 H           6.8201    8.2205    1.3496 H       1  UNL1        0.0575
     55 H           7.7244    7.0677    0.3950 H       1  UNL1        0.0575
     56 H           8.8662    8.8502    2.6338 H       1  UNL1        0.0486
     57 H           9.1215    9.0996    0.8892 H       1  UNL1        0.0486
     58 H           4.8541    3.6303    0.0475 H       1  UNL1        0.0640
@<TRIPOS>UNITY_ATOM_ATTR
20 1
charge 1
22 1
charge -1
@<TRIPOS>BOND
     1     1     2    1
     2     3     5    1
     3     5     6   ar
     4     6     7   ar
     5     7     8   ar
     6     8     9    1
     7     8    10   ar
     8    10    11    1
     9    11    12    1
    10    12    13    2
    11    12    14    1
    12    14    15   am
    13    15    16    2
    14    15    17    1
    15    17    18   ar
    16    18    19   ar
    17    19    20    1
    18    20    21    2
    19    20    22    1
    20    19    23   ar
    21    23    24   ar
    22    24    25   ar
    23    17    25   ar
    24    25    26    1
    25    26    27    1
    26    27    28    1
    27    28    29    1
    28    29    30    1
    29    30    31    1
    30    26    31    1
    31    10    32   ar
    32     5    32   ar
    33     3     4    1
    34     3     2    1
    35     1    33    1
    36     1    34    1
    37     1    35    1
    38     2    36    1
    39     2    37    1
    40     3    38    1
    41     4    39    1
    42     4    40    1
    43     4    41    1
    44     6    42    1
    45     7    43    1
    46     9    44    1
    47    11    45    1
    48    14    46    1
    49    18    47    1
    50    23    48    1
    51    24    49    1
    52    27    50    1
    53    27    51    1
    54    28    52    1
    55    28    53    1
    56    30    54    1
    57    30    55    1
    58    31    56    1
    59    31    57    1
    60    32    58    1
