REMARK  7 active torsions:
REMARK  status: ('A' for Active; 'I' for Inactive)
REMARK       I    between atoms: C_2  and  N_4 
REMARK    1  A    between atoms: N_4  and  C_5 
REMARK    2  A    between atoms: C_11  and  N_12 
REMARK    3  A    between atoms: N_12  and  C_13 
REMARK    4  A    between atoms: C_13  and  C_14 
REMARK    5  A    between atoms: C_18  and  C_19 
REMARK       I    between atoms: C_19  and  N_21 
REMARK    6  A    between atoms: N_21  and  C_22 
REMARK    7  A    between atoms: C_22  and  C_23 
ROOT
ATOM      1  C   UNL d   1       2.797   1.788  -4.716  0.00  0.00    -0.040 A 
ATOM      2  C   UNL d   1       3.072   3.146  -4.856  0.00  0.00     0.009 A 
ATOM      3  C   UNL d   1       2.543   3.836  -5.935  0.00  0.00     0.002 A 
ATOM      4  C   UNL d   1       1.790   3.154  -6.900  0.00  0.00     0.017 A 
ATOM      5  C   UNL d   1       1.490   1.788  -6.759  0.00  0.00     0.032 A 
ATOM      6  C   UNL d   1       1.996   1.116  -5.654  0.00  0.00     0.026 A 
ENDROOT
BRANCH   1   7
ATOM      7  C   UNL d   1       3.256   1.050  -3.508  0.00  0.00     0.158 C 
BRANCH   7   8
ATOM      8  N   UNL d   1       4.683   0.953  -3.415  0.00  0.00    -0.384 N 
ATOM      9  H   UNL d   1       5.237   1.435  -4.115  0.00  0.00     0.160 HD
BRANCH   8  10
ATOM     10  C   UNL d   1       5.322   0.345  -2.339  0.00  0.00     0.057 A 
ATOM     11  C   UNL d   1       6.735   0.378  -2.339  0.00  0.00     0.055 A 
ATOM     12  C   UNL d   1       7.474  -0.203  -1.307  0.00  0.00     0.036 A 
ATOM     13  C   UNL d   1       6.830  -0.839  -0.256  0.00  0.00     0.026 A 
ATOM     14 CL   UNL d   1       9.194  -0.139  -1.325  0.00  0.00    -0.084 Cl
ATOM     15  C   UNL d   1       5.441  -0.862  -0.216  0.00  0.00     0.033 A 
ATOM     16  C   UNL d   1       4.676  -0.275  -1.230  0.00  0.00     0.061 A 
BRANCH  16  17
ATOM     17  N   UNL d   1       3.266  -0.377  -1.089  0.00  0.00    -0.326 N 
ATOM     18  C   UNL d   1       2.592   0.010   0.057  0.00  0.00     0.218 C 
ATOM     19  C   UNL d   1       1.088   0.027  -0.094  0.00  0.00     0.117 C 
ATOM     20  O   UNL d   1       3.124   0.368   1.105  0.00  0.00    -0.274 OA
ATOM     21  H   UNL d   1       2.710  -0.518  -1.911  0.00  0.00     0.169 HD
ENDBRANCH  16  17
ENDBRANCH   8  10
ENDBRANCH   7   8
ENDBRANCH   1   7
BRANCH   5  22
ATOM     22  C   UNL d   1       0.620   1.111  -7.768  0.00  0.00     0.252 C 
ATOM     23  O   UNL d   1       0.219   1.748  -8.745  0.00  0.00    -0.268 OA
ATOM     24  N   UNL d   1       0.282  -0.214  -7.568  0.00  0.00    -0.351 N 
ATOM     25  H   UNL d   1       0.582  -0.742  -6.764  0.00  0.00     0.163 HD
BRANCH  24  26
ATOM     26  C   UNL d   1      -0.585  -0.896  -8.501  0.00  0.00     0.187 C 
BRANCH  26  27
ATOM     27  C   UNL d   1      -0.670  -2.346  -8.181  0.00  0.00     0.070 A 
ATOM     28  C   UNL d   1      -0.193  -3.447  -8.860  0.00  0.00     0.036 A 
ATOM     29  C   UNL d   1      -0.568  -4.584  -8.114  0.00  0.00     0.027 A 
ATOM     30  C   UNL d   1      -1.270  -4.113  -7.029  0.00  0.00     0.142 A 
ATOM     31  O   UNL d   1      -1.332  -2.750  -7.053  0.00  0.00    -0.325 OA
ENDBRANCH  26  27
ENDBRANCH  24  26
ENDBRANCH   5  22
TORSDOF 7
