REMARK  13 active torsions:
REMARK  status: ('A' for Active; 'I' for Inactive)
REMARK    1  A    between atoms: C_2  and  O_3 
REMARK    2  A    between atoms: O_3  and  C_4 
REMARK    3  A    between atoms: C_6  and  C_7 
REMARK    4  A    between atoms: N_8  and  N_9 
REMARK    5  A    between atoms: N_9  and  C_10 
REMARK    6  A    between atoms: C_12  and  S_13 
REMARK    7  A    between atoms: S_13  and  C_14 
REMARK    8  A    between atoms: C_14  and  C_15 
REMARK       I    between atoms: C_15  and  N_17 
REMARK    9  A    between atoms: N_17  and  C_18 
REMARK   10  A    between atoms: C_21  and  N_22 
REMARK   11  A    between atoms: N_22  and  C_23 
REMARK   12  A    between atoms: N_22  and  C_25 
REMARK   13  A    between atoms: C_33  and  O_34 
ROOT
ATOM      1  C   UNL d   1       2.554   8.803   3.579  0.00  0.00     0.739 A 
ATOM      2  N   UNL d   1       1.444   9.324   3.089  0.00  0.00    -0.034 NA
ATOM      3  C   UNL d   1       1.631  10.668   3.226  0.00  0.00     0.226 A 
ATOM      4  N   UNL d   1       2.807  11.024   3.753  0.00  0.00    -0.132 NA
ATOM      5  N   UNL d   1       3.377   9.829   3.968  0.00  0.00    -0.103 N 
ATOM      6  H   UNL d   1       4.332   9.796   4.305  0.00  0.00     0.208 HD
ENDROOT
BRANCH   3   7
ATOM      7  S   UNL d   1       0.497  11.896   2.774  0.00  0.00    -0.079 SA
BRANCH   7   8
ATOM      8  C   UNL d   1      -0.984  11.009   2.201  0.00  0.00     0.185 C 
BRANCH   8   9
ATOM      9  C   UNL d   1      -2.026  12.048   1.761  0.00  0.00     0.231 C 
ATOM     10  O   UNL d   1      -1.854  13.274   1.845  0.00  0.00    -0.272 OA
ATOM     11  N   UNL d   1      -3.221  11.531   1.288  0.00  0.00    -0.327 N 
ATOM     12  H   UNL d   1      -3.458  10.569   1.513  0.00  0.00     0.169 HD
BRANCH  11  13
ATOM     13  C   UNL d   1      -4.254  12.362   0.814  0.00  0.00     0.034 A 
ATOM     14  C   UNL d   1      -5.546  12.031   1.133  0.00  0.00     0.032 A 
ATOM     15  C   UNL d   1      -6.595  12.789   0.615  0.00  0.00     0.039 A 
ATOM     16  C   UNL d   1      -6.429  13.960  -0.142  0.00  0.00     0.134 A 
ATOM     17  C   UNL d   1      -5.105  14.275  -0.467  0.00  0.00     0.039 A 
ATOM     18  C   UNL d   1      -4.035  13.483   0.008  0.00  0.00     0.032 A 
BRANCH  16  19
ATOM     19  N   UNL d   1      -7.506  15.046  -0.196  0.00  0.00    -0.042 N 
ATOM     20  H   UNL d   1      -7.318  15.479   0.718  0.00  0.00     0.286 HD
BRANCH  19  21
ATOM     21  C   UNL d   1      -8.986  14.714  -0.088  0.00  0.00     0.237 C 
ATOM     22  C   UNL d   1      -9.367  13.516   0.733  0.00  0.00     0.035 C 
ENDBRANCH  19  21
BRANCH  19  23
ATOM     23  C   UNL d   1      -7.203  16.191  -1.180  0.00  0.00     0.237 C 
ATOM     24  C   UNL d   1      -8.418  17.066  -1.486  0.00  0.00     0.035 C 
ENDBRANCH  19  23
ENDBRANCH  16  19
ENDBRANCH  11  13
ENDBRANCH   8   9
ENDBRANCH   7   8
ENDBRANCH   3   7
BRANCH   1  25
ATOM     25  N   UNL d   1       2.946   7.503   3.662  0.00  0.00    -0.106 N 
ATOM     26  H   UNL d   1       3.511   7.184   4.447  0.00  0.00     0.208 HD
BRANCH  25  27
ATOM     27  N   UNL d   1       2.583   6.623   2.688  0.00  0.00    -0.172 NA
ATOM     28  C   UNL d   1       2.907   5.373   2.804  0.00  0.00     0.150 C 
BRANCH  28  29
ATOM     29  C   UNL d   1       2.575   4.419   1.706  0.00  0.00    -0.014 A 
ATOM     30  C   UNL d   1       2.892   3.056   1.790  0.00  0.00     0.052 A 
ATOM     31  C   UNL d   1       2.604   2.195   0.710  0.00  0.00     0.102 A 
ATOM     32  C   UNL d   1       2.025   2.726  -0.456  0.00  0.00     0.099 A 
ATOM     33  C   UNL d   1       1.658   4.064  -0.515  0.00  0.00     0.040 A 
ATOM     34  C   UNL d   1       1.946   4.908   0.554  0.00  0.00     0.016 A 
BRANCH  31  35
ATOM     35  O   UNL d   1       2.904   0.874   0.943  0.00  0.00    -0.349 OA
BRANCH  35  36
ATOM     36  C   UNL d   1       2.425  -0.095   0.002  0.00  0.00     0.171 C 
ATOM     37  C   UNL d   1       0.900  -0.211   0.016  0.00  0.00     0.034 C 
ENDBRANCH  35  36
ENDBRANCH  31  35
BRANCH  32  38
ATOM     38  O   UNL d   1       1.815   1.970  -1.577  0.00  0.00    -0.358 OA
ATOM     39  H   UNL d   1       1.118   2.362  -2.126  0.00  0.00     0.217 HD
ENDBRANCH  32  38
ENDBRANCH  28  29
ENDBRANCH  25  27
ENDBRANCH   1  25
TORSDOF 13
