@<TRIPOS>MOLECULE
*****
 56 57 0 0 0
SMALL
GASTEIGER

@<TRIPOS>ATOM
      1 C           1.0667    0.0094   -0.0590 C.3     1  UNL1       -0.0380
      2 C           2.6019    0.0606   -0.0279 C.3     1  UNL1        0.0983
      3 N           3.0816    1.4231    0.2842 N.am    1  UNL1       -0.3007
      4 C           2.7256    2.5094   -0.4929 C.2     1  UNL1        0.2375
      5 O           2.0758    2.4188   -1.5340 O.2     1  UNL1       -0.2708
      6 C           3.1865    3.8316    0.0134 C.2     1  UNL1        0.0007
      7 C           2.8616    4.9650   -0.6406 C.2     1  UNL1       -0.0497
      8 C           3.3906    6.2980   -0.2937 C.ar    1  UNL1       -0.0249
      9 C           2.6061    7.4544   -0.4220 C.ar    1  UNL1       -0.0546
     10 C           3.1767    8.7242   -0.2505 C.ar    1  UNL1       -0.0612
     11 C           4.5169    8.8483    0.1119 C.ar    1  UNL1       -0.0617
     12 C           5.2990    7.7075    0.2601 C.ar    1  UNL1       -0.0612
     13 C           4.7425    6.4456    0.0440 C.ar    1  UNL1       -0.0546
     14 C           3.1193   -1.0341    0.9652 C.2     1  UNL1        0.2491
     15 O           2.3681   -1.7962    1.5800 O.2     1  UNL1       -0.2723
     16 N           4.4932   -1.1571    1.0819 N.am    1  UNL1       -0.2329
     17 N           5.0270   -2.1693    1.9191 N.am    1  UNL1       -0.2344
     18 C           6.4035   -2.2871    2.0149 C.2     1  UNL1        0.2291
     19 O           7.1688   -1.5710    1.3723 O.2     1  UNL1       -0.2743
     20 C           6.8713   -3.3388    2.9996 C.3     1  UNL1        0.0256
     21 C           8.4059   -3.4376    3.1083 C.3     1  UNL1       -0.0419
     22 C           8.8894   -4.5214    4.0988 C.3     1  UNL1       -0.0406
     23 C           8.1387   -4.4103    5.4349 C.3     1  UNL1       -0.0502
     24 C           8.4359   -5.5415    6.4012 C.3     1  UNL1       -0.0528
     25 C           8.1963   -6.8903    5.7337 C.3     1  UNL1       -0.0530
     26 C           9.0485   -7.0321    4.4782 C.3     1  UNL1       -0.0528
     27 C           8.7500   -5.9204    3.4784 C.3     1  UNL1       -0.0502
     28 H           0.6330    0.7197   -0.7682 H       1  UNL1        0.0252
     29 H           0.6511    0.2432    0.9271 H       1  UNL1        0.0252
     30 H           0.7109   -0.9838   -0.3529 H       1  UNL1        0.0252
     31 H           2.9791   -0.1917   -1.0278 H       1  UNL1        0.0592
     32 H           3.5993    1.5653    1.1421 H       1  UNL1        0.1497
     33 H           3.8118    3.8513    0.8953 H       1  UNL1        0.0669
     34 H           2.2300    4.9333   -1.5289 H       1  UNL1        0.0625
     35 H           1.5462    7.3879   -0.6597 H       1  UNL1        0.0623
     36 H           2.5817    9.6204   -0.4143 H       1  UNL1        0.0618
     37 H           4.9543    9.8308    0.2717 H       1  UNL1        0.0618
     38 H           6.3509    7.7944    0.5173 H       1  UNL1        0.0618
     39 H           5.3882    5.5752    0.1171 H       1  UNL1        0.0623
     40 H           5.1667   -0.6447    0.5151 H       1  UNL1        0.1728
     41 H           4.3623   -2.7364    2.4482 H       1  UNL1        0.1728
     42 H           6.4500   -4.3094    2.7162 H       1  UNL1        0.0359
     43 H           6.4473   -3.0510    3.9676 H       1  UNL1        0.0359
     44 H           8.8072   -2.4674    3.4293 H       1  UNL1        0.0272
     45 H           8.8403   -3.6318    2.1187 H       1  UNL1        0.0272
     46 H           9.9611   -4.3576    4.2923 H       1  UNL1        0.0301
     47 H           7.0597   -4.4543    5.2631 H       1  UNL1        0.0268
     48 H           8.3532   -3.4415    5.9010 H       1  UNL1        0.0268
     49 H           7.7766   -5.4403    7.2711 H       1  UNL1        0.0265
     50 H           9.4682   -5.4689    6.7581 H       1  UNL1        0.0265
     51 H           7.1351   -6.9887    5.4678 H       1  UNL1        0.0265
     52 H           8.4274   -7.6950    6.4378 H       1  UNL1        0.0265
     53 H           8.8558   -8.0025    4.0079 H       1  UNL1        0.0265
     54 H          10.1099   -7.0071    4.7513 H       1  UNL1        0.0265
     55 H           7.7342   -6.0623    3.0950 H       1  UNL1        0.0268
     56 H           9.4247   -6.0144    2.6179 H       1  UNL1        0.0268
@<TRIPOS>BOND
     1     1     2    1
     2     2     3    1
     3     3     4   am
     4     4     5    2
     5     4     6    1
     6     6     7    2
     7     7     8    1
     8     8     9   ar
     9     9    10   ar
    10    10    11   ar
    11    11    12   ar
    12    12    13   ar
    13     8    13   ar
    14     2    14    1
    15    14    15    2
    16    14    16   am
    17    16    17    1
    18    17    18   am
    19    18    19    2
    20    18    20    1
    21    20    21    1
    22    21    22    1
    23    22    23    1
    24    23    24    1
    25    24    25    1
    26    25    26    1
    27    26    27    1
    28    22    27    1
    29     1    28    1
    30     1    29    1
    31     1    30    1
    32     2    31    1
    33     3    32    1
    34     6    33    1
    35     7    34    1
    36     9    35    1
    37    10    36    1
    38    11    37    1
    39    12    38    1
    40    13    39    1
    41    16    40    1
    42    17    41    1
    43    20    42    1
    44    20    43    1
    45    21    44    1
    46    21    45    1
    47    22    46    1
    48    23    47    1
    49    23    48    1
    50    24    49    1
    51    24    50    1
    52    25    51    1
    53    25    52    1
    54    26    53    1
    55    26    54    1
    56    27    55    1
    57    27    56    1
