@<TRIPOS>MOLECULE
*****
 62 65 0 0 0
SMALL
GASTEIGER

@<TRIPOS>ATOM
      1 C           0.9476    0.1728    0.0924 C.3     1  UNL1       -0.0307
      2 C           2.4593    0.2754    0.2052 C.3     1  UNL1        0.0868
      3 O           2.9431    0.9821   -0.9368 O.3     1  UNL1       -0.4916
      4 C           4.3006    1.0092   -1.1316 C.ar    1  UNL1        0.1295
      5 C           4.8210    2.2935   -1.3967 C.ar    1  UNL1       -0.0193
      6 C           6.1582    2.4624   -1.7636 C.ar    1  UNL1       -0.0583
      7 C           7.0046    1.3586   -1.7940 C.ar    1  UNL1       -0.0609
      8 C           6.5059    0.0802   -1.5140 C.ar    1  UNL1       -0.0491
      9 C           5.1465   -0.1176   -1.2289 C.ar    1  UNL1        0.0447
     10 C           4.7028   -1.5422   -0.9928 C.2     1  UNL1        0.1247
     11 N           5.2370   -2.1545    0.0184 N.2     1  UNL1       -0.2393
     12 C           4.6454   -3.3215    0.4507 C.2     1  UNL1        0.1264
     13 C           5.3682   -4.0434    1.5671 C.2     1  UNL1        0.2631
     14 O           5.8812   -3.3782    2.4675 O.2     1  UNL1       -0.2685
     15 N           5.3854   -5.4146    1.5426 N.am    1  UNL1       -0.2970
     16 C           5.9002   -6.2298    2.6763 C.3     1  UNL1        0.1214
     17 C           4.9156   -6.2192    3.8713 C.3     1  UNL1       -0.0151
     18 C           4.6146   -4.8213    4.4262 C.3     1  UNL1       -0.0044
     19 S           3.4879   -4.8406    5.8500 S.3     1  UNL1       -0.1641
     20 C           3.3345   -3.0439    6.1178 C.3     1  UNL1       -0.0181
     21 C           6.1132   -7.6831    2.1868 C.2     1  UNL1        0.3274
     22 O           5.8440   -8.0428    1.0190 O.2     1  UNL1       -0.2488
     23 O           6.6214   -8.5023    3.1405 O.3     1  UNL1       -0.4666
     24 C           6.8219   -9.8759    2.7586 C.3     1  UNL1        0.0817
     25 C           3.3934   -3.6912    0.0852 C.2     1  UNL1       -0.0206
     26 C           2.5896   -2.8185   -0.8577 C.2     1  UNL1        0.0416
     27 C           1.6023   -3.2624   -1.6713 C.ar    1  UNL1        0.0556
     28 C           0.9117   -2.5485   -2.8633 C.ar    1  UNL1       -0.0478
     29 C           0.4691   -3.3391   -3.8751 C.ar    1  UNL1       -0.0608
     30 C           0.5553   -4.7625   -3.6546 C.ar    1  UNL1       -0.0555
     31 C           1.6632   -5.2111   -3.0097 C.ar    1  UNL1        0.0099
     32 C           2.5551   -4.0874   -2.4848 C.ar    1  UNL1        0.2094
     33 N           3.5783   -3.2999   -2.7535 N.2     1  UNL1       -0.2284
     34 C           3.5146   -2.0818   -1.7767 C.3     1  UNL1        0.2224
     35 H           0.5529   -0.5253    0.8368 H       1  UNL1        0.0262
     36 H           0.6441   -0.1818   -0.9004 H       1  UNL1        0.0262
     37 H           0.4868    1.1525    0.2355 H       1  UNL1        0.0262
     38 H           2.8273   -0.7363    0.2309 H       1  UNL1        0.0694
     39 H           2.7793    0.7378    1.1410 H       1  UNL1        0.0694
     40 H           4.1902    3.1803   -1.3171 H       1  UNL1        0.0654
     41 H           6.5421    3.4505   -2.0206 H       1  UNL1        0.0619
     42 H           8.0593    1.4966   -2.0289 H       1  UNL1        0.0618
     43 H           7.1929   -0.7618   -1.5308 H       1  UNL1        0.0625
     44 H           5.1986   -5.9168    0.6816 H       1  UNL1        0.1499
     45 H           6.8789   -5.8233    2.9606 H       1  UNL1        0.0615
     46 H           5.3270   -6.8433    4.6742 H       1  UNL1        0.0296
     47 H           3.9763   -6.6880    3.5513 H       1  UNL1        0.0296
     48 H           4.0744   -4.2424    3.6762 H       1  UNL1        0.0377
     49 H           5.5454   -4.3170    4.7067 H       1  UNL1        0.0377
     50 H           2.6276   -2.8850    6.9362 H       1  UNL1        0.0340
     51 H           2.9477   -2.5242    5.2341 H       1  UNL1        0.0340
     52 H           4.2949   -2.6055    6.4043 H       1  UNL1        0.0340
     53 H           7.2169  -10.4265    3.6198 H       1  UNL1        0.0661
     54 H           7.5518   -9.9505    1.9458 H       1  UNL1        0.0661
     55 H           5.8742  -10.3417    2.4675 H       1  UNL1        0.0661
     56 H           3.0044   -4.6645    0.3838 H       1  UNL1        0.0646
     57 H           1.1785   -1.5327   -3.1616 H       1  UNL1        0.0626
     58 H           0.2327   -3.0110   -4.8871 H       1  UNL1        0.0618
     59 H          -0.3756   -5.3261   -3.7932 H       1  UNL1        0.0620
     60 H           1.4313   -6.0806   -2.3726 H       1  UNL1        0.0683
     61 H           3.8871   -3.0889   -3.7020 H       1  UNL1        0.4466
     62 H           3.0121   -1.2405   -2.2572 H       1  UNL1        0.1189
@<TRIPOS>UNITY_ATOM_ATTR
33 1
charge 1
@<TRIPOS>BOND
     1     1     2    1
     2     2     3    1
     3     3     4    1
     4     4     5   ar
     5     5     6   ar
     6     6     7   ar
     7     7     8   ar
     8     8     9   ar
     9     4     9   ar
    10    10    11    2
    11    11    12    1
    12    13    14    2
    13    13    15   am
    14    15    16    1
    15    16    17    1
    16    17    18    1
    17    18    19    1
    18    19    20    1
    19    16    21    1
    20    21    22    2
    21    21    23    1
    22    23    24    1
    23    12    25    2
    24    25    26    1
    25    26    27    2
    26    27    28   ar
    27    28    29   ar
    28    29    30   ar
    29    30    31   ar
    30    31    32   ar
    31    27    32   ar
    32    32    33    2
    33    33    34    1
    34    10    34    1
    35    26    34    1
    36     9    10    1
    37    12    13    1
    38     1    35    1
    39     1    36    1
    40     1    37    1
    41     2    38    1
    42     2    39    1
    43     5    40    1
    44     6    41    1
    45     7    42    1
    46     8    43    1
    47    15    44    1
    48    16    45    1
    49    17    46    1
    50    17    47    1
    51    18    48    1
    52    18    49    1
    53    20    50    1
    54    20    51    1
    55    20    52    1
    56    24    53    1
    57    24    54    1
    58    24    55    1
    59    25    56    1
    60    28    57    1
    61    29    58    1
    62    30    59    1
    63    31    60    1
    64    33    61    1
    65    34    62    1
