REMARK  4 active torsions:
REMARK  status: ('A' for Active; 'I' for Inactive)
REMARK    1  A    between atoms: O_2  and  C_3 
REMARK    2  A    between atoms: C_9  and  C_10 
REMARK       I    between atoms: C_10  and  N_11 
REMARK    3  A    between atoms: C_13  and  N_14 
REMARK    4  A    between atoms: N_15  and  C_16 
ROOT
ATOM      1  C   UNL d   1       3.016   1.195   0.381  0.00  0.00     0.102 C 
ATOM      2  C   UNL d   1       2.610   1.919   1.504  0.00  0.00     0.040 C 
ATOM      3  C   UNL d   1       3.383   2.978   1.986  0.00  0.00     0.004 C 
ATOM      4  C   UNL d   1       4.633   3.226   1.443  0.00  0.00     0.014 C 
ATOM      5  C   UNL d   1       4.991   2.594   0.259  0.00  0.00     0.002 A 
ATOM      6  C   UNL d   1       6.172   3.038  -0.443  0.00  0.00     0.035 A 
ATOM      7  C   UNL d   1       6.450   2.550  -1.654  0.00  0.00     0.085 A 
ATOM      8  C   UNL d   1       5.563   1.516  -2.234  0.00  0.00     0.178 A 
ATOM      9  O   UNL d   1       4.481   1.029  -1.536  0.00  0.00    -0.288 OA
ATOM     10  C   UNL d   1       4.175   1.600  -0.281  0.00  0.00     0.121 A 
ENDROOT
BRANCH   8  11
ATOM     11  N   UNL d   1       5.741   0.994  -3.398  0.00  0.00    -0.279 N 
ATOM     12  N   UNL d   1       4.992   0.126  -3.964  0.00  0.00    -0.299 N 
ATOM     13  H   UNL d   1       4.085  -0.157  -3.569  0.00  0.00     0.186 HD
ATOM     14  H   UNL d   1       6.574   1.356  -3.912  0.00  0.00     0.189 HD
BRANCH  12  15
ATOM     15  C   UNL d   1       5.295  -0.449  -5.210  0.00  0.00     0.072 A 
ATOM     16  C   UNL d   1       4.394  -0.790  -6.143  0.00  0.00     0.169 A 
ATOM     17  N   UNL d   1       4.692  -1.391  -7.332  0.00  0.00    -0.157 NA
ATOM     18  N   UNL d   1       5.840  -1.758  -7.664  0.00  0.00    -0.110 NA
ATOM     19  C   UNL d   1       6.925  -1.569  -6.837  0.00  0.00     0.286 A 
ATOM     20  O   UNL d   1       8.057  -1.958  -7.131  0.00  0.00    -0.268 OA
ATOM     21  C   UNL d   1       6.725  -0.820  -5.534  0.00  0.00     0.230 A 
ATOM     22 CL   UNL d   1       7.737   0.643  -5.663  0.00  0.00    -0.108 Cl
ENDBRANCH  12  15
ENDBRANCH   8  11
BRANCH   7  23
ATOM     23  C   UNL d   1       7.620   3.047  -2.415  0.00  0.00     0.253 C 
ATOM     24  N   UNL d   1       8.432   3.988  -1.898  0.00  0.00    -0.366 N 
ATOM     25  H   UNL d   1       8.328   4.442  -1.002  0.00  0.00     0.159 HD
ATOM     26  H   UNL d   1       9.228   4.285  -2.454  0.00  0.00     0.159 HD
ATOM     27  O   UNL d   1       7.817   2.575  -3.535  0.00  0.00    -0.268 OA
ENDBRANCH   7  23
BRANCH   1  28
ATOM     28  O   UNL d   1       2.387   0.078  -0.091  0.00  0.00    -0.353 OA
ATOM     29  C   UNL d   1       0.968   0.079   0.038  0.00  0.00     0.210 C 
ENDBRANCH   1  28
TORSDOF 4
