REMARK  7 active torsions:
REMARK  status: ('A' for Active; 'I' for Inactive)
REMARK    1  A    between atoms: C_5  and  C_6 
REMARK       I    between atoms: C_6  and  N_8 
REMARK    2  A    between atoms: N_8  and  C_9 
REMARK    3  A    between atoms: C_16  and  N_17 
REMARK    4  A    between atoms: N_17  and  C_18 
REMARK    5  A    between atoms: C_18  and  C_19 
REMARK       I    between atoms: C_19  and  N_21 
REMARK    6  A    between atoms: N_21  and  C_22 
REMARK    7  A    between atoms: C_25  and  C_26 
ROOT
ATOM      1  C   UNL d   1       6.258   9.635  -0.062  0.00  0.00     0.162 C 
ATOM      2  C   UNL d   1       5.549  10.510   0.890  0.00  0.00     0.063 C 
ATOM      3  N   UNL d   1       4.950  11.146   1.665  0.00  0.00    -0.197 NA
ENDROOT
BRANCH   1   4
ATOM      4  C   UNL d   1       5.806   8.185  -0.027  0.00  0.00    -0.045 A 
ATOM      5  C   UNL d   1       4.771   7.784   0.825  0.00  0.00     0.010 A 
ATOM      6  C   UNL d   1       4.320   6.476   0.838  0.00  0.00     0.030 A 
ATOM      7  C   UNL d   1       4.883   5.519   0.004  0.00  0.00     0.034 A 
ATOM      8  C   UNL d   1       5.959   5.870  -0.815  0.00  0.00     0.030 A 
ATOM      9  C   UNL d   1       6.399   7.209  -0.850  0.00  0.00     0.010 A 
BRANCH   7  10
ATOM     10  N   UNL d   1       4.326   4.226  -0.001  0.00  0.00    -0.326 N 
ATOM     11  C   UNL d   1       2.931   4.059   0.011  0.00  0.00     0.239 C 
ATOM     12  O   UNL d   1       2.101   4.968  -0.011  0.00  0.00    -0.271 OA
ATOM     13  H   UNL d   1       4.941   3.444  -0.196  0.00  0.00     0.169 HD
BRANCH  11  14
ATOM     14  C   UNL d   1       2.484   2.615   0.012  0.00  0.00     0.223 C 
BRANCH  14  15
ATOM     15  N   UNL d   1       1.028   2.449   0.003  0.00  0.00    -0.381 N 
ATOM     16  H   UNL d   1       0.502   3.322  -0.004  0.00  0.00     0.160 HD
BRANCH  15  17
ATOM     17  C   UNL d   1       0.355   1.233   0.004  0.00  0.00     0.035 A 
ATOM     18  C   UNL d   1      -1.065   1.247   0.003  0.00  0.00     0.046 A 
ATOM     19  C   UNL d   1      -1.827   0.064  -0.007  0.00  0.00     0.034 A 
ATOM     20  C   UNL d   1      -1.151  -1.164   0.003  0.00  0.00     0.018 A 
ATOM     21  C   UNL d   1       0.239  -1.206   0.007  0.00  0.00     0.010 A 
ATOM     22  C   UNL d   1       0.998  -0.027   0.003  0.00  0.00    -0.036 A 
ATOM     23  C   UNL d   1       2.489  -0.203  -0.015  0.00  0.00     0.050 C 
BRANCH  19  24
ATOM     24  C   UNL d   1      -3.330   0.013  -0.032  0.00  0.00     0.256 C 
ATOM     25  O   UNL d   1      -3.863  -1.097  -0.034  0.00  0.00    -0.267 OA
ATOM     26  N   UNL d   1      -4.045   1.204  -0.112  0.00  0.00    -0.323 N 
ATOM     27  H   UNL d   1      -3.571   2.081  -0.265  0.00  0.00     0.169 HD
BRANCH  26  28
ATOM     28  C   UNL d   1      -5.460   1.255  -0.093  0.00  0.00     0.035 A 
ATOM     29  C   UNL d   1      -6.144   2.201  -0.865  0.00  0.00     0.029 A 
ATOM     30  C   UNL d   1      -7.538   2.316  -0.762  0.00  0.00     0.002 A 
ATOM     31  C   UNL d   1      -8.256   1.451   0.064  0.00  0.00     0.000 A 
ATOM     32  C   UNL d   1      -7.578   0.511   0.832  0.00  0.00     0.002 A 
ATOM     33  C   UNL d   1      -6.189   0.414   0.751  0.00  0.00     0.029 A 
ENDBRANCH  26  28
ENDBRANCH  19  24
ENDBRANCH  15  17
ENDBRANCH  14  15
ENDBRANCH  11  14
ENDBRANCH   7  10
ENDBRANCH   1   4
TORSDOF 7
