REMARK  5 active torsions:
REMARK  status: ('A' for Active; 'I' for Inactive)
REMARK       I    between atoms: C_2  and  N_3 
REMARK    1  A    between atoms: C_2  and  C_7 
REMARK    2  A    between atoms: N_3  and  C_4 
REMARK    3  A    between atoms: C_11  and  N_12 
REMARK       I    between atoms: N_12  and  C_13 
REMARK    4  A    between atoms: C_13  and  C_15 
REMARK    5  A    between atoms: C_21  and  O_22 
ROOT
ATOM      1  C   UNL d   1       3.120   1.117   0.158  0.00  0.00     0.034 A 
ATOM      2  C   UNL d   1       4.252   1.521  -0.532  0.00  0.00     0.017 A 
ATOM      3  C   UNL d   1       4.955   2.648  -0.082  0.00  0.00     0.003 A 
ATOM      4  C   UNL d   1       4.493   3.405   1.013  0.00  0.00     0.029 A 
ATOM      5  C   UNL d   1       3.330   3.025   1.688  0.00  0.00     0.035 A 
ATOM      6  C   UNL d   1       2.648   1.899   1.220  0.00  0.00     0.046 A 
ENDROOT
BRANCH   5   7
ATOM      7  N   UNL d   1       2.888   3.743   2.833  0.00  0.00    -0.323 N 
ATOM      8  C   UNL d   1       1.800   3.386   3.615  0.00  0.00     0.259 C 
ATOM      9  O   UNL d   1       1.063   2.409   3.445  0.00  0.00    -0.267 OA
ATOM     10  H   UNL d   1       3.396   4.581   3.102  0.00  0.00     0.169 HD
BRANCH   8  11
ATOM     11  C   UNL d   1       1.424   4.220   4.774  0.00  0.00     0.067 A 
ATOM     12  C   UNL d   1       0.781   3.557   5.837  0.00  0.00     0.043 A 
ATOM     13  C   UNL d   1       0.080   4.286   6.787  0.00  0.00     0.035 A 
ATOM     14 CL   UNL d   1      -0.904   3.471   7.940  0.00  0.00    -0.084 Cl
ATOM     15  C   UNL d   1       0.094   5.677   6.746  0.00  0.00     0.026 A 
ATOM     16  C   UNL d   1       0.778   6.343   5.721  0.00  0.00     0.039 A 
ATOM     17  C   UNL d   1       1.446   5.614   4.734  0.00  0.00     0.081 A 
BRANCH  17  18
ATOM     18  O   UNL d   1       2.091   6.258   3.717  0.00  0.00    -0.360 OA
ATOM     19  H   UNL d   1       1.957   7.217   3.804  0.00  0.00     0.217 HD
ENDBRANCH  17  18
ENDBRANCH   8  11
ENDBRANCH   5   7
BRANCH   1  20
ATOM     20  C   UNL d   1       2.321  -0.086  -0.175  0.00  0.00     0.252 C 
ATOM     21  O   UNL d   1       1.095   0.020  -0.137  0.00  0.00    -0.268 OA
ATOM     22  N   UNL d   1       2.969  -1.294  -0.451  0.00  0.00    -0.352 N 
ATOM     23  H   UNL d   1       3.977  -1.364  -0.367  0.00  0.00     0.163 HD
BRANCH  22  24
ATOM     24  C   UNL d   1       2.150  -2.464  -0.665  0.00  0.00     0.084 A 
ATOM     25  C   UNL d   1       2.450  -3.570  -1.633  0.00  0.00     0.027 A 
ATOM     26  C   UNL d   1       2.419  -3.852  -0.156  0.00  0.00     0.027 A 
ENDBRANCH  22  24
ENDBRANCH   1  20
TORSDOF 5
