@<TRIPOS>MOLECULE
*****
 50 51 0 0 0
SMALL
GASTEIGER

@<TRIPOS>ATOM
      1 O           3.4318    5.2445   -0.3818 O.2     1  UNL1       -0.2529
      2 C           3.3526    4.4470   -1.3169 C.2     1  UNL1        0.2997
      3 N           2.3214    4.4360   -2.2074 N.am    1  UNL1       -0.2994
      4 C           1.1765    5.3166   -2.1056 C.3     1  UNL1        0.0133
      5 C           0.1705    5.0586   -3.2274 C.3     1  UNL1       -0.0334
      6 C          -1.0319    5.9888   -3.1012 C.3     1  UNL1       -0.0263
      7 C          -2.0618    5.7569   -4.1768 C.ar    1  UNL1       -0.0473
      8 C          -2.2840    6.7170   -5.1713 C.ar    1  UNL1       -0.0586
      9 C          -3.3486    6.5713   -6.0611 C.ar    1  UNL1       -0.0615
     10 C          -4.1391    5.4237   -6.0241 C.ar    1  UNL1       -0.0617
     11 C          -3.8875    4.4348   -5.0758 C.ar    1  UNL1       -0.0615
     12 C          -2.8586    4.6042   -4.1505 C.ar    1  UNL1       -0.0586
     13 N           4.3262    3.5005   -1.4899 N.am    1  UNL1       -0.2968
     14 C           4.4650    2.6110   -2.6360 C.3     1  UNL1        0.0423
     15 C           5.1125    1.2389   -2.3937 C.3     1  UNL1        0.1046
     16 O           4.6288    0.6176   -1.2028 O.3     1  UNL1       -0.3869
     17 C           6.6415    1.2386   -2.4240 C.3     1  UNL1        0.1169
     18 O           7.0896    1.8654   -3.6276 O.3     1  UNL1       -0.4893
     19 C           8.4375    1.8487   -3.8490 C.ar    1  UNL1        0.1210
     20 C           8.9672    2.9819   -4.4749 C.ar    1  UNL1       -0.0135
     21 C          10.3124    3.0199   -4.8550 C.ar    1  UNL1        0.0190
     22 C          11.1433    1.9378   -4.5433 C.ar    1  UNL1        0.2734
     23 N          12.5850    2.0214   -4.8105 N.pl3   1  UNL1        0.0796
     24 O          13.0158    3.0591   -5.3327 O.2     1  UNL1        0.0414
     25 O          13.2896    1.0592   -4.4726 O.co2   1  UNL1       -0.5760
     26 C          10.6170    0.7951   -3.9285 C.ar    1  UNL1        0.0190
     27 C           9.2603    0.7516   -3.5919 C.ar    1  UNL1       -0.0135
     28 H           2.3413    3.8142   -2.9950 H       1  UNL1        0.1502
     29 H           1.5344    6.3510   -2.1369 H       1  UNL1        0.0462
     30 H           0.7117    5.1467   -1.1282 H       1  UNL1        0.0462
     31 H          -0.1559    4.0107   -3.1955 H       1  UNL1        0.0283
     32 H           0.6484    5.2002   -4.2055 H       1  UNL1        0.0283
     33 H          -0.7007    7.0347   -3.1226 H       1  UNL1        0.0314
     34 H          -1.5208    5.8486   -2.1282 H       1  UNL1        0.0314
     35 H          -1.6464    7.5951   -5.2450 H       1  UNL1        0.0620
     36 H          -3.5738    7.3629   -6.7709 H       1  UNL1        0.0618
     37 H          -4.9526    5.3017   -6.7337 H       1  UNL1        0.0618
     38 H          -4.5089    3.5443   -5.0376 H       1  UNL1        0.0618
     39 H          -2.6918    3.8399   -3.3950 H       1  UNL1        0.0620
     40 H           5.1270    3.6805   -0.8942 H       1  UNL1        0.1503
     41 H           4.9790    3.1711   -3.4232 H       1  UNL1        0.0489
     42 H           3.4618    2.3824   -2.9944 H       1  UNL1        0.0489
     43 H           4.7791    0.6068   -3.2283 H       1  UNL1        0.0643
     44 H           4.8267    1.2098   -0.4561 H       1  UNL1        0.2100
     45 H           6.9636    0.1926   -2.3591 H       1  UNL1        0.0723
     46 H           7.0365    1.7753   -1.5552 H       1  UNL1        0.0723
     47 H           8.3330    3.8466   -4.6604 H       1  UNL1        0.0656
     48 H          10.6922    3.8906   -5.3858 H       1  UNL1        0.0686
     49 H          11.2413   -0.0701   -3.7145 H       1  UNL1        0.0686
     50 H           8.8708   -0.1599   -3.1509 H       1  UNL1        0.0656
@<TRIPOS>UNITY_ATOM_ATTR
23 1
charge 1
25 1
charge -1
@<TRIPOS>BOND
     1     1     2    2
     2     2     3   am
     3     3     4    1
     4     4     5    1
     5     5     6    1
     6     6     7    1
     7     7     8   ar
     8     8     9   ar
     9     9    10   ar
    10    10    11   ar
    11    11    12   ar
    12     7    12   ar
    13     2    13   am
    14    13    14    1
    15    15    17    1
    16    17    18    1
    17    18    19    1
    18    19    20   ar
    19    20    21   ar
    20    21    22   ar
    21    22    23    1
    22    23    24    2
    23    23    25    1
    24    22    26   ar
    25    26    27   ar
    26    19    27   ar
    27    15    16    1
    28    15    14    1
    29     3    28    1
    30     4    29    1
    31     4    30    1
    32     5    31    1
    33     5    32    1
    34     6    33    1
    35     6    34    1
    36     8    35    1
    37     9    36    1
    38    10    37    1
    39    11    38    1
    40    12    39    1
    41    13    40    1
    42    14    41    1
    43    14    42    1
    44    15    43    1
    45    16    44    1
    46    17    45    1
    47    17    46    1
    48    20    47    1
    49    21    48    1
    50    26    49    1
    51    27    50    1
