@<TRIPOS>MOLECULE
*****
 41 42 0 0 0
SMALL
GASTEIGER

@<TRIPOS>ATOM
      1 C           1.1074   -0.0586   -0.0580 C.3     1  UNL1       -0.0544
      2 C           2.6438    0.0057   -0.0452 C.3     1  UNL1        0.0303
      3 C           3.1365    0.3896   -1.4332 C.3     1  UNL1       -0.0544
      4 C           3.0908    1.0357    0.9918 C.2     1  UNL1        0.2198
      5 O           2.2479    1.6628    1.6343 O.2     1  UNL1       -0.2752
      6 N           4.4650    1.2334    1.1162 N.am    1  UNL1       -0.2852
      7 C           5.0333    2.0177    2.1502 C.ar    1  UNL1        0.0351
      8 C           6.2342    2.6985    2.0015 C.ar    1  UNL1       -0.0404
      9 C           6.8061    3.3373    3.1155 C.ar    1  UNL1       -0.0583
     10 C           6.1724    3.3087    4.3740 C.ar    1  UNL1       -0.0404
     11 C           4.9676    2.6222    4.5280 C.ar    1  UNL1        0.0354
     12 N           4.3389    2.4895    5.7981 N.am    1  UNL1       -0.2814
     13 C           3.2086    1.7109    6.0303 C.2     1  UNL1        0.2483
     14 O           2.5789    1.0278    5.2175 O.2     1  UNL1       -0.2699
     15 C           2.6505    1.6433    7.3885 C.ar    1  UNL1        0.0374
     16 C           2.0628    0.4264    7.7878 C.ar    1  UNL1       -0.0432
     17 C           1.3095    0.3548    8.9563 C.ar    1  UNL1        0.0163
     18 C           1.2103    1.4915    9.7642 C.ar    1  UNL1        0.2732
     19 N           0.5476    1.3918   11.0699 N.pl3   1  UNL1        0.0796
     20 O           0.0799    0.2924   11.3982 O.2     1  UNL1        0.0414
     21 O           0.5298    2.4056   11.7820 O.co2   1  UNL1       -0.5760
     22 C           1.7868    2.7109    9.3658 C.ar    1  UNL1        0.0163
     23 C           2.5027    2.7890    8.1677 C.ar    1  UNL1       -0.0432
     24 C           4.4210    2.0205    3.3984 C.ar    1  UNL1       -0.0192
     25 H           0.7374   -0.7677   -0.8043 H       1  UNL1        0.0237
     26 H           0.6791    0.9251   -0.2900 H       1  UNL1        0.0237
     27 H           0.7149   -0.3593    0.9205 H       1  UNL1        0.0237
     28 H           3.0323   -0.9805    0.2383 H       1  UNL1        0.0389
     29 H           2.7896    1.3943   -1.6990 H       1  UNL1        0.0237
     30 H           2.7648   -0.3116   -2.1871 H       1  UNL1        0.0237
     31 H           4.2286    0.3900   -1.4854 H       1  UNL1        0.0237
     32 H           5.1032    0.7988    0.4645 H       1  UNL1        0.1548
     33 H           6.7058    2.7920    1.0274 H       1  UNL1        0.0636
     34 H           7.7619    3.8475    3.0051 H       1  UNL1        0.0619
     35 H           6.6460    3.8179    5.2092 H       1  UNL1        0.0636
     36 H           4.8048    2.9216    6.5860 H       1  UNL1        0.1551
     37 H           2.1637   -0.4600    7.1590 H       1  UNL1        0.0627
     38 H           0.8040   -0.5757    9.2081 H       1  UNL1        0.0685
     39 H           1.6648    3.6107    9.9645 H       1  UNL1        0.0685
     40 H           2.8875    3.7453    7.8265 H       1  UNL1        0.0627
     41 H           3.5025    1.4654    3.4758 H       1  UNL1        0.0655
@<TRIPOS>UNITY_ATOM_ATTR
19 1
charge 1
21 1
charge -1
@<TRIPOS>BOND
     1     1     2    1
     2     2     3    1
     3     2     4    1
     4     4     5    2
     5     4     6   am
     6     6     7    1
     7     7     8   ar
     8     8     9   ar
     9     9    10   ar
    10    10    11   ar
    11    11    12    1
    12    12    13   am
    13    13    14    2
    14    13    15    1
    15    15    16   ar
    16    16    17   ar
    17    17    18   ar
    18    18    19    1
    19    19    20    2
    20    19    21    1
    21    18    22   ar
    22    22    23   ar
    23    15    23   ar
    24    11    24   ar
    25     7    24   ar
    26     1    25    1
    27     1    26    1
    28     1    27    1
    29     2    28    1
    30     3    29    1
    31     3    30    1
    32     3    31    1
    33     6    32    1
    34     8    33    1
    35     9    34    1
    36    10    35    1
    37    12    36    1
    38    16    37    1
    39    17    38    1
    40    22    39    1
    41    23    40    1
    42    24    41    1
