REMARK  6 active torsions:
REMARK  status: ('A' for Active; 'I' for Inactive)
REMARK       I    between atoms: C_2  and  N_3 
REMARK    1  A    between atoms: C_9  and  C_2 
REMARK    2  A    between atoms: N_3  and  C_4 
REMARK    3  A    between atoms: C_11  and  O_12 
REMARK    4  A    between atoms: C_13  and  O_14 
REMARK    5  A    between atoms: C_17  and  N_18 
REMARK    6  A    between atoms: N_18  and  C_19 
ROOT
ATOM      1  C   UNL d   1       3.002   0.885  -1.037  0.00  0.00     0.097 C 
ATOM      2  C   UNL d   1       4.370   1.313  -0.479  0.00  0.00     0.049 C 
ATOM      3  C   UNL d   1       4.999   2.444  -1.289  0.00  0.00     0.149 C 
ATOM      4  C   UNL d   1       4.118   3.694  -1.179  0.00  0.00     0.172 C 
ATOM      5  C   UNL d   1       2.605   3.461  -1.479  0.00  0.00     0.157 C 
ATOM      6  N   UNL d   1       1.782   4.492  -0.773  0.00  0.00    -0.258 NA
ATOM      7  C   UNL d   1       0.945   3.997   0.079  0.00  0.00     0.163 C 
ATOM      8  S   UNL d   1       0.892   2.250   0.139  0.00  0.00    -0.084 SA
ATOM      9  C   UNL d   1       2.026   2.051  -1.257  0.00  0.00     0.096 C 
ENDROOT
BRANCH   1  10
ATOM     10  C   UNL d   1       3.210  -0.021  -2.270  0.00  0.00     0.229 C 
ATOM     11  O   UNL d   1       3.635  -1.169  -2.078  0.00  0.00    -0.273 OA
ATOM     12  N   UNL d   1       3.114   0.568  -3.521  0.00  0.00    -0.305 N 
ATOM     13  H   UNL d   1       2.813   1.513  -3.712  0.00  0.00     0.171 HD
BRANCH  12  14
ATOM     14  C   UNL d   1       3.467  -0.158  -4.634  0.00  0.00     0.172 A 
ATOM     15  N   UNL d   1       3.142  -1.393  -4.903  0.00  0.00    -0.236 NA
ATOM     16  C   UNL d   1       3.695  -1.752  -6.113  0.00  0.00     0.126 A 
ATOM     17  C   UNL d   1       4.488  -0.799  -6.718  0.00  0.00     0.072 A 
ATOM     18  S   UNL d   1       4.408   0.659  -5.805  0.00  0.00    -0.062 SA
ENDBRANCH  12  14
ENDBRANCH   1  10
BRANCH   3  19
ATOM     19  O   UNL d   1       5.248   2.094  -2.638  0.00  0.00    -0.393 OA
ATOM     20  H   UNL d   1       4.439   1.802  -3.064  0.00  0.00     0.210 HD
ENDBRANCH   3  19
BRANCH   4  21
ATOM     21  O   UNL d   1       4.320   4.238   0.130  0.00  0.00    -0.391 OA
ATOM     22  H   UNL d   1       3.827   3.692   0.763  0.00  0.00     0.210 HD
ENDBRANCH   4  21
BRANCH   7  23
ATOM     23  N   UNL d   1       0.123   4.759   0.878  0.00  0.00    -0.336 N 
ATOM     24  H   UNL d   1       0.181   5.762   0.749  0.00  0.00     0.168 HD
BRANCH  23  25
ATOM     25  C   UNL d   1      -0.853   4.317   1.792  0.00  0.00     0.034 A 
ATOM     26  C   UNL d   1      -0.521   3.458   2.849  0.00  0.00     0.031 A 
ATOM     27  C   UNL d   1      -1.509   2.890   3.660  0.00  0.00     0.026 A 
ATOM     28  C   UNL d   1      -2.847   3.197   3.437  0.00  0.00     0.034 A 
ATOM     29 CL   UNL d   1      -4.067   2.439   4.385  0.00  0.00    -0.084 Cl
ATOM     30  C   UNL d   1      -3.196   4.106   2.441  0.00  0.00     0.026 A 
ATOM     31  C   UNL d   1      -2.201   4.676   1.632  0.00  0.00     0.031 A 
ENDBRANCH  23  25
ENDBRANCH   7  23
TORSDOF 6
