REMARK  5 active torsions:
REMARK  status: ('A' for Active; 'I' for Inactive)
REMARK    1  A    between atoms: S_2  and  C_3 
REMARK    2  A    between atoms: C_3  and  C_4 
REMARK    3  A    between atoms: C_7  and  C_8 
REMARK       I    between atoms: C_8  and  N_10 
REMARK    4  A    between atoms: N_10  and  C_11 
REMARK    5  A    between atoms: C_17  and  O_18 
ROOT
ATOM      1  C   UNL d   1       9.142   1.443  -1.294  0.00  0.00     0.256 C 
ATOM      2  O   UNL d   1       9.667   1.423  -0.173  0.00  0.00    -0.267 OA
ATOM      3  N   UNL d   1       9.846   1.573  -2.480  0.00  0.00    -0.321 N 
ATOM      4  H   UNL d   1       9.373   1.843  -3.327  0.00  0.00     0.169 HD
ENDROOT
BRANCH   1   5
ATOM      5  C   UNL d   1       7.649   1.389  -1.359  0.00  0.00     0.032 A 
ATOM      6  C   UNL d   1       6.974   1.186  -0.150  0.00  0.00     0.017 A 
ATOM      7  C   UNL d   1       5.590   1.029  -0.118  0.00  0.00     0.009 A 
ATOM      8  C   UNL d   1       4.820   1.118  -1.287  0.00  0.00    -0.049 A 
ATOM      9  C   UNL d   1       5.492   1.372  -2.494  0.00  0.00     0.009 A 
ATOM     10  C   UNL d   1       6.894   1.496  -2.534  0.00  0.00     0.017 A 
BRANCH   8  11
ATOM     11  C   UNL d   1       3.300   1.044  -1.240  0.00  0.00     0.112 C 
BRANCH  11  12
ATOM     12  S   UNL d   1       2.707  -0.117   0.055  0.00  0.00    -0.169 SA
ATOM     13  C   UNL d   1       0.921   0.089  -0.044  0.00  0.00     0.090 C 
ENDBRANCH  11  12
ENDBRANCH   8  11
ENDBRANCH   1   5
BRANCH   3  14
ATOM     14  C   UNL d   1      11.254   1.473  -2.555  0.00  0.00     0.068 A 
ATOM     15  C   UNL d   1      11.949   2.338  -3.406  0.00  0.00     0.033 A 
ATOM     16  C   UNL d   1      13.341   2.241  -3.526  0.00  0.00     0.009 A 
ATOM     17  C   UNL d   1      14.059   1.313  -2.762  0.00  0.00    -0.059 A 
ATOM     18  C   UNL d   1      15.559   1.286  -2.791  0.00  0.00     0.048 C 
ATOM     19  C   UNL d   1      13.360   0.423  -1.938  0.00  0.00     0.045 A 
ATOM     20  C   UNL d   1      11.969   0.491  -1.856  0.00  0.00     0.092 A 
BRANCH  20  21
ATOM     21  O   UNL d   1      11.297  -0.495  -1.187  0.00  0.00    -0.358 OA
ATOM     22  H   UNL d   1      11.867  -0.837  -0.482  0.00  0.00     0.217 HD
ENDBRANCH  20  21
ENDBRANCH   3  14
TORSDOF 5
