REMARK  6 active torsions:
REMARK  status: ('A' for Active; 'I' for Inactive)
REMARK    1  A    between atoms: C_2  and  O_3 
REMARK    2  A    between atoms: O_3  and  C_4 
REMARK    3  A    between atoms: C_4  and  C_5 
REMARK       I    between atoms: C_5  and  N_7 
REMARK    4  A    between atoms: N_7  and  N_8 
REMARK       I    between atoms: N_8  and  C_9 
REMARK    5  A    between atoms: C_9  and  C_11 
REMARK    6  A    between atoms: C_13  and  C_14 
ROOT
ATOM      1  C   UNL d   1       8.611   2.437   5.501  0.00  0.00     0.148 A 
ATOM      2  C   UNL d   1       8.042   2.148   6.774  0.00  0.00     0.071 A 
ATOM      3  C   UNL d   1       8.831   2.776   7.717  0.00  0.00     0.062 A 
ATOM      4  N   UNL d   1       9.805   3.408   6.989  0.00  0.00    -0.277 N 
ATOM      5  N   UNL d   1       9.697   3.223   5.656  0.00  0.00    -0.169 NA
ATOM      6  H   UNL d   1      10.594   3.941   7.344  0.00  0.00     0.189 HD
ENDROOT
BRANCH   1   7
ATOM      7  C   UNL d   1       8.169   1.912   4.184  0.00  0.00     0.290 C 
ATOM      8  N   UNL d   1       6.793   1.771   4.018  0.00  0.00    -0.262 N 
ATOM      9  H   UNL d   1       6.113   2.127   4.688  0.00  0.00     0.190 HD
ATOM     10  O   UNL d   1       8.954   1.582   3.286  0.00  0.00    -0.264 OA
BRANCH   8  11
ATOM     11  N   UNL d   1       6.263   1.246   2.801  0.00  0.00    -0.265 N 
ATOM     12  C   UNL d   1       4.881   1.176   2.653  0.00  0.00     0.259 C 
ATOM     13  O   UNL d   1       4.131   1.580   3.544  0.00  0.00    -0.269 OA
ATOM     14  H   UNL d   1       6.941   0.934   2.106  0.00  0.00     0.190 HD
BRANCH  12  15
ATOM     15  C   UNL d   1       4.376   0.561   1.321  0.00  0.00     0.272 C 
BRANCH  15  16
ATOM     16  O   UNL d   1       2.948   0.523   1.242  0.00  0.00    -0.382 OA
BRANCH  16  17
ATOM     17  C   UNL d   1       2.463  -0.041   0.024  0.00  0.00     0.163 C 
ATOM     18  C   UNL d   1       0.941  -0.035   0.036  0.00  0.00     0.033 C 
ENDBRANCH  16  17
ENDBRANCH  15  16
ENDBRANCH  12  15
ENDBRANCH   8  11
ENDBRANCH   1   7
BRANCH   3  19
ATOM     19  C   UNL d   1       8.799   2.728   9.174  0.00  0.00    -0.008 A 
ATOM     20  C   UNL d   1       8.704   3.893   9.944  0.00  0.00     0.014 A 
ATOM     21  C   UNL d   1       8.736   3.820  11.341  0.00  0.00     0.001 A 
ATOM     22  C   UNL d   1       8.796   2.581  11.979  0.00  0.00     0.000 A 
ATOM     23  C   UNL d   1       8.860   1.415  11.221  0.00  0.00     0.001 A 
ATOM     24  C   UNL d   1       8.868   1.489   9.826  0.00  0.00     0.014 A 
ENDBRANCH   3  19
TORSDOF 6
