REMARK  6 active torsions:
REMARK  status: ('A' for Active; 'I' for Inactive)
REMARK    1  A    between atoms: O_2  and  C_3 
REMARK    2  A    between atoms: C_8  and  N_9 
REMARK    3  A    between atoms: N_12  and  C_13 
REMARK    4  A    between atoms: C_13  and  C_14 
REMARK    5  A    between atoms: C_13  and  C_28 
REMARK    6  A    between atoms: N_32  and  C_33 
ROOT
ATOM      1  C   UNL d   1      -2.363   1.257  -1.230  0.00  0.00     0.298 C 
ENDROOT
BRANCH   1   2
ATOM      2  N   UNL d   1      -0.998   1.104  -2.368  0.00  0.00    -0.052 N 
ATOM      3  C   UNL d   1       0.256   1.931  -1.991  0.00  0.00     0.256 C 
ATOM      4  C   UNL d   1       1.524   1.598  -2.805  0.00  0.00     0.150 C 
ATOM      5  N   UNL d   1       1.781   0.177  -3.021  0.00  0.00    -0.375 N 
ATOM      6  C   UNL d   1       0.699  -0.480  -3.732  0.00  0.00     0.150 C 
ATOM      7  C   UNL d   1      -0.506  -0.300  -2.848  0.00  0.00     0.256 C 
ATOM      8  H   UNL d   1      -1.413   1.537  -3.197  0.00  0.00     0.281 HD
BRANCH   5   9
ATOM      9  C   UNL d   1       2.703  -0.631  -2.358  0.00  0.00     0.064 A 
ATOM     10  C   UNL d   1       3.444  -1.508  -3.187  0.00  0.00     0.032 A 
ATOM     11  C   UNL d   1       4.500  -2.295  -2.718  0.00  0.00     0.002 A 
ATOM     12  C   UNL d   1       4.837  -2.257  -1.376  0.00  0.00     0.003 A 
ATOM     13  C   UNL d   1       4.066  -1.497  -0.502  0.00  0.00     0.039 A 
ATOM     14  C   UNL d   1       3.019  -0.679  -0.976  0.00  0.00     0.094 A 
BRANCH  14  15
ATOM     15  O   UNL d   1       2.461   0.087   0.022  0.00  0.00    -0.354 OA
ATOM     16  C   UNL d   1       1.105  -0.204   0.279  0.00  0.00     0.210 C 
ENDBRANCH  14  15
ENDBRANCH   5   9
ENDBRANCH   1   2
BRANCH   1  17
ATOM     17  C   UNL d   1      -2.487   2.729  -0.702  0.00  0.00     0.043 C 
ATOM     18  C   UNL d   1      -1.477   3.551  -0.278  0.00  0.00     0.028 C 
ATOM     19  C   UNL d   1      -1.707   4.933   0.177  0.00  0.00    -0.011 C 
ATOM     20  C   UNL d   1      -0.887   6.077   0.050  0.00  0.00     0.053 C 
ATOM     21  C   UNL d   1      -2.939   5.095   0.780  0.00  0.00     0.028 C 
ATOM     22  C   UNL d   1      -1.492   7.330   0.303  0.00  0.00     0.105 C 
ATOM     23  C   UNL d   1      -2.854   7.393   0.284  0.00  0.00     0.106 C 
ATOM     24  O   UNL d   1      -1.202   8.209   1.419  0.00  0.00    -0.323 OA
ATOM     25  C   UNL d   1      -3.474   6.346   0.930  0.00  0.00     0.064 C 
ATOM     26  O   UNL d   1      -3.303   8.674   0.472  0.00  0.00    -0.323 OA
ATOM     27  C   UNL d   1      -2.520   8.870   1.637  0.00  0.00     0.352 C 
ATOM     28  N   UNL d   1      -3.786   3.985   0.906  0.00  0.00    -0.224 NA
ATOM     29  C   UNL d   1      -3.816   3.252  -0.253  0.00  0.00     0.234 C 
ATOM     30  H   UNL d   1      -4.701   4.202   1.287  0.00  0.00     0.137 HD
ATOM     31  O   UNL d   1      -4.890   3.111  -0.873  0.00  0.00    -0.274 OA
ENDBRANCH   1  17
BRANCH   1  32
ATOM     32  C   UNL d   1      -3.713   0.405  -1.638  0.00  0.00     0.184 C 
ATOM     33  N   UNL d   1      -4.928   0.911  -1.801  0.00  0.00    -0.111 NA
ATOM     34  N   UNL d   1      -5.811  -0.092  -2.088  0.00  0.00    -0.023 NA
ATOM     35  N   UNL d   1      -5.188  -1.246  -2.133  0.00  0.00    -0.043 NA
ATOM     36  N   UNL d   1      -3.922  -0.988  -1.760  0.00  0.00    -0.223 N 
BRANCH  36  37
ATOM     37  C   UNL d   1      -3.010  -2.126  -1.757  0.00  0.00     0.048 C 
ATOM     38  C   UNL d   1      -3.371  -3.314  -0.886  0.00  0.00     0.040 C 
ATOM     39  C   UNL d   1      -2.780  -2.582  -3.235  0.00  0.00     0.040 C 
ATOM     40  C   UNL d   1      -1.793  -1.736  -0.971  0.00  0.00     0.040 C 
ENDBRANCH  36  37
ENDBRANCH   1  32
TORSDOF 6
