@<TRIPOS>MOLECULE
*****
 43 43 0 0 0
SMALL
GASTEIGER

@<TRIPOS>ATOM
      1 C           1.0375    0.0825    0.0422 C.1     1  UNL1       -0.1176
      2 C           2.3413    0.0825    0.0422 C.1     1  UNL1       -0.0866
      3 C           3.8613    0.0825    0.0422 C.3     1  UNL1        0.0732
      4 N           4.4172    1.3289   -0.5160 N.am    1  UNL1       -0.3044
      5 C           5.7901    1.5238   -0.6027 C.2     1  UNL1        0.2152
      6 O           6.5769    0.6622   -0.2183 O.2     1  UNL1       -0.2757
      7 C           6.2744    2.8635   -1.2014 C.3     1  UNL1        0.0396
      8 C           7.8194    2.9476   -1.2380 C.3     1  UNL1        0.0213
      9 N           8.3953    4.1816   -1.8004 N.am    1  UNL1       -0.2990
     10 C           9.7692    4.3273   -1.8817 C.2     1  UNL1        0.2997
     11 O          10.5590    3.4870   -1.4812 O.2     1  UNL1       -0.2529
     12 N          10.1772    5.4883   -2.4996 N.am    1  UNL1       -0.2979
     13 C          11.6115    5.7930   -2.6367 C.3     1  UNL1        0.0285
     14 C          11.8747    7.0924   -3.4138 C.3     1  UNL1        0.0249
     15 N          13.2922    7.4581   -3.4961 N.pl3   1  UNL1       -0.3371
     16 C          13.7129    8.7521   -3.7989 C.ar    1  UNL1        0.1054
     17 C          14.7965    8.8711   -4.7021 C.ar    1  UNL1       -0.0342
     18 C          15.2915   10.1164   -5.1219 C.ar    1  UNL1       -0.0596
     19 C          14.6816   11.2861   -4.6914 C.ar    1  UNL1       -0.0552
     20 C          13.6352   11.2110   -3.7798 C.ar    1  UNL1        0.0175
     21 C          13.1787    9.9621   -3.3081 C.ar    1  UNL1        0.2937
     22 N          12.1835   10.0249   -2.2310 N.pl3   1  UNL1        0.0815
     23 O          11.4028   10.9905   -2.2376 O.2     1  UNL1        0.0415
     24 O          12.1855    9.1466   -1.3567 O.co2   1  UNL1       -0.5760
     25 H          -0.0284    0.0792    0.0439 H       1  UNL1        0.1228
     26 H           4.2374   -0.7529   -0.5575 H       1  UNL1        0.0599
     27 H           4.2375   -0.0263    1.0648 H       1  UNL1        0.0599
     28 H           3.7751    2.0422   -0.8332 H       1  UNL1        0.1496
     29 H           5.8764    3.6879   -0.5993 H       1  UNL1        0.0374
     30 H           5.8774    2.9632   -2.2180 H       1  UNL1        0.0374
     31 H           8.2212    2.1148   -1.8283 H       1  UNL1        0.0467
     32 H           8.2230    2.8384   -0.2240 H       1  UNL1        0.0467
     33 H           7.7940    4.9217   -2.1245 H       1  UNL1        0.1502
     34 H           9.5106    6.2314   -2.6386 H       1  UNL1        0.1503
     35 H          12.0918    4.9520   -3.1492 H       1  UNL1        0.0478
     36 H          12.0495    5.8505   -1.6312 H       1  UNL1        0.0478
     37 H          11.2544    7.8615   -2.9581 H       1  UNL1        0.0476
     38 H          11.4942    7.0063   -4.4358 H       1  UNL1        0.0476
     39 H          13.9737    6.8673   -3.0216 H       1  UNL1        0.1463
     40 H          15.2493    7.9773   -5.1331 H       1  UNL1        0.0638
     41 H          16.1450   10.1730   -5.7957 H       1  UNL1        0.0618
     42 H          15.0236   12.2545   -5.0484 H       1  UNL1        0.0620
     43 H          13.1896   12.1364   -3.4201 H       1  UNL1        0.0686
@<TRIPOS>UNITY_ATOM_ATTR
22 1
charge 1
24 1
charge -1
@<TRIPOS>BOND
     1     1     2    3
     2     2     3    1
     3     3     4    1
     4     4     5   am
     5     5     6    2
     6     5     7    1
     7     7     8    1
     8     8     9    1
     9     9    10   am
    10    10    11    2
    11    10    12   am
    12    12    13    1
    13    13    14    1
    14    14    15    1
    15    15    16    1
    16    16    17   ar
    17    17    18   ar
    18    18    19   ar
    19    19    20   ar
    20    20    21   ar
    21    16    21   ar
    22    21    22    1
    23    22    23    2
    24    22    24    1
    25     1    25    1
    26     3    26    1
    27     3    27    1
    28     4    28    1
    29     7    29    1
    30     7    30    1
    31     8    31    1
    32     8    32    1
    33     9    33    1
    34    12    34    1
    35    13    35    1
    36    13    36    1
    37    14    37    1
    38    14    38    1
    39    15    39    1
    40    17    40    1
    41    18    41    1
    42    19    42    1
    43    20    43    1
