@<TRIPOS>MOLECULE
*****
 65 68 0 0 0
SMALL
GASTEIGER

@<TRIPOS>ATOM
      1 C           1.0949   -0.0570    0.0323 C.3     1  UNL1       -0.0307
      2 C           2.6120   -0.0570    0.0338 C.3     1  UNL1        0.0870
      3 O           3.0480    1.2889    0.2225 O.3     1  UNL1       -0.4885
      4 C           4.3986    1.4861    0.1455 C.ar    1  UNL1        0.1633
      5 C           5.2511    0.8416   -0.7435 C.ar    1  UNL1       -0.0162
      6 C           6.5971    1.2120   -0.8118 C.ar    1  UNL1       -0.0575
      7 C           7.0639    2.3160   -0.0967 C.ar    1  UNL1       -0.0508
      8 C           6.2566    2.8884    0.8822 C.ar    1  UNL1        0.0222
      9 C           6.7738    3.8707    1.8313 C.ar    1  UNL1       -0.0289
     10 C           6.0236    4.3110    2.8601 C.ar    1  UNL1        0.1507
     11 C           6.6798    5.2812    3.8269 C.2     1  UNL1        0.2540
     12 O           7.8461    5.6236    3.6504 O.2     1  UNL1       -0.2698
     13 N           5.9647    5.7696    4.9027 N.am    1  UNL1       -0.3108
     14 C           6.5119    6.7140    5.8572 C.3     1  UNL1        0.0159
     15 C           5.4176    7.0107    6.9054 C.3     1  UNL1       -0.0119
     16 C           5.8804    8.0056    7.9090 C.ar    1  UNL1       -0.0422
     17 C           5.4459    9.3224    7.8071 C.ar    1  UNL1       -0.0548
     18 C           5.9044   10.2695    8.7088 C.ar    1  UNL1       -0.0160
     19 C           6.9113    9.9469    9.6252 C.ar    1  UNL1        0.1615
     20 O           7.5079   10.8734   10.4443 O.3     1  UNL1       -0.4915
     21 C           7.0732   12.2215   10.2993 C.3     1  UNL1        0.0790
     22 C           7.3607    8.6151    9.7266 C.ar    1  UNL1        0.1617
     23 O           8.3661    8.3588   10.6253 O.3     1  UNL1       -0.4914
     24 C           8.8638    7.0266   10.6849 C.3     1  UNL1        0.0790
     25 C           6.7811    7.6391    8.9136 C.ar    1  UNL1       -0.0131
     26 C           4.6495    3.7897    2.9369 C.ar    1  UNL1        0.4092
     27 N           3.8313    4.1005    3.8519 N.2     1  UNL1       -0.0949
     28 N           2.5297    3.7337    4.0726 N.am    1  UNL1       -0.0799
     29 C           1.9195    4.3258    5.1750 C.2     1  UNL1        0.3321
     30 O           2.5385    5.1838    5.8233 O.2     1  UNL1       -0.2615
     31 C           0.6261    3.7867    5.4637 C.ar    1  UNL1        0.1941
     32 C           0.1978    2.4806    5.3449 C.ar    1  UNL1       -0.0111
     33 C          -1.1477    2.4572    5.7530 C.ar    1  UNL1       -0.0231
     34 C          -1.4735    3.7533    6.0792 C.ar    1  UNL1        0.0928
     35 O          -0.3934    4.5713    5.9195 O.2     1  UNL1       -0.4581
     36 O           4.1120    2.9324    2.0241 O.2     1  UNL1       -0.3982
     37 C           4.9388    2.4513    0.9972 C.ar    1  UNL1        0.1831
     38 H           0.7099   -1.0774   -0.0439 H       1  UNL1        0.0262
     39 H           0.7130    0.5267   -0.8126 H       1  UNL1        0.0262
     40 H           0.7046    0.4070    0.9435 H       1  UNL1        0.0262
     41 H           2.9549   -0.4801   -0.9144 H       1  UNL1        0.0694
     42 H           2.9819   -0.6619    0.8683 H       1  UNL1        0.0694
     43 H           4.9011    0.0726   -1.4237 H       1  UNL1        0.0655
     44 H           7.2835    0.6410   -1.4345 H       1  UNL1        0.0619
     45 H           8.0646    2.6922   -0.3001 H       1  UNL1        0.0625
     46 H           7.8091    4.1844    1.6903 H       1  UNL1        0.0635
     47 H           5.0276    5.6918    5.1992 H       1  UNL1        0.1490
     48 H           6.7944    7.6154    5.3056 H       1  UNL1        0.0465
     49 H           7.3964    6.2593    6.3090 H       1  UNL1        0.0465
     50 H           5.0881    6.0918    7.4111 H       1  UNL1        0.0328
     51 H           4.5129    7.3882    6.4027 H       1  UNL1        0.0328
     52 H           4.7479    9.6224    7.0293 H       1  UNL1        0.0621
     53 H           5.4655   11.2587    8.6556 H       1  UNL1        0.0655
     54 H           7.6706   12.8482   10.9658 H       1  UNL1        0.0660
     55 H           6.0238   12.3207   10.5977 H       1  UNL1        0.0660
     56 H           7.2257   12.5871    9.2764 H       1  UNL1        0.0660
     57 H           9.6954    7.0020   11.3950 H       1  UNL1        0.0660
     58 H           9.2495    6.6929    9.7141 H       1  UNL1        0.0660
     59 H           8.0908    6.3444   11.0539 H       1  UNL1        0.0660
     60 H           7.0339    6.5897    9.0269 H       1  UNL1        0.0658
     61 H           4.1679    4.7243    4.5576 H       1  UNL1        0.4882
     62 H           2.0811    3.0694    3.4521 H       1  UNL1        0.2261
     63 H           0.8087    1.6445    5.0392 H       1  UNL1        0.0657
     64 H          -1.7942    1.5933    5.8145 H       1  UNL1        0.0649
     65 H          -2.3839    4.2177    6.4383 H       1  UNL1        0.1029
@<TRIPOS>UNITY_ATOM_ATTR
27 1
charge 1
@<TRIPOS>BOND
     1     1     2    1
     2     2     3    1
     3     3     4    1
     4     4     5   ar
     5     5     6   ar
     6     6     7   ar
     7     7     8   ar
     8     8     9   ar
     9     9    10   ar
    10    10    11    1
    11    11    12    2
    12    11    13   am
    13    13    14    1
    14    14    15    1
    15    15    16    1
    16    16    17   ar
    17    17    18   ar
    18    18    19   ar
    19    19    20    1
    20    20    21    1
    21    19    22   ar
    22    22    23    1
    23    23    24    1
    24    22    25   ar
    25    16    25   ar
    26    10    26   ar
    27    26    27    2
    28    27    28    1
    29    28    29   am
    30    29    30    2
    31    29    31    1
    32    31    32   ar
    33    32    33   ar
    34    33    34   ar
    35    34    35   ar
    36    31    35   ar
    37    26    36   ar
    38    36    37   ar
    39     4    37   ar
    40     8    37   ar
    41     1    38    1
    42     1    39    1
    43     1    40    1
    44     2    41    1
    45     2    42    1
    46     5    43    1
    47     6    44    1
    48     7    45    1
    49     9    46    1
    50    13    47    1
    51    14    48    1
    52    14    49    1
    53    15    50    1
    54    15    51    1
    55    17    52    1
    56    18    53    1
    57    21    54    1
    58    21    55    1
    59    21    56    1
    60    24    57    1
    61    24    58    1
    62    24    59    1
    63    25    60    1
    64    27    61    1
    65    28    62    1
    66    32    63    1
    67    33    64    1
    68    34    65    1
