@<TRIPOS>MOLECULE
*****
 71 73 0 0 0
SMALL
GASTEIGER

@<TRIPOS>ATOM
      1 C           0.8419   -0.2064    0.1265 C.2     1  UNL1       -0.1023
      2 C           2.1613   -0.4346    0.2228 C.2     1  UNL1       -0.0867
      3 C           2.9733   -1.0404   -0.9041 C.3     1  UNL1       -0.0061
      4 C           4.4376   -0.6505   -0.8119 C.ar    1  UNL1        0.0023
      5 C           5.3582   -1.7072   -0.6055 C.ar    1  UNL1       -0.0459
      6 C           6.6913   -1.4314   -0.3110 C.ar    1  UNL1       -0.0015
      7 C           7.5812   -2.4960    0.2283 C.2     1  UNL1        0.0529
      8 N           8.7801   -2.4163    0.7426 N.2     1  UNL1       -0.1877
      9 N           9.3755   -1.2008    0.9088 N.am    1  UNL1       -0.2070
     10 C          10.6629   -1.0492    1.3555 C.2     1  UNL1        0.2323
     11 O          11.3990   -1.9697    1.7333 O.2     1  UNL1       -0.2741
     12 C          11.1024    0.4159    1.3129 C.3     1  UNL1        0.0282
     13 C          12.5059    0.4966    1.8663 C.3     1  UNL1       -0.0144
     14 C          13.1397    1.8853    1.9184 C.3     1  UNL1        0.0806
     15 O          12.3152    2.7429    2.7001 O.3     1  UNL1       -0.3872
     16 C          14.5512    1.8266    2.4849 C.ar    1  UNL1       -0.0189
     17 C          15.2894    2.9932    2.7177 C.ar    1  UNL1       -0.0527
     18 C          16.6412    2.9121    3.0892 C.ar    1  UNL1       -0.0196
     19 C          17.2494    1.6734    3.3178 C.ar    1  UNL1        0.1205
     20 O          18.5457    1.6911    3.7604 O.3     1  UNL1       -0.4922
     21 C          19.0890    0.4133    4.1140 C.3     1  UNL1        0.0868
     22 C          20.4744    0.6087    4.6922 C.3     1  UNL1       -0.0307
     23 C          16.5159    0.5161    3.1048 C.ar    1  UNL1       -0.0196
     24 C          15.1924    0.5954    2.6997 C.ar    1  UNL1       -0.0527
     25 C           7.1235   -0.1228   -0.4272 C.ar    1  UNL1       -0.0076
     26 C           6.2481    0.9403   -0.5130 C.ar    1  UNL1        0.1624
     27 O           6.8913    2.1285   -0.2640 O.3     1  UNL1       -0.4914
     28 C           6.1155    3.3082   -0.3400 C.3     1  UNL1        0.0790
     29 C           4.9028    0.6904   -0.7965 C.ar    1  UNL1        0.1658
     30 O           4.1948    1.8202   -1.0663 O.3     1  UNL1       -0.4834
     31 C           2.8964    1.7668   -1.5905 C.3     1  UNL1        0.1148
     32 C           2.2377    3.0889   -1.7516 C.ar    1  UNL1       -0.0104
     33 C           2.9602    4.2682   -1.6774 C.ar    1  UNL1       -0.0554
     34 C           2.2964    5.4739   -1.6183 C.ar    1  UNL1       -0.0614
     35 C           0.9099    5.5002   -1.7444 C.ar    1  UNL1       -0.0617
     36 C           0.1742    4.3193   -1.8386 C.ar    1  UNL1       -0.0614
     37 C           0.8370    3.1072   -1.8248 C.ar    1  UNL1       -0.0554
     38 H           0.3568    0.4878    0.8102 H       1  UNL1        0.0532
     39 H           0.2671   -0.5809   -0.7124 H       1  UNL1        0.0532
     40 H           2.7057    0.1187    0.9958 H       1  UNL1        0.0570
     41 H           2.6085   -0.7385   -1.8928 H       1  UNL1        0.0357
     42 H           2.8440   -2.1247   -0.8746 H       1  UNL1        0.0357
     43 H           5.0143   -2.7391   -0.6757 H       1  UNL1        0.0628
     44 H           7.1414   -3.5110    0.2294 H       1  UNL1        0.0851
     45 H           8.7919   -0.3918    1.0593 H       1  UNL1        0.1772
     46 H          10.4168    1.0364    1.8993 H       1  UNL1        0.0360
     47 H          11.0943    0.7733    0.2753 H       1  UNL1        0.0360
     48 H          13.1276   -0.1609    1.2443 H       1  UNL1        0.0298
     49 H          12.4800    0.0812    2.8842 H       1  UNL1        0.0298
     50 H          13.1929    2.2998    0.9044 H       1  UNL1        0.0643
     51 H          12.3683    2.4235    3.6172 H       1  UNL1        0.2102
     52 H          14.8220    3.9700    2.6020 H       1  UNL1        0.0622
     53 H          17.2237    3.8242    3.1911 H       1  UNL1        0.0654
     54 H          19.1669   -0.2165    3.2195 H       1  UNL1        0.0694
     55 H          18.4634   -0.0835    4.8678 H       1  UNL1        0.0694
     56 H          21.1142    1.1370    3.9798 H       1  UNL1        0.0262
     57 H          20.9297   -0.3568    4.9322 H       1  UNL1        0.0262
     58 H          20.4292    1.2132    5.6033 H       1  UNL1        0.0262
     59 H          16.9314   -0.4776    3.2260 H       1  UNL1        0.0654
     60 H          14.6887   -0.3560    2.5537 H       1  UNL1        0.0622
     61 H           8.1682    0.1381   -0.4931 H       1  UNL1        0.0662
     62 H           6.7259    4.1782   -0.0935 H       1  UNL1        0.0660
     63 H           5.2776    3.2912    0.3694 H       1  UNL1        0.0660
     64 H           5.8122    3.4301   -1.3800 H       1  UNL1        0.0660
     65 H           2.2879    1.4209   -0.7867 H       1  UNL1        0.0748
     66 H           2.8346    1.1895   -2.5130 H       1  UNL1        0.0748
     67 H           4.0358    4.2495   -1.6242 H       1  UNL1        0.0621
     68 H           2.8719    6.3799   -1.4664 H       1  UNL1        0.0618
     69 H           0.4016    6.4554   -1.7710 H       1  UNL1        0.0618
     70 H          -0.9086    4.3389   -1.8981 H       1  UNL1        0.0618
     71 H           0.2723    2.1747   -1.8268 H       1  UNL1        0.0621
@<TRIPOS>BOND
     1     1     2    2
     2     2     3    1
     3     3     4    1
     4     4     5   ar
     5     5     6   ar
     6     6     7    1
     7     7     8    2
     8     8     9    1
     9     9    10   am
    10    10    11    2
    11    10    12    1
    12    12    13    1
    13    13    14    1
    14    14    15    1
    15    14    16    1
    16    16    17   ar
    17    17    18   ar
    18    18    19   ar
    19    19    20    1
    20    20    21    1
    21    21    22    1
    22    19    23   ar
    23    23    24   ar
    24    16    24   ar
    25     6    25   ar
    26    25    26   ar
    27    26    27    1
    28    27    28    1
    29    26    29   ar
    30     4    29   ar
    31    29    30    1
    32    30    31    1
    33    31    32    1
    34    32    33   ar
    35    33    34   ar
    36    34    35   ar
    37    35    36   ar
    38    36    37   ar
    39    32    37   ar
    40     1    38    1
    41     1    39    1
    42     2    40    1
    43     3    41    1
    44     3    42    1
    45     5    43    1
    46     7    44    1
    47     9    45    1
    48    12    46    1
    49    12    47    1
    50    13    48    1
    51    13    49    1
    52    14    50    1
    53    15    51    1
    54    17    52    1
    55    18    53    1
    56    21    54    1
    57    21    55    1
    58    22    56    1
    59    22    57    1
    60    22    58    1
    61    23    59    1
    62    24    60    1
    63    25    61    1
    64    28    62    1
    65    28    63    1
    66    28    64    1
    67    31    65    1
    68    31    66    1
    69    33    67    1
    70    34    68    1
    71    35    69    1
    72    36    70    1
    73    37    71    1
