REMARK  4 active torsions:
REMARK  status: ('A' for Active; 'I' for Inactive)
REMARK    1  A    between atoms: C_2  and  C_3 
REMARK       I    between atoms: C_2  and  N_13 
REMARK    2  A    between atoms: C_3  and  N_4 
REMARK    3  A    between atoms: N_13  and  N_14 
REMARK       I    between atoms: N_14  and  C_15 
REMARK    4  A    between atoms: C_15  and  C_17 
ROOT
ATOM      1  O   UNL d   1       1.150   0.073   0.281  0.00  0.00    -0.270 OA
ATOM      2  C   UNL d   1       2.369   0.011   0.117  0.00  0.00     0.254 C 
ATOM      3  N   UNL d   1       3.169   0.832   0.891  0.00  0.00    -0.266 N 
ATOM      4  H   UNL d   1       2.684   1.452   1.545  0.00  0.00     0.190 HD
ENDROOT
BRANCH   3   5
ATOM      5  N   UNL d   1       4.577   0.910   0.886  0.00  0.00    -0.263 N 
ATOM      6  C   UNL d   1       5.197   1.752   1.813  0.00  0.00     0.270 C 
ATOM      7  O   UNL d   1       4.578   2.464   2.604  0.00  0.00    -0.266 OA
ATOM      8  H   UNL d   1       5.113   0.229   0.360  0.00  0.00     0.190 HD
BRANCH   6   9
ATOM      9  C   UNL d   1       6.691   1.727   1.839  0.00  0.00     0.035 C 
ATOM     10  C   UNL d   1       7.426   1.747   0.647  0.00  0.00     0.017 C 
ATOM     11  C   UNL d   1       8.825   1.686   0.679  0.00  0.00     0.003 C 
ATOM     12  C   UNL d   1       9.488   1.498   1.891  0.00  0.00     0.024 C 
ATOM     13  C   UNL d   1       8.759   1.504   3.079  0.00  0.00     0.035 C 
ATOM     14 CL   UNL d   1       9.580   1.226   4.568  0.00  0.00    -0.084 Cl
ATOM     15  C   UNL d   1       7.373   1.694   3.064  0.00  0.00     0.041 C 
ENDBRANCH   6   9
ENDBRANCH   3   5
BRANCH   2  16
ATOM     16  C   UNL d   1       3.032  -0.924  -0.880  0.00  0.00     0.233 C 
BRANCH  16  17
ATOM     17  N   UNL d   1       2.120  -1.751  -1.684  0.00  0.00    -0.347 N 
ATOM     18  C   UNL d   1       2.235  -3.122  -1.777  0.00  0.00     0.092 A 
ATOM     19  C   UNL d   1       1.266  -3.583  -2.637  0.00  0.00     0.031 A 
ATOM     20  C   UNL d   1       0.539  -2.462  -3.108  0.00  0.00    -0.008 A 
ATOM     21  C   UNL d   1      -0.555  -2.329  -3.988  0.00  0.00     0.014 A 
ATOM     22  C   UNL d   1       1.097  -1.319  -2.518  0.00  0.00     0.044 A 
ATOM     23  C   UNL d   1      -1.078  -1.062  -4.255  0.00  0.00     0.001 A 
ATOM     24  C   UNL d   1      -0.517   0.064  -3.663  0.00  0.00     0.002 A 
ATOM     25  C   UNL d   1       0.580  -0.041  -2.795  0.00  0.00     0.030 A 
ENDBRANCH  16  17
ENDBRANCH   2  16
TORSDOF 4
