REMARK  6 active torsions:
REMARK  status: ('A' for Active; 'I' for Inactive)
REMARK    1  A    between atoms: C_5  and  N_6 
REMARK       I    between atoms: N_6  and  C_7 
REMARK    2  A    between atoms: C_7  and  C_9 
REMARK    3  A    between atoms: C_9  and  N_10 
REMARK    4  A    between atoms: N_10  and  C_11 
REMARK    5  A    between atoms: C_20  and  C_21 
REMARK       I    between atoms: C_21  and  N_23 
REMARK    6  A    between atoms: N_23  and  C_24 
ROOT
ATOM      1  C   UNL d   1      -7.423   2.925  -0.110  0.00  0.00     0.028 A 
ATOM      2  C   UNL d   1      -8.325   2.219   0.685  0.00  0.00     0.030 A 
ATOM      3  C   UNL d   1      -9.698   2.480   0.644  0.00  0.00     0.025 A 
ATOM      4  C   UNL d   1     -10.206   3.447  -0.225  0.00  0.00     0.044 A 
ATOM      5  C   UNL d   1     -11.616   3.684  -0.286  0.00  0.00     0.099 C 
ATOM      6  N   UNL d   1     -12.769   3.858  -0.330  0.00  0.00    -0.191 NA
ATOM      7  C   UNL d   1      -9.320   4.165  -1.031  0.00  0.00     0.025 A 
ATOM      8  C   UNL d   1      -7.939   3.910  -0.963  0.00  0.00     0.030 A 
ENDROOT
BRANCH   1   9
ATOM      9  N   UNL d   1      -6.082   2.622  -0.113  0.00  0.00    -0.381 N 
ATOM     10  H   UNL d   1      -5.388   3.370  -0.184  0.00  0.00     0.160 HD
BRANCH   9  11
ATOM     11  C   UNL d   1      -5.531   1.253  -0.078  0.00  0.00     0.223 C 
BRANCH  11  12
ATOM     12  C   UNL d   1      -3.993   1.344  -0.055  0.00  0.00     0.239 C 
ATOM     13  N   UNL d   1      -3.266   0.149  -0.034  0.00  0.00    -0.326 N 
ATOM     14  H   UNL d   1      -3.766  -0.734  -0.052  0.00  0.00     0.169 HD
ATOM     15  O   UNL d   1      -3.499   2.474  -0.056  0.00  0.00    -0.271 OA
BRANCH  13  16
ATOM     16  C   UNL d   1      -1.833   0.077  -0.009  0.00  0.00     0.035 A 
ATOM     17  C   UNL d   1      -1.179  -1.159  -0.001  0.00  0.00     0.030 A 
ATOM     18  C   UNL d   1       0.227  -1.213   0.006  0.00  0.00     0.010 A 
ATOM     19  C   UNL d   1       1.015  -0.047  -0.001  0.00  0.00    -0.046 A 
ATOM     20  C   UNL d   1       2.500  -0.202  -0.011  0.00  0.00     0.049 C 
ATOM     21  C   UNL d   1       0.382   1.204  -0.008  0.00  0.00     0.040 A 
ATOM     22  C   UNL d   1      -1.028   1.226  -0.000  0.00  0.00     0.047 A 
BRANCH  21  23
ATOM     23  C   UNL d   1       1.055   2.562  -0.039  0.00  0.00     0.252 C 
ATOM     24  O   UNL d   1       0.365   3.578  -0.076  0.00  0.00    -0.268 OA
ATOM     25  N   UNL d   1       2.432   2.640  -0.021  0.00  0.00    -0.353 N 
ATOM     26  H   UNL d   1       3.013   1.837  -0.004  0.00  0.00     0.163 HD
BRANCH  25  27
ATOM     27  C   UNL d   1       3.202   3.863   0.004  0.00  0.00     0.076 C 
ATOM     28  C   UNL d   1       2.878   4.651   1.261  0.00  0.00     0.032 C 
ATOM     29  C   UNL d   1       4.701   3.528  -0.011  0.00  0.00     0.032 C 
ENDBRANCH  25  27
ENDBRANCH  21  23
ENDBRANCH  13  16
ENDBRANCH  11  12
ENDBRANCH   9  11
ENDBRANCH   1   9
TORSDOF 6
