REMARK  12 active torsions:
REMARK  status: ('A' for Active; 'I' for Inactive)
REMARK    1  A    between atoms: C_2  and  C_3 
REMARK    2  A    between atoms: C_3  and  C_4 
REMARK    3  A    between atoms: C_4  and  C_5 
REMARK    4  A    between atoms: C_6  and  C_5 
REMARK    5  A    between atoms: C_6  and  N_8 
REMARK       I    between atoms: N_8  and  C_9 
REMARK       I    between atoms: C_9  and  N_11 
REMARK    6  A    between atoms: N_11  and  C_12 
REMARK    7  A    between atoms: C_12  and  C_13 
REMARK    8  A    between atoms: C_13  and  O_14 
REMARK    9  A    between atoms: C_13  and  C_15 
REMARK   10  A    between atoms: C_15  and  O_16 
REMARK   11  A    between atoms: O_16  and  C_17 
REMARK   12  A    between atoms: C_20  and  N_21 
ROOT
ATOM      1  C   UNL d   1      10.370  -3.792  -4.811  0.00  0.00     0.158 C 
ENDROOT
BRANCH   1   2
ATOM      2  N   UNL d   1       8.945  -3.603  -4.529  0.00  0.00    -0.341 N 
ATOM      3  C   UNL d   1       8.552  -2.749  -3.532  0.00  0.00     0.316 C 
ATOM      4  N   UNL d   1       7.192  -2.651  -3.359  0.00  0.00    -0.339 N 
ATOM      5  O   UNL d   1       9.368  -2.151  -2.827  0.00  0.00    -0.247 OA
ATOM      6  H   UNL d   1       6.572  -3.157  -3.973  0.00  0.00     0.164 HD
ATOM      7  H   UNL d   1       8.269  -3.976  -5.180  0.00  0.00     0.164 HD
BRANCH   4   8
ATOM      8  C   UNL d   1       6.617  -1.833  -2.280  0.00  0.00     0.082 C 
ATOM      9  C   UNL d   1       5.085  -1.714  -2.394  0.00  0.00     0.032 C 
BRANCH   8  10
ATOM     10  C   UNL d   1       7.044  -2.372  -0.891  0.00  0.00     0.025 C 
BRANCH  10  11
ATOM     11  C   UNL d   1       5.946  -3.206  -0.249  0.00  0.00     0.002 C 
BRANCH  11  12
ATOM     12  C   UNL d   1       6.323  -3.759   1.101  0.00  0.00    -0.000 C 
BRANCH  12  13
ATOM     13  C   UNL d   1       5.129  -4.543   1.634  0.00  0.00    -0.005 C 
ATOM     14  C   UNL d   1       5.462  -5.117   2.989  0.00  0.00     0.005 C 
ENDBRANCH  12  13
ENDBRANCH  11  12
ENDBRANCH  10  11
ENDBRANCH   8  10
ENDBRANCH   4   8
ENDBRANCH   1   2
BRANCH   1  15
ATOM     15  C   UNL d   1      10.656  -4.687  -6.032  0.00  0.00     0.160 C 
BRANCH  15  16
ATOM     16  O   UNL d   1      10.025  -4.107  -7.184  0.00  0.00    -0.392 OA
ATOM     17  H   UNL d   1      10.481  -3.271  -7.381  0.00  0.00     0.210 HD
ENDBRANCH  15  16
BRANCH  15  18
ATOM     18  C   UNL d   1      12.178  -4.857  -6.267  0.00  0.00     0.209 C 
BRANCH  18  19
ATOM     19  O   UNL d   1      12.399  -5.650  -7.445  0.00  0.00    -0.349 OA
BRANCH  19  20
ATOM     20  C   UNL d   1      13.696  -5.985  -7.732  0.00  0.00     0.069 A 
ATOM     21  C   UNL d   1      14.030  -6.050  -9.091  0.00  0.00     0.039 A 
ATOM     22  C   UNL d   1      15.290  -6.507  -9.500  0.00  0.00     0.039 A 
ATOM     23  C   UNL d   1      16.245  -6.839  -8.533  0.00  0.00     0.103 A 
ATOM     24  C   UNL d   1      15.918  -6.789  -7.173  0.00  0.00     0.039 A 
ATOM     25  C   UNL d   1      14.640  -6.369  -6.778  0.00  0.00     0.039 A 
BRANCH  23  26
ATOM     26  N   UNL d   1      17.613  -7.189  -8.942  0.00  0.00    -0.116 N 
ATOM     27  O   UNL d   1      17.870  -7.197 -10.154  0.00  0.00    -0.532 OA
ATOM     28  O   UNL d   1      18.438  -7.428  -8.048  0.00  0.00    -0.532 OA
ENDBRANCH  23  26
ENDBRANCH  19  20
ENDBRANCH  18  19
ENDBRANCH  15  18
ENDBRANCH   1  15
TORSDOF 12
