@<TRIPOS>MOLECULE
*****
 35 36 0 0 0
SMALL
GASTEIGER

@<TRIPOS>ATOM
      1 C           1.1527    0.0771   -0.0315 C.3     1  UNL1        0.0125
      2 C           2.6588   -0.0627   -0.0301 C.2     1  UNL1        0.2141
      3 O           3.1940   -1.0587    0.4462 O.2     1  UNL1       -0.2758
      4 N           3.3364    1.0258   -0.5447 N.am    1  UNL1       -0.2842
      5 C           4.7491    1.1622   -0.4695 C.ar    1  UNL1        0.0558
      6 C           5.5118    0.0947   -0.9456 C.ar    1  UNL1       -0.0203
      7 C           6.8996    0.1506   -0.9440 C.ar    1  UNL1        0.0428
      8 CL          7.7921   -1.1920   -1.5399 Cl      1  UNL1       -0.0835
      9 C           7.5589    1.2773   -0.4736 C.ar    1  UNL1       -0.0415
     10 C           6.8107    2.3512    0.0168 C.ar    1  UNL1       -0.0377
     11 C           5.3948    2.3203    0.0330 C.ar    1  UNL1        0.0490
     12 N           4.7521    3.3642    0.6926 N.pl3   1  UNL1       -0.3383
     13 C           3.3201    3.5279    0.6882 C.3     1  UNL1        0.0356
     14 C           2.8870    4.8335    1.2688 C.ar    1  UNL1       -0.0131
     15 C           1.9170    4.8462    2.2846 C.ar    1  UNL1       -0.0559
     16 C           1.5439    6.0529    2.8608 C.ar    1  UNL1       -0.0614
     17 C           2.0962    7.2438    2.3903 C.ar    1  UNL1       -0.0605
     18 C           3.0042    7.2401    1.3307 C.ar    1  UNL1       -0.0440
     19 C           3.4016    6.0391    0.7601 C.ar    1  UNL1        0.0564
     20 C           4.3844    6.0531   -0.2959 C.1     1  UNL1        0.0995
     21 N           5.2222    6.0065   -1.0902 N.1     1  UNL1       -0.1909
     22 H           0.7235   -0.8614    0.3356 H       1  UNL1        0.0323
     23 H           0.7748    0.2531   -1.0412 H       1  UNL1        0.0323
     24 H           0.8226    0.8797    0.6362 H       1  UNL1        0.0323
     25 H           2.7969    1.8312   -0.8060 H       1  UNL1        0.1548
     26 H           5.0081   -0.7803   -1.3427 H       1  UNL1        0.0651
     27 H           8.6452    1.3188   -0.4737 H       1  UNL1        0.0633
     28 H           7.3542    3.2130    0.4063 H       1  UNL1        0.0637
     29 H           5.3332    4.1601    0.9366 H       1  UNL1        0.1465
     30 H           2.8739    2.7064    1.2588 H       1  UNL1        0.0511
     31 H           2.9226    3.5499   -0.3320 H       1  UNL1        0.0511
     32 H           1.4677    3.9194    2.6437 H       1  UNL1        0.0621
     33 H           0.8378    6.0649    3.6877 H       1  UNL1        0.0618
     34 H           1.8261    8.1864    2.8554 H       1  UNL1        0.0618
     35 H           3.4257    8.1734    0.9687 H       1  UNL1        0.0630
@<TRIPOS>BOND
     1     1     2    1
     2     2     3    2
     3     2     4   am
     4     4     5    1
     5     5     6   ar
     6     6     7   ar
     7     7     8    1
     8     7     9   ar
     9     9    10   ar
    10    10    11   ar
    11     5    11   ar
    12    11    12    1
    13    12    13    1
    14    13    14    1
    15    14    15   ar
    16    15    16   ar
    17    16    17   ar
    18    17    18   ar
    19    18    19   ar
    20    14    19   ar
    21    19    20    1
    22    20    21    3
    23     1    22    1
    24     1    23    1
    25     1    24    1
    26     4    25    1
    27     6    26    1
    28     9    27    1
    29    10    28    1
    30    12    29    1
    31    13    30    1
    32    13    31    1
    33    15    32    1
    34    16    33    1
    35    17    34    1
    36    18    35    1
