@<TRIPOS>MOLECULE
*****
 57 59 0 0 0
SMALL
GASTEIGER

@<TRIPOS>ATOM
      1 C           0.8295   -0.1315   -0.1032 C.3     1  UNL1       -0.0245
      2 C           2.3345   -0.2243   -0.2558 C.3     1  UNL1       -0.0347
      3 N           2.7621   -0.9081   -1.6212 N.4     1  UNL1        0.2373
      4 C           4.2115   -0.6593   -2.1440 C.3     1  UNL1       -0.0158
      5 C           4.9861   -1.6131   -3.0429 C.3     1  UNL1        0.0525
      6 N           4.7142   -2.9626   -2.6165 N.pl3   1  UNL1       -0.3183
      7 C           5.7135   -3.8474   -2.2153 C.ar    1  UNL1        0.0516
      8 C           5.7579   -5.1052   -2.8790 C.ar    1  UNL1       -0.0381
      9 C           6.6115   -6.1610   -2.4975 C.ar    1  UNL1       -0.0459
     10 C           7.5297   -5.9962   -1.4604 C.ar    1  UNL1        0.0609
     11 C           8.4874   -7.1268   -1.1799 C.2     1  UNL1        0.3390
     12 O           8.4915   -8.1718   -1.8520 O.2     1  UNL1       -0.2450
     13 O           9.3580   -6.8637   -0.1777 O.3     1  UNL1       -0.4644
     14 C          10.3420   -7.8942    0.0555 C.3     1  UNL1        0.0820
     15 C           7.5532   -4.7446   -0.8048 C.ar    1  UNL1       -0.0247
     16 C           6.7005   -3.6394   -1.1873 C.ar    1  UNL1        0.0547
     17 N           6.9398   -2.3562   -0.4551 N.am    1  UNL1       -0.2951
     18 C           5.9267   -1.6224    0.1755 C.2     1  UNL1        0.1411
     19 S           4.8364   -2.4246    1.1567 S.2     1  UNL1       -0.0182
     20 N           6.1060   -0.1624    0.2027 N.am    1  UNL1       -0.2635
     21 C           5.1961    0.9848    0.0578 C.2     1  UNL1        0.2509
     22 O           4.5272    1.2923   -0.9318 O.2     1  UNL1       -0.2698
     23 C           5.1827    2.2072    0.8363 C.ar    1  UNL1        0.0554
     24 C           3.9372    2.9132    0.9777 C.ar    1  UNL1       -0.0468
     25 C           3.9088    4.2437    1.3655 C.ar    1  UNL1       -0.0426
     26 C           5.1176    4.8467    1.6688 C.ar    1  UNL1        0.0424
     27 CL          5.1152    6.3940    2.4033 Cl      1  UNL1       -0.0835
     28 C           6.3360    4.1927    1.4438 C.ar    1  UNL1       -0.0243
     29 C           6.3745    2.8839    0.9907 C.ar    1  UNL1        0.0544
     30 CL          7.8967    2.1970    0.5573 Cl      1  UNL1       -0.0827
     31 C           3.2592   -3.2518   -2.5656 C.3     1  UNL1        0.0525
     32 C           2.4946   -2.4126   -1.5042 C.3     1  UNL1       -0.0158
     33 H           0.5644    0.3949    0.8271 H       1  UNL1        0.0281
     34 H           0.3637   -1.1148   -0.0696 H       1  UNL1        0.0281
     35 H           0.4227    0.4580   -0.9276 H       1  UNL1        0.0281
     36 H           2.7795   -0.7278    0.6083 H       1  UNL1        0.0812
     37 H           2.6404    0.8078   -0.2492 H       1  UNL1        0.0812
     38 H           2.1811   -0.4455   -2.3221 H       1  UNL1        0.2034
     39 H           4.6975   -0.8066   -1.2351 H       1  UNL1        0.0830
     40 H           4.3807    0.3264   -2.5813 H       1  UNL1        0.0830
     41 H           6.0637   -1.3799   -3.0229 H       1  UNL1        0.0516
     42 H           4.6564   -1.4234   -4.0690 H       1  UNL1        0.0516
     43 H           5.1396   -5.2716   -3.7638 H       1  UNL1        0.0637
     44 H           6.5514   -7.1164   -3.0251 H       1  UNL1        0.0626
     45 H          10.9845   -7.5817    0.8854 H       1  UNL1        0.0661
     46 H          10.9787   -8.0380   -0.8258 H       1  UNL1        0.0661
     47 H           9.8642   -8.8399    0.3359 H       1  UNL1        0.0661
     48 H           8.2195   -4.6553    0.0525 H       1  UNL1        0.0645
     49 H           7.6485   -2.5596    0.2508 H       1  UNL1        0.1539
     50 H           6.7590    0.0431    0.9437 H       1  UNL1        0.1568
     51 H           2.9700    2.4905    0.7098 H       1  UNL1        0.0626
     52 H           2.9650    4.7886    1.4206 H       1  UNL1        0.0632
     53 H           7.2727    4.7088    1.6111 H       1  UNL1        0.0647
     54 H           3.0545   -4.3135   -2.4274 H       1  UNL1        0.0516
     55 H           2.8194   -2.9468   -3.5232 H       1  UNL1        0.0516
     56 H           2.7352   -2.7389   -0.4912 H       1  UNL1        0.0830
     57 H           1.4117   -2.5225   -1.5963 H       1  UNL1        0.0830
@<TRIPOS>UNITY_ATOM_ATTR
3 1
charge 1
@<TRIPOS>BOND
     1     1     2    1
     2     2     3    1
     3     3     4    1
     4     4     5    1
     5     5     6    1
     6     6     7    1
     7     7     8   ar
     8     8     9   ar
     9     9    10   ar
    10    10    11    1
    11    11    12    2
    12    11    13    1
    13    13    14    1
    14    10    15   ar
    15    15    16   ar
    16     7    16   ar
    17    16    17    1
    18    17    18    1
    19    18    19    2
    20    18    20    1
    21    20    21   am
    22    21    22    2
    23    21    23    1
    24    23    24   ar
    25    24    25   ar
    26    25    26   ar
    27    26    27    1
    28    26    28   ar
    29    28    29   ar
    30    23    29   ar
    31    29    30    1
    32     6    31    1
    33    31    32    1
    34     3    32    1
    35     1    33    1
    36     1    34    1
    37     1    35    1
    38     2    36    1
    39     2    37    1
    40     3    38    1
    41     4    39    1
    42     4    40    1
    43     5    41    1
    44     5    42    1
    45     8    43    1
    46     9    44    1
    47    14    45    1
    48    14    46    1
    49    14    47    1
    50    15    48    1
    51    17    49    1
    52    20    50    1
    53    24    51    1
    54    25    52    1
    55    28    53    1
    56    31    54    1
    57    31    55    1
    58    32    56    1
    59    32    57    1
