REMARK  9 active torsions:
REMARK  status: ('A' for Active; 'I' for Inactive)
REMARK    1  A    between atoms: O_2  and  C_3 
REMARK    2  A    between atoms: C_7  and  N_8 
REMARK    3  A    between atoms: C_12  and  S_13 
REMARK    4  A    between atoms: S_13  and  C_14 
REMARK    5  A    between atoms: C_14  and  C_15 
REMARK       I    between atoms: C_15  and  N_17 
REMARK    6  A    between atoms: N_17  and  C_18 
REMARK    7  A    between atoms: C_18  and  C_19 
REMARK    8  A    between atoms: C_19  and  C_20 
REMARK    9  A    between atoms: C_25  and  O_26 
ROOT
ATOM      1  C   UNL d   1       3.576   5.520   2.028  0.00  0.00     0.180 C 
ENDROOT
BRANCH   1   2
ATOM      2  S   UNL d   1       3.712   5.333   3.935  0.00  0.00    -0.116 SA
BRANCH   2   3
ATOM      3  C   UNL d   1       2.589   3.948   4.413  0.00  0.00     0.267 C 
ATOM      4  N   UNL d   1       2.591   3.835   5.918  0.00  0.00    -0.105 NA
ATOM      5  N   UNL d   1       3.038   2.442   6.179  0.00  0.00     0.072 N 
ATOM      6  H   UNL d   1       3.259   4.529   6.266  0.00  0.00     0.158 HD
ATOM      7  N   UNL d   1       2.775   1.694   5.000  0.00  0.00    -0.042 NA
ATOM      8  H   UNL d   1       4.059   2.421   6.374  0.00  0.00     0.325 HD
ATOM      9  H   UNL d   1       2.563   2.032   7.009  0.00  0.00     0.325 HD
ATOM     10  N   UNL d   1       2.920   2.604   3.954  0.00  0.00    -0.259 N 
ATOM     11  H   UNL d   1       3.334   0.837   4.876  0.00  0.00     0.181 HD
BRANCH  10  12
ATOM     12  C   UNL d   1       3.351   2.191   2.713  0.00  0.00     0.052 C 
ATOM     13  C   UNL d   1       4.615   2.551   2.230  0.00  0.00     0.031 C 
ATOM     14  C   UNL d   1       5.010   2.242   0.929  0.00  0.00     0.005 C 
ATOM     15  C   UNL d   1       4.175   1.481   0.123  0.00  0.00     0.037 C 
ATOM     16  C   UNL d   1       2.971   0.992   0.632  0.00  0.00     0.070 C 
ATOM     17  C   UNL d   1       2.554   1.368   1.912  0.00  0.00     0.067 C 
BRANCH  16  18
ATOM     18  O   UNL d   1       2.333   0.083  -0.161  0.00  0.00    -0.356 OA
ATOM     19  C   UNL d   1       0.918   0.010  -0.052  0.00  0.00     0.210 C 
ENDBRANCH  16  18
ENDBRANCH  10  12
ENDBRANCH   2   3
ENDBRANCH   1   2
BRANCH   1  20
ATOM     20  C   UNL d   1       4.505   6.677   1.452  0.00  0.00     0.227 C 
ATOM     21  O   UNL d   1       5.127   7.438   2.257  0.00  0.00    -0.273 OA
ATOM     22  N   UNL d   1       4.634   6.842   0.044  0.00  0.00    -0.360 N 
ATOM     23  H   UNL d   1       4.301   6.065  -0.519  0.00  0.00     0.162 HD
BRANCH  22  24
ATOM     24  C   UNL d   1       5.455   7.990  -0.732  0.00  0.00     0.123 C 
BRANCH  24  25
ATOM     25  C   UNL d   1       5.283   8.101  -2.526  0.00  0.00     0.037 C 
BRANCH  25  26
ATOM     26  C   UNL d   1       6.110   9.178  -3.727  0.00  0.00     0.021 C 
ATOM     27  C   UNL d   1       7.335   8.543  -3.838  0.00  0.00     0.093 C 
ATOM     28  N   UNL d   1       8.089   9.691  -3.820  0.00  0.00    -0.285 NA
ATOM     29  C   UNL d   1       7.933  10.140  -5.100  0.00  0.00     0.018 A 
ATOM     30  H   UNL d   1       8.000  10.399  -3.110  0.00  0.00     0.128 HD
ATOM     31  C   UNL d   1       8.989  10.584  -5.937  0.00  0.00     0.060 A 
ATOM     32  C   UNL d   1       6.554   9.882  -5.310  0.00  0.00    -0.025 A 
ATOM     33  C   UNL d   1       8.859  10.859  -7.279  0.00  0.00     0.070 A 
ATOM     34  C   UNL d   1       7.585  10.600  -7.752  0.00  0.00     0.037 A 
ATOM     35  C   UNL d   1       6.400  10.138  -6.812  0.00  0.00     0.012 A 
BRANCH  33  36
ATOM     36  O   UNL d   1      10.030  11.273  -7.853  0.00  0.00    -0.356 OA
ATOM     37  C   UNL d   1      10.158  11.789  -9.175  0.00  0.00     0.210 C 
ENDBRANCH  33  36
ENDBRANCH  25  26
ENDBRANCH  24  25
ENDBRANCH  22  24
ENDBRANCH   1  20
TORSDOF 9
