@<TRIPOS>MOLECULE
*****
 51 52 0 0 0
SMALL
GASTEIGER

@<TRIPOS>ATOM
      1 C           2.5009   -0.2193   -0.0153 C.3     1  UNL1       -0.0380
      2 C           1.0121   -0.0508    0.0028 C.ar    1  UNL1       -0.0295
      3 C           0.2239   -1.2182    0.0051 C.ar    1  UNL1       -0.0553
      4 C          -1.1776   -1.1643   -0.0024 C.ar    1  UNL1       -0.0401
      5 C          -1.8209    0.0729   -0.0119 C.ar    1  UNL1        0.0352
      6 N          -3.2513    0.1415   -0.0394 N.am    1  UNL1       -0.2852
      7 C          -3.9713    1.3322   -0.0571 C.2     1  UNL1        0.2198
      8 O          -3.4645    2.4534   -0.0693 O.2     1  UNL1       -0.2752
      9 C          -5.4969    1.2479   -0.0836 C.3     1  UNL1        0.0303
     10 C          -6.0460    0.5417    1.1452 C.3     1  UNL1       -0.0544
     11 C          -6.0494    2.6885   -0.1136 C.3     1  UNL1       -0.0544
     12 C          -1.0089    1.2235    0.0027 C.ar    1  UNL1       -0.0193
     13 C           0.3975    1.2082    0.0042 C.ar    1  UNL1        0.0322
     14 N           1.0549    2.4298    0.0070 N.pl3   1  UNL1       -0.3351
     15 C           2.4999    2.6130    0.0125 C.3     1  UNL1        0.0861
     16 C           2.9354    4.0595    0.0116 C.2     1  UNL1        0.2343
     17 O           2.1079    4.9693   -0.0121 O.2     1  UNL1       -0.2738
     18 N           4.3303    4.2277    0.0006 N.am    1  UNL1       -0.2842
     19 C           4.8856    5.5202    0.0051 C.ar    1  UNL1        0.0334
     20 C           4.3215    6.4766    0.8389 C.ar    1  UNL1       -0.0402
     21 C           4.7719    7.7845    0.8254 C.ar    1  UNL1       -0.0559
     22 C           5.8062    8.1852   -0.0265 C.ar    1  UNL1       -0.0335
     23 C           6.2579    9.6350   -0.0621 C.3     1  UNL1        0.0598
     24 C           5.5486   10.5105    0.8900 C.1     1  UNL1        0.0672
     25 N           4.9525   11.1481    1.6660 N.1     1  UNL1       -0.1962
     26 C           6.4005    7.2091   -0.8495 C.ar    1  UNL1       -0.0559
     27 C           5.9605    5.8708   -0.8146 C.ar    1  UNL1       -0.0402
     28 H           2.8257   -1.2581   -0.0072 H       1  UNL1        0.0278
     29 H           2.9351    0.2347    0.8784 H       1  UNL1        0.0278
     30 H           2.9038    0.2173   -0.9331 H       1  UNL1        0.0278
     31 H           0.7234   -2.1855    0.0071 H       1  UNL1        0.0621
     32 H          -1.7226   -2.1041   -0.0029 H       1  UNL1        0.0636
     33 H          -3.7538   -0.7389   -0.0574 H       1  UNL1        0.1548
     34 H          -5.8119    0.7332   -0.9987 H       1  UNL1        0.0389
     35 H          -5.7133    1.0425    2.0615 H       1  UNL1        0.0237
     36 H          -5.7122   -0.4977    1.1897 H       1  UNL1        0.0237
     37 H          -7.1417    0.5491    1.1358 H       1  UNL1        0.0237
     38 H          -5.7231    3.2495    0.7735 H       1  UNL1        0.0237
     39 H          -7.1414    2.7089   -0.1382 H       1  UNL1        0.0237
     40 H          -5.6786    3.2343   -0.9900 H       1  UNL1        0.0237
     41 H          -1.4541    2.2085    0.0104 H       1  UNL1        0.0655
     42 H           0.5042    3.2902   -0.0069 H       1  UNL1        0.1466
     43 H           2.9249    2.1854   -0.8975 H       1  UNL1        0.0557
     44 H           2.9167    2.1893    0.9276 H       1  UNL1        0.0557
     45 H           4.9430    3.4443   -0.1966 H       1  UNL1        0.1549
     46 H           3.5144    6.2179    1.5194 H       1  UNL1        0.0636
     47 H           4.2669    8.4750    1.4950 H       1  UNL1        0.0621
     48 H           6.1092   10.0259   -1.0756 H       1  UNL1        0.0467
     49 H           7.3304    9.6732    0.1608 H       1  UNL1        0.0467
     50 H           7.1952    7.4849   -1.5423 H       1  UNL1        0.0621
     51 H           6.4116    5.1490   -1.4911 H       1  UNL1        0.0636
@<TRIPOS>BOND
     1     1     2    1
     2     2     3   ar
     3     3     4   ar
     4     4     5   ar
     5     5     6    1
     6     6     7   am
     7     7     8    2
     8     7     9    1
     9     9    10    1
    10     9    11    1
    11     5    12   ar
    12    12    13   ar
    13     2    13   ar
    14    13    14    1
    15    14    15    1
    16    15    16    1
    17    16    17    2
    18    16    18   am
    19    18    19    1
    20    19    20   ar
    21    20    21   ar
    22    21    22   ar
    23    22    23    1
    24    23    24    1
    25    24    25    3
    26    22    26   ar
    27    26    27   ar
    28    19    27   ar
    29     1    28    1
    30     1    29    1
    31     1    30    1
    32     3    31    1
    33     4    32    1
    34     6    33    1
    35     9    34    1
    36    10    35    1
    37    10    36    1
    38    10    37    1
    39    11    38    1
    40    11    39    1
    41    11    40    1
    42    12    41    1
    43    14    42    1
    44    15    43    1
    45    15    44    1
    46    18    45    1
    47    20    46    1
    48    21    47    1
    49    23    48    1
    50    23    49    1
    51    26    50    1
    52    27    51    1
