@<TRIPOS>MOLECULE
*****
 59 61 0 0 0
SMALL
GASTEIGER

@<TRIPOS>ATOM
      1 C           1.0623   -0.1537    0.0079 C.3     1  UNL1        0.0788
      2 O           2.4817   -0.3217    0.0503 O.3     1  UNL1       -0.4950
      3 C           3.0890   -0.1923   -1.1685 C.ar    1  UNL1        0.1237
      4 C           4.2620   -0.8991   -1.4156 C.ar    1  UNL1       -0.0180
      5 C           4.9521   -0.6937   -2.6292 C.ar    1  UNL1       -0.0335
      6 C           4.4475    0.2108   -3.6073 C.ar    1  UNL1        0.0751
      7 N           5.0779    0.3112   -4.8859 N.am    1  UNL1       -0.2939
      8 C           4.7226    0.8691   -6.1368 C.2     1  UNL1        0.1375
      9 S           3.2452    1.5742   -6.5654 S.2     1  UNL1       -0.0183
     10 N           5.6862    0.7796   -7.1857 N.am    1  UNL1       -0.3079
     11 C           6.8396   -0.0900   -7.2345 C.3     1  UNL1        0.0162
     12 C           7.2821   -0.9107   -6.0712 C.3     1  UNL1       -0.0139
     13 C           8.4978   -1.7494   -6.3159 C.3     1  UNL1        0.0456
     14 O           8.7443   -2.4384   -5.0927 O.3     1  UNL1       -0.3950
     15 C           5.3873    1.5006   -8.4840 C.3     1  UNL1        0.0439
     16 C           6.1963    1.3669   -9.7425 C.ar    1  UNL1        0.0347
     17 C           5.9834    2.2196  -10.7748 C.ar    1  UNL1       -0.0427
     18 C           6.7196    2.0149  -12.0254 C.ar    1  UNL1        0.0023
     19 C           7.1249    3.0536  -12.8524 C.ar    1  UNL1       -0.0108
     20 C           7.8136    2.7545  -14.0309 C.ar    1  UNL1        0.1208
     21 O           8.0580    3.8219  -14.8531 O.3     1  UNL1       -0.4951
     22 C           8.5593    3.4978  -16.1470 C.3     1  UNL1        0.0788
     23 C           8.1841    1.4306  -14.3112 C.ar    1  UNL1       -0.0180
     24 C           7.7776    0.3836  -13.4865 C.ar    1  UNL1       -0.0343
     25 C           7.0360    0.6890  -12.3585 C.ar    1  UNL1        0.0494
     26 N           6.7389   -0.2877  -11.3863 N.ar    1  UNL1       -0.3218
     27 C           7.0252    0.1919  -10.1316 C.ar    1  UNL1        0.2539
     28 O           7.9912   -0.2639   -9.5094 O.2     1  UNL1       -0.2675
     29 C           3.3620    0.9873   -3.2552 C.ar    1  UNL1        0.1446
     30 O           3.1808    2.1565   -3.9201 O.3     1  UNL1       -0.4931
     31 C           1.8700    2.6949   -3.9693 C.3     1  UNL1        0.0789
     32 C           2.6516    0.7351   -2.0986 C.ar    1  UNL1        0.0236
     33 H           0.6913   -0.1297    1.0334 H       1  UNL1        0.0660
     34 H           0.6206   -1.0021   -0.5214 H       1  UNL1        0.0660
     35 H           0.7230    0.7846   -0.4452 H       1  UNL1        0.0660
     36 H           4.6286   -1.6069   -0.6720 H       1  UNL1        0.0655
     37 H           5.8916   -1.2349   -2.7603 H       1  UNL1        0.0638
     38 H           5.8492   -0.3023   -4.8449 H       1  UNL1        0.1539
     39 H           7.6686    0.5731   -7.4966 H       1  UNL1        0.0465
     40 H           6.5640   -0.8264   -7.9922 H       1  UNL1        0.0465
     41 H           6.4763   -1.6124   -5.8158 H       1  UNL1        0.0302
     42 H           7.5317   -0.2328   -5.2475 H       1  UNL1        0.0302
     43 H           9.3604   -1.1278   -6.5627 H       1  UNL1        0.0557
     44 H           8.3154   -2.4773   -7.1101 H       1  UNL1        0.0557
     45 H           8.8151   -1.7650   -4.3919 H       1  UNL1        0.2094
     46 H           5.3619    2.5694   -8.2191 H       1  UNL1        0.0515
     47 H           4.3777    1.2084   -8.8027 H       1  UNL1        0.0515
     48 H           5.2153    2.9878  -10.7594 H       1  UNL1        0.0629
     49 H           6.9287    4.0856  -12.5752 H       1  UNL1        0.0661
     50 H           8.5477    4.4044  -16.7571 H       1  UNL1        0.0660
     51 H           7.9368    2.7512  -16.6568 H       1  UNL1        0.0660
     52 H           9.5952    3.1542  -16.0680 H       1  UNL1        0.0660
     53 H           8.8078    1.1878  -15.1647 H       1  UNL1        0.0655
     54 H           8.0921   -0.6312  -13.7058 H       1  UNL1        0.0639
     55 H           7.0699   -1.2246  -11.5646 H       1  UNL1        0.1689
     56 H           1.7845    3.2881   -4.8841 H       1  UNL1        0.0660
     57 H           1.7744    3.3725   -3.1271 H       1  UNL1        0.0660
     58 H           1.0822    1.9312   -4.0028 H       1  UNL1        0.0660
     59 H           1.8059    1.3687   -1.9016 H       1  UNL1        0.0691
@<TRIPOS>BOND
     1     1     2    1
     2     2     3    1
     3     3     4   ar
     4     4     5   ar
     5     5     6   ar
     6     6     7    1
     7     7     8    1
     8     8     9    2
     9     8    10    1
    10    10    11    1
    11    11    12    1
    12    12    13    1
    13    13    14    1
    14    10    15    1
    15    15    16    1
    16    16    17   ar
    17    17    18   ar
    18    18    19   ar
    19    19    20   ar
    20    20    21    1
    21    21    22    1
    22    20    23   ar
    23    23    24   ar
    24    24    25   ar
    25    18    25   ar
    26    25    26   ar
    27    26    27   ar
    28    16    27   ar
    29    27    28    2
    30     6    29   ar
    31    29    30    1
    32    30    31    1
    33    29    32   ar
    34     3    32   ar
    35     1    33    1
    36     1    34    1
    37     1    35    1
    38     4    36    1
    39     5    37    1
    40     7    38    1
    41    11    39    1
    42    11    40    1
    43    12    41    1
    44    12    42    1
    45    13    43    1
    46    13    44    1
    47    14    45    1
    48    15    46    1
    49    15    47    1
    50    17    48    1
    51    19    49    1
    52    22    50    1
    53    22    51    1
    54    22    52    1
    55    23    53    1
    56    24    54    1
    57    26    55    1
    58    31    56    1
    59    31    57    1
    60    31    58    1
    61    32    59    1
