@<TRIPOS>MOLECULE
*****
 42 43 0 0 0
SMALL
GASTEIGER

@<TRIPOS>ATOM
      1 C           0.9591   -0.0671    0.0116 C.3     1  UNL1       -0.0448
      2 C           2.4921   -0.0688   -0.0428 C.3     1  UNL1        0.0805
      3 S           3.1924   -1.7618    0.1862 S.3     1  UNL1       -0.1436
      4 C           2.4763   -2.2762    1.7868 C.3     1  UNL1        0.0195
      5 C           2.9135   -3.6851    2.1246 C.ar    1  UNL1       -0.0375
      6 C           2.3002   -4.7882    1.5080 C.ar    1  UNL1       -0.0578
      7 C           2.6527   -6.0900    1.8678 C.ar    1  UNL1       -0.0615
      8 C           3.6697   -6.3051    2.7951 C.ar    1  UNL1       -0.0617
      9 C           4.3149   -5.2191    3.3841 C.ar    1  UNL1       -0.0615
     10 C           3.9351   -3.9155    3.0565 C.ar    1  UNL1       -0.0578
     11 C           2.9578    0.4622   -1.4202 C.2     1  UNL1        0.2449
     12 O           2.1355    0.8225   -2.2742 O.2     1  UNL1       -0.2729
     13 N           4.3387    0.5377   -1.6143 N.am    1  UNL1       -0.2061
     14 N           4.7912    0.9619   -2.8350 N.2     1  UNL1       -0.1874
     15 C           6.0624    1.0269   -3.0657 C.2     1  UNL1        0.0598
     16 C           6.5671    1.5367   -4.3720 C.ar    1  UNL1        0.0775
     17 C           7.6143    0.9105   -5.0659 C.ar    1  UNL1        0.1324
     18 O           8.2044   -0.2582   -4.6644 O.3     1  UNL1       -0.5059
     19 C           8.1028    1.4503   -6.2656 C.ar    1  UNL1        0.0222
     20 C           7.4968    2.5806   -6.8059 C.ar    1  UNL1        0.1238
     21 O           7.8836    3.1042   -8.0055 O.3     1  UNL1       -0.5065
     22 C           6.4615    3.2188   -6.1340 C.ar    1  UNL1        0.0222
     23 C           6.0150    2.7080   -4.9130 C.ar    1  UNL1        0.1324
     24 O           5.0694    3.4036   -4.2116 O.3     1  UNL1       -0.5059
     25 H           0.5668   -0.3829    0.9818 H       1  UNL1        0.0245
     26 H           0.5269   -0.7110   -0.7640 H       1  UNL1        0.0245
     27 H           0.5700    0.9441   -0.1653 H       1  UNL1        0.0245
     28 H           2.8852    0.5950    0.7361 H       1  UNL1        0.0505
     29 H           1.3808   -2.2605    1.7692 H       1  UNL1        0.0425
     30 H           2.7979   -1.5869    2.5762 H       1  UNL1        0.0425
     31 H           1.5453   -4.6376    0.7385 H       1  UNL1        0.0621
     32 H           2.1319   -6.9357    1.4259 H       1  UNL1        0.0618
     33 H           3.9633   -7.3191    3.0534 H       1  UNL1        0.0618
     34 H           5.1087   -5.3878    4.1071 H       1  UNL1        0.0618
     35 H           4.4439   -3.0810    3.5326 H       1  UNL1        0.0621
     36 H           4.9905    0.2270   -0.9021 H       1  UNL1        0.1773
     37 H           6.8210    0.7157   -2.3262 H       1  UNL1        0.0854
     38 H           7.6169   -0.7246   -4.0458 H       1  UNL1        0.2922
     39 H           8.9436    0.9771   -6.7655 H       1  UNL1        0.0691
     40 H           8.5039    2.4935   -8.4384 H       1  UNL1        0.2921
     41 H           6.0302    4.1196   -6.5593 H       1  UNL1        0.0691
     42 H           4.6230    4.0370   -4.7947 H       1  UNL1        0.2922
@<TRIPOS>BOND
     1     1     2    1
     2     2     3    1
     3     3     4    1
     4     4     5    1
     5     5     6   ar
     6     6     7   ar
     7     7     8   ar
     8     8     9   ar
     9     9    10   ar
    10     5    10   ar
    11     2    11    1
    12    11    12    2
    13    11    13   am
    14    13    14    1
    15    14    15    2
    16    15    16    1
    17    16    17   ar
    18    17    18    1
    19    17    19   ar
    20    19    20   ar
    21    20    21    1
    22    20    22   ar
    23    22    23   ar
    24    16    23   ar
    25    23    24    1
    26     1    25    1
    27     1    26    1
    28     1    27    1
    29     2    28    1
    30     4    29    1
    31     4    30    1
    32     6    31    1
    33     7    32    1
    34     8    33    1
    35     9    34    1
    36    10    35    1
    37    13    36    1
    38    15    37    1
    39    18    38    1
    40    19    39    1
    41    21    40    1
    42    22    41    1
    43    24    42    1
