@<TRIPOS>MOLECULE
*****
 58 61 0 0 0
SMALL
GASTEIGER

@<TRIPOS>ATOM
      1 C          -2.7041    0.2159   -6.9531 C.3     1  UNL1        0.0789
      2 O          -3.2615   -0.1248   -8.2138 O.3     1  UNL1       -0.4933
      3 C          -2.4203   -0.4879   -9.2282 C.ar    1  UNL1        0.1412
      4 C          -2.7292    0.1560  -10.4425 C.ar    1  UNL1       -0.0181
      5 C          -2.0060   -0.0959  -11.6056 C.ar    1  UNL1       -0.0582
      6 C          -0.9123   -0.9489  -11.5466 C.ar    1  UNL1       -0.0598
      7 C          -0.6026   -1.6143  -10.3452 C.ar    1  UNL1       -0.0369
      8 C          -1.3833   -1.4387   -9.1791 C.ar    1  UNL1        0.0756
      9 N          -1.0459   -2.2092   -8.0182 N.am    1  UNL1       -0.2798
     10 C          -1.9524   -2.5569   -7.0120 C.2     1  UNL1        0.2550
     11 O          -3.1647   -2.6649   -7.1850 O.2     1  UNL1       -0.2717
     12 C          -1.3613   -2.7200   -5.5870 C.3     1  UNL1        0.1684
     13 O          -2.2001   -2.0895   -4.5642 O.3     1  UNL1       -0.4539
     14 C          -1.9416   -2.4432   -3.2753 C.2     1  UNL1        0.3284
     15 O          -0.9544   -3.1230   -2.9839 O.2     1  UNL1       -0.2487
     16 C          -3.1334   -2.0862   -2.1861 C.3     1  UNL1        0.1246
     17 C          -2.5156   -2.6444   -0.8050 C.3     1  UNL1        0.0041
     18 C          -2.4962   -4.1834   -0.6898 C.2     1  UNL1        0.0099
     19 C          -2.9248   -5.0326   -1.6394 C.ar    1  UNL1        0.0509
     20 C          -3.4081   -4.8602   -2.9503 C.ar    1  UNL1       -0.0482
     21 C          -4.0919   -5.7763   -3.6086 C.ar    1  UNL1       -0.0608
     22 C          -4.1313   -7.0980   -3.1014 C.ar    1  UNL1       -0.0555
     23 C          -3.5035   -7.4518   -1.9578 C.ar    1  UNL1        0.0098
     24 C          -2.8538   -6.3919   -1.1176 C.ar    1  UNL1        0.2086
     25 N          -2.2495   -6.4107    0.0068 N.2     1  UNL1       -0.2369
     26 C          -1.9462   -5.0001    0.4695 C.3     1  UNL1        0.1661
     27 N          -4.6038   -2.6060   -2.2723 N.am    1  UNL1       -0.2976
     28 C          -5.3555   -2.6552   -3.4559 C.2     1  UNL1        0.2513
     29 O          -4.9044   -2.0853   -4.4620 O.2     1  UNL1       -0.2696
     30 C          -6.5464   -3.5344   -3.4909 C.ar    1  UNL1        0.0738
     31 C          -7.4455   -3.8525   -2.4862 C.ar    1  UNL1       -0.0425
     32 C          -8.5106   -4.7096   -2.9165 C.ar    1  UNL1       -0.0540
     33 C          -8.3568   -5.1225   -4.2200 C.ar    1  UNL1       -0.0236
     34 S          -7.0191   -4.3418   -4.9563 S.2     1  UNL1       -0.0921
     35 H          -3.5033    0.1156   -6.2106 H       1  UNL1        0.0660
     36 H          -2.3048    1.2274   -6.9642 H       1  UNL1        0.0660
     37 H          -1.8794   -0.3952   -6.6063 H       1  UNL1        0.0660
     38 H          -3.5460    0.8747  -10.4723 H       1  UNL1        0.0655
     39 H          -2.2957    0.3750  -12.5434 H       1  UNL1        0.0619
     40 H          -0.3123   -1.1025  -12.4430 H       1  UNL1        0.0618
     41 H           0.2336   -2.3087  -10.3684 H       1  UNL1        0.0637
     42 H          -0.1490   -2.6773   -8.0350 H       1  UNL1        0.1550
     43 H          -0.3571   -2.2866   -5.5223 H       1  UNL1        0.0796
     44 H          -1.3204   -3.8020   -5.4208 H       1  UNL1        0.0796
     45 H          -3.2140   -0.9969   -2.1529 H       1  UNL1        0.0618
     46 H          -1.4864   -2.2693   -0.7024 H       1  UNL1        0.0336
     47 H          -3.0795   -2.2187    0.0369 H       1  UNL1        0.0336
     48 H          -3.3342   -3.9764   -3.5265 H       1  UNL1        0.0626
     49 H          -4.5261   -5.4699   -4.5544 H       1  UNL1        0.0618
     50 H          -4.6212   -7.7730   -3.7960 H       1  UNL1        0.0620
     51 H          -3.4944   -8.4926   -1.6820 H       1  UNL1        0.0683
     52 H          -2.0117   -7.2898    0.4658 H       1  UNL1        0.4459
     53 H          -0.8623   -4.8957    0.5980 H       1  UNL1        0.1077
     54 H          -2.4596   -4.8307    1.4235 H       1  UNL1        0.1077
     55 H          -4.8942   -3.2937   -1.5827 H       1  UNL1        0.1499
     56 H          -7.3878   -3.4243   -1.4983 H       1  UNL1        0.0630
     57 H          -9.3564   -5.0016   -2.3035 H       1  UNL1        0.0623
     58 H          -9.0043   -5.7921   -4.7813 H       1  UNL1        0.0693
@<TRIPOS>UNITY_ATOM_ATTR
25 1
charge 1
@<TRIPOS>BOND
     1     1     2    1
     2     2     3    1
     3     3     4   ar
     4     4     5   ar
     5     5     6   ar
     6     6     7   ar
     7     7     8   ar
     8     3     8   ar
     9     8     9    1
    10     9    10   am
    11    10    11    2
    12    10    12    1
    13    12    13    1
    14    13    14    1
    15    14    15    2
    16    17    18    1
    17    18    19    2
    18    19    20   ar
    19    20    21   ar
    20    21    22   ar
    21    22    23   ar
    22    23    24   ar
    23    19    24   ar
    24    24    25    2
    25    25    26    1
    26    18    26    1
    27    16    27    1
    28    27    28   am
    29    28    29    2
    30    28    30    1
    31    30    31   ar
    32    31    32   ar
    33    32    33   ar
    34    33    34   ar
    35    30    34   ar
    36    16    17    1
    37    16    14    1
    38     1    35    1
    39     1    36    1
    40     1    37    1
    41     4    38    1
    42     5    39    1
    43     6    40    1
    44     7    41    1
    45     9    42    1
    46    12    43    1
    47    12    44    1
    48    16    45    1
    49    17    46    1
    50    17    47    1
    51    20    48    1
    52    21    49    1
    53    22    50    1
    54    23    51    1
    55    25    52    1
    56    26    53    1
    57    26    54    1
    58    27    55    1
    59    31    56    1
    60    32    57    1
    61    33    58    1
