@<TRIPOS>MOLECULE
*****
 67 69 0 0 0
SMALL
GASTEIGER

@<TRIPOS>ATOM
      1 C           0.9837   -0.0492    0.0770 C.2     1  UNL1       -0.0995
      2 C           2.3247   -0.0514    0.1213 C.2     1  UNL1       -0.0542
      3 C           3.0990   -0.4178    1.3581 C.3     1  UNL1        0.1076
      4 O           4.4981   -0.2345    1.1175 O.3     1  UNL1       -0.4880
      5 C           5.3433   -0.6628    2.1098 C.ar    1  UNL1        0.1210
      6 C           6.5257    0.0585    2.2721 C.ar    1  UNL1       -0.0192
      7 C           7.5123   -0.3785    3.1758 C.ar    1  UNL1       -0.0461
      8 C           7.3079   -1.5083    3.9916 C.ar    1  UNL1        0.0386
      9 C           8.3451   -1.8500    5.0371 C.2     1  UNL1        0.2633
     10 O           9.3448   -1.1368    5.1152 O.2     1  UNL1       -0.2685
     11 N           8.1051   -2.9430    5.8829 N.am    1  UNL1       -0.2030
     12 N           9.0202   -3.2469    6.8660 N.2     1  UNL1       -0.1875
     13 C           8.8183   -4.3086    7.5851 C.2     1  UNL1        0.0529
     14 C           9.7478   -4.6653    8.6909 C.ar    1  UNL1       -0.0018
     15 C          10.0550   -5.9847    9.0467 C.ar    1  UNL1       -0.0494
     16 C          10.8430   -6.2456   10.1949 C.ar    1  UNL1       -0.0150
     17 C          11.3345   -5.1789   10.9702 C.ar    1  UNL1        0.1734
     18 O          12.1881   -5.4982   12.0986 O.3     1  UNL1       -0.4186
     19 C          12.9342   -4.5758   12.8440 C.2     1  UNL1        0.3446
     20 O          13.0588   -3.3583   12.7052 O.2     1  UNL1       -0.2445
     21 C          13.7703   -5.1086   13.9167 C.ar    1  UNL1        0.0596
     22 C          13.8050   -4.3657   15.1122 C.ar    1  UNL1       -0.0443
     23 C          14.8600   -4.5213   16.0083 C.ar    1  UNL1       -0.0192
     24 C          15.8446   -5.4750   15.7555 C.ar    1  UNL1        0.1205
     25 O          16.7812   -5.6240   16.7451 O.3     1  UNL1       -0.4920
     26 C          17.6945   -6.7066   16.5638 C.3     1  UNL1        0.0896
     27 C          18.5587   -6.8539   17.8088 C.3     1  UNL1       -0.0189
     28 C          19.5957   -7.9591   17.6204 C.3     1  UNL1       -0.0528
     29 C          20.4724   -8.1011   18.8514 C.3     1  UNL1       -0.0652
     30 C          15.8155   -6.1956   14.5520 C.ar    1  UNL1       -0.0192
     31 C          14.7873   -6.0090   13.6232 C.ar    1  UNL1       -0.0443
     32 C          10.9596   -3.8704   10.6274 C.ar    1  UNL1        0.1628
     33 O          11.1952   -2.8910   11.5282 O.3     1  UNL1       -0.4914
     34 C          11.0637   -1.5324   11.1714 C.3     1  UNL1        0.0790
     35 C          10.2214   -3.6193    9.4717 C.ar    1  UNL1       -0.0076
     36 C           6.1243   -2.2307    3.8093 C.ar    1  UNL1       -0.0461
     37 C           5.1553   -1.8130    2.8760 C.ar    1  UNL1       -0.0192
     38 H           0.4491    0.2143   -0.8310 H       1  UNL1        0.0533
     39 H           0.3877   -0.3127    0.9462 H       1  UNL1        0.0533
     40 H           2.8855    0.2075   -0.7739 H       1  UNL1        0.0600
     41 H           2.8600   -1.4585    1.5955 H       1  UNL1        0.0742
     42 H           2.8015    0.2417    2.1805 H       1  UNL1        0.0742
     43 H           6.6839    0.9725    1.7020 H       1  UNL1        0.0654
     44 H           8.4492    0.1762    3.2328 H       1  UNL1        0.0626
     45 H           7.2713   -3.5073    5.8169 H       1  UNL1        0.1776
     46 H           7.9459   -4.9700    7.4439 H       1  UNL1        0.0851
     47 H           9.7107   -6.8108    8.4282 H       1  UNL1        0.0625
     48 H          11.0350   -7.2774   10.4847 H       1  UNL1        0.0656
     49 H          13.0516   -3.6001   15.2979 H       1  UNL1        0.0627
     50 H          14.9268   -3.8733   16.8800 H       1  UNL1        0.0654
     51 H          18.3386   -6.4893   15.7043 H       1  UNL1        0.0696
     52 H          17.1499   -7.6457   16.3999 H       1  UNL1        0.0696
     53 H          17.9230   -7.0722   18.6759 H       1  UNL1        0.0298
     54 H          19.0531   -5.8996   18.0255 H       1  UNL1        0.0298
     55 H          20.2260   -7.7354   16.7514 H       1  UNL1        0.0264
     56 H          19.0957   -8.9140   17.4183 H       1  UNL1        0.0264
     57 H          21.0050   -7.1675   19.0581 H       1  UNL1        0.0230
     58 H          21.2138   -8.8918   18.7023 H       1  UNL1        0.0230
     59 H          19.8709   -8.3566   19.7293 H       1  UNL1        0.0230
     60 H          16.6118   -6.8820   14.2860 H       1  UNL1        0.0654
     61 H          14.8330   -6.5001   12.6560 H       1  UNL1        0.0627
     62 H          11.5516   -0.9463   11.9554 H       1  UNL1        0.0660
     63 H          10.0025   -1.2798   11.1631 H       1  UNL1        0.0660
     64 H          11.5518   -1.2931   10.2212 H       1  UNL1        0.0660
     65 H           9.9468   -2.6045    9.2047 H       1  UNL1        0.0662
     66 H           5.9211   -3.1398    4.3607 H       1  UNL1        0.0626
     67 H           4.2722   -2.4308    2.7563 H       1  UNL1        0.0654
@<TRIPOS>BOND
     1     1     2    2
     2     2     3    1
     3     3     4    1
     4     4     5    1
     5     5     6   ar
     6     6     7   ar
     7     7     8   ar
     8     8     9    1
     9     9    10    2
    10     9    11   am
    11    11    12    1
    12    12    13    2
    13    13    14    1
    14    14    15   ar
    15    15    16   ar
    16    16    17   ar
    17    17    18    1
    18    18    19    1
    19    19    20    2
    20    19    21    1
    21    21    22   ar
    22    22    23   ar
    23    23    24   ar
    24    24    25    1
    25    25    26    1
    26    26    27    1
    27    27    28    1
    28    28    29    1
    29    24    30   ar
    30    30    31   ar
    31    21    31   ar
    32    17    32   ar
    33    32    33    1
    34    33    34    1
    35    32    35   ar
    36    14    35   ar
    37     8    36   ar
    38    36    37   ar
    39     5    37   ar
    40     1    38    1
    41     1    39    1
    42     2    40    1
    43     3    41    1
    44     3    42    1
    45     6    43    1
    46     7    44    1
    47    11    45    1
    48    13    46    1
    49    15    47    1
    50    16    48    1
    51    22    49    1
    52    23    50    1
    53    26    51    1
    54    26    52    1
    55    27    53    1
    56    27    54    1
    57    28    55    1
    58    28    56    1
    59    29    57    1
    60    29    58    1
    61    29    59    1
    62    30    60    1
    63    31    61    1
    64    34    62    1
    65    34    63    1
    66    34    64    1
    67    35    65    1
    68    36    66    1
    69    37    67    1
