REMARK  12 active torsions:
REMARK  status: ('A' for Active; 'I' for Inactive)
REMARK       I    between atoms: N_1  and  C_2 
REMARK       I    between atoms: C_2  and  N_4 
REMARK    1  A    between atoms: N_4  and  N_5 
REMARK    2  A    between atoms: C_7  and  C_6 
REMARK    3  A    between atoms: C_7  and  N_15 
REMARK    4  A    between atoms: C_7  and  C_8 
REMARK    5  A    between atoms: C_8  and  C_9 
REMARK       I    between atoms: N_15  and  C_16 
REMARK    6  A    between atoms: C_18  and  C_16 
REMARK    7  A    between atoms: C_18  and  N_26 
REMARK    8  A    between atoms: C_18  and  C_19 
REMARK    9  A    between atoms: C_19  and  C_20 
REMARK       I    between atoms: N_26  and  C_27 
REMARK   10  A    between atoms: C_27  and  O_29 
REMARK   11  A    between atoms: O_29  and  C_30 
REMARK   12  A    between atoms: C_30  and  C_31 
ROOT
ATOM      1  N   UNL d   1       9.362  -7.007   2.616  0.00  0.00    -0.350 N 
ATOM      2  C   UNL d   1       8.660  -5.824   2.583  0.00  0.00     0.241 C 
ATOM      3  O   UNL d   1       7.526  -5.733   2.122  0.00  0.00    -0.271 OA
ATOM      4  H   UNL d   1      10.336  -6.970   2.876  0.00  0.00     0.163 HD
ENDROOT
BRANCH   2   5
ATOM      5  C   UNL d   1       9.327  -4.629   3.273  0.00  0.00     0.183 C 
BRANCH   5   6
ATOM      6  N   UNL d   1      10.801  -4.723   3.313  0.00  0.00    -0.323 N 
ATOM      7  C   UNL d   1      11.454  -5.546   4.179  0.00  0.00     0.361 C 
ATOM      8  O   UNL d   1      10.891  -6.376   4.892  0.00  0.00    -0.238 OA
ATOM      9  H   UNL d   1      11.342  -3.969   2.905  0.00  0.00     0.165 HD
BRANCH   7  10
ATOM     10  O   UNL d   1      12.792  -5.440   4.051  0.00  0.00    -0.299 OA
BRANCH  10  11
ATOM     11  C   UNL d   1      13.511  -6.450   4.784  0.00  0.00     0.219 C 
BRANCH  11  12
ATOM     12  C   UNL d   1      15.001  -6.247   4.642  0.00  0.00    -0.034 A 
ATOM     13  C   UNL d   1      15.889  -7.335   4.631  0.00  0.00     0.009 A 
ATOM     14  C   UNL d   1      17.271  -7.120   4.665  0.00  0.00     0.001 A 
ATOM     15  C   UNL d   1      17.777  -5.822   4.632  0.00  0.00     0.000 A 
ATOM     16  C   UNL d   1      16.905  -4.737   4.621  0.00  0.00     0.001 A 
ATOM     17  C   UNL d   1      15.528  -4.949   4.644  0.00  0.00     0.009 A 
ENDBRANCH  11  12
ENDBRANCH  10  11
ENDBRANCH   7  10
ENDBRANCH   5   6
BRANCH   5  18
ATOM     18  C   UNL d   1       8.838  -3.364   2.534  0.00  0.00     0.073 C 
BRANCH  18  19
ATOM     19  C   UNL d   1       9.259  -2.067   3.180  0.00  0.00    -0.056 A 
ATOM     20  C   UNL d   1       9.801  -2.034   4.473  0.00  0.00     0.007 A 
ATOM     21  C   UNL d   1      10.076  -0.834   5.107  0.00  0.00     0.001 A 
ATOM     22  C   UNL d   1       9.879   0.358   4.428  0.00  0.00     0.000 A 
ATOM     23  C   UNL d   1       9.355   0.349   3.134  0.00  0.00     0.001 A 
ATOM     24  C   UNL d   1       9.032  -0.858   2.513  0.00  0.00     0.007 A 
ENDBRANCH  18  19
ENDBRANCH   5  18
ENDBRANCH   2   5
BRANCH   1  25
ATOM     25  C   UNL d   1       8.817  -8.249   2.096  0.00  0.00     0.131 C 
BRANCH  25  26
ATOM     26  C   UNL d   1       9.937  -9.316   1.998  0.00  0.00     0.069 C 
BRANCH  26  27
ATOM     27  C   UNL d   1       9.764 -10.423   0.979  0.00  0.00    -0.056 A 
ATOM     28  C   UNL d   1       8.555 -10.633   0.309  0.00  0.00     0.007 A 
ATOM     29  C   UNL d   1       8.389 -11.730  -0.535  0.00  0.00     0.001 A 
ATOM     30  C   UNL d   1       9.454 -12.586  -0.792  0.00  0.00     0.000 A 
ATOM     31  C   UNL d   1      10.675 -12.382  -0.155  0.00  0.00     0.001 A 
ATOM     32  C   UNL d   1      10.827 -11.315   0.736  0.00  0.00     0.007 A 
ENDBRANCH  26  27
ENDBRANCH  25  26
BRANCH  25  33
ATOM     33  C   UNL d   1       7.690  -8.711   3.060  0.00  0.00     0.137 C 
ATOM     34  N   UNL d   1       6.671  -7.950   3.307  0.00  0.00    -0.185 NA
BRANCH  34  35
ATOM     35  N   UNL d   1       5.706  -8.337   4.187  0.00  0.00    -0.229 N 
ATOM     36  C   UNL d   1       4.679  -7.452   4.472  0.00  0.00     0.334 C 
ATOM     37  N   UNL d   1       3.760  -7.925   5.359  0.00  0.00    -0.351 N 
ATOM     38  O   UNL d   1       4.521  -6.327   4.013  0.00  0.00    -0.246 OA
ATOM     39  H   UNL d   1       2.992  -7.296   5.561  0.00  0.00     0.160 HD
ATOM     40  H   UNL d   1       3.784  -8.826   5.800  0.00  0.00     0.160 HD
ATOM     41  H   UNL d   1       5.780  -9.220   4.666  0.00  0.00     0.194 HD
ENDBRANCH  34  35
ENDBRANCH  25  33
ENDBRANCH   1  25
TORSDOF 12
