@<TRIPOS>MOLECULE
*****
 35 36 0 0 0
SMALL
GASTEIGER

@<TRIPOS>ATOM
      1 C           0.9457   -0.0484   -0.0857 C.3     1  UNL1        0.0004
      2 N           2.3873    0.1590    0.0370 N.am    1  UNL1       -0.3144
      3 C           3.1388    1.1346   -0.6333 C.2     1  UNL1        0.2438
      4 O           4.1272    0.8198   -1.2538 O.2     1  UNL1       -0.2702
      5 C           2.7836    2.5825   -0.4491 C.ar    1  UNL1        0.0370
      6 C           3.5132    3.6424   -0.9936 C.ar    1  UNL1       -0.0479
      7 C           3.1523    4.9942   -0.6983 C.ar    1  UNL1       -0.0395
      8 C           2.0358    5.3136    0.1172 C.ar    1  UNL1        0.0367
      9 N           1.7160    6.6936    0.3848 N.am    1  UNL1       -0.2800
     10 C           0.7660    7.2256    1.2752 C.2     1  UNL1        0.2666
     11 O           0.0262    6.6662    2.0808 O.2     1  UNL1       -0.2682
     12 C           0.5723    8.6799    1.3617 C.ar    1  UNL1        0.1270
     13 C           0.4921    9.4759    0.2463 C.ar    1  UNL1       -0.0128
     14 C           0.1294   10.7933    0.4809 C.ar    1  UNL1        0.0446
     15 CL          0.0779   11.8922   -0.8395 Cl      1  UNL1       -0.0834
     16 C          -0.1997   11.2452    1.7616 C.ar    1  UNL1       -0.0252
     17 C          -0.1520   10.3493    2.8018 C.ar    1  UNL1        0.0298
     18 N           0.2643    9.0971    2.6256 N.ar    1  UNL1       -0.2503
     19 C           1.3089    4.2266    0.5999 C.ar    1  UNL1       -0.0285
     20 C           0.0222    4.2715    1.3394 C.3     1  UNL1       -0.0379
     21 C           1.7458    2.9192    0.3873 C.ar    1  UNL1       -0.0450
     22 H           0.7014   -1.0207    0.3492 H       1  UNL1        0.0426
     23 H           0.6457   -0.0023   -1.1343 H       1  UNL1        0.0426
     24 H           0.3508    0.6721    0.4724 H       1  UNL1        0.0426
     25 H           2.9081   -0.7094    0.0567 H       1  UNL1        0.1487
     26 H           4.3887    3.4312   -1.6087 H       1  UNL1        0.0626
     27 H           3.7788    5.7772   -1.1242 H       1  UNL1        0.0636
     28 H           2.3397    7.3623   -0.0485 H       1  UNL1        0.1552
     29 H           0.6462    9.0828   -0.7505 H       1  UNL1        0.0655
     30 H          -0.4888   12.2696    1.9524 H       1  UNL1        0.0647
     31 H          -0.4435   10.5975    3.8181 H       1  UNL1        0.0830
     32 H          -0.4748    5.1675    1.0318 H       1  UNL1        0.0278
     33 H           0.1859    4.1476    2.4163 H       1  UNL1        0.0278
     34 H          -0.7205    3.5608    0.9737 H       1  UNL1        0.0278
     35 H           1.2212    2.1710    0.9529 H       1  UNL1        0.0628
@<TRIPOS>BOND
     1     1     2    1
     2     2     3   am
     3     3     4    2
     4     3     5    1
     5     5     6   ar
     6     6     7   ar
     7     7     8   ar
     8     8     9    1
     9     9    10   am
    10    10    11    2
    11    10    12    1
    12    12    13   ar
    13    13    14   ar
    14    14    15    1
    15    14    16   ar
    16    16    17   ar
    17    17    18   ar
    18    12    18   ar
    19     8    19   ar
    20    19    20    1
    21    19    21   ar
    22     5    21   ar
    23     1    22    1
    24     1    23    1
    25     1    24    1
    26     2    25    1
    27     6    26    1
    28     7    27    1
    29     9    28    1
    30    13    29    1
    31    16    30    1
    32    17    31    1
    33    20    32    1
    34    20    33    1
    35    20    34    1
    36    21    35    1
