@<TRIPOS>MOLECULE
*****
 72 73 0 0 0
SMALL
GASTEIGER

@<TRIPOS>ATOM
      1 C           0.9351   -0.0777    0.0911 C.3     1  UNL1       -0.0653
      2 C           2.4459   -0.0639    0.2101 C.3     1  UNL1       -0.0559
      3 C           3.0660   -1.0423   -0.7506 C.3     1  UNL1       -0.0533
      4 C           4.6001   -1.0129   -0.6424 C.3     1  UNL1       -0.0516
      5 C           5.1495   -2.0592   -1.5770 C.3     1  UNL1       -0.0371
      6 C           6.6213   -2.1840   -1.8964 C.3     1  UNL1        0.0158
      7 N           6.9593   -2.9499   -3.1836 N.am    1  UNL1       -0.2854
      8 C           6.0814   -3.4607   -4.1891 C.2     1  UNL1        0.2208
      9 O           6.5099   -4.1572   -5.1233 O.2     1  UNL1       -0.2752
     10 C           4.5748   -3.1948   -4.2011 C.3     1  UNL1        0.0496
     11 C           4.1465   -1.7234   -4.4185 C.ar    1  UNL1       -0.0357
     12 C           2.8271   -1.3696   -4.1138 C.ar    1  UNL1       -0.0579
     13 C           2.4923   -0.0140   -3.9139 C.ar    1  UNL1       -0.0615
     14 C           3.4618    0.9892   -3.9116 C.ar    1  UNL1       -0.0615
     15 C           4.7562    0.6670   -4.2019 C.ar    1  UNL1       -0.0586
     16 C           5.0722   -0.6409   -4.5354 C.ar    1  UNL1       -0.0468
     17 C           6.5040   -0.7864   -4.8179 C.3     1  UNL1       -0.0394
     18 C           8.4323   -3.1437   -3.4918 C.3     1  UNL1        0.1341
     19 C           9.0005   -2.4759   -4.9266 C.2     1  UNL1        0.2383
     20 O           8.3229   -2.1047   -5.8518 O.2     1  UNL1       -0.2734
     21 N          10.3650   -2.2925   -5.1423 N.am    1  UNL1       -0.3135
     22 C          10.7251   -1.7491   -6.4582 C.3     1  UNL1        0.0116
     23 C          12.2040   -1.9241   -6.7151 C.3     1  UNL1       -0.0376
     24 C          12.6025   -1.3082   -8.0482 C.3     1  UNL1       -0.0545
     25 C          14.0911   -1.4866   -8.2697 C.3     1  UNL1       -0.0652
     26 C           8.8323   -4.6094   -3.3519 C.ar    1  UNL1        0.0648
     27 C          10.1551   -5.0150   -3.5597 C.ar    1  UNL1        0.1292
     28 O          11.2134   -4.1447   -3.6062 O.3     1  UNL1       -0.5062
     29 C          10.4783   -6.3596   -3.7092 C.ar    1  UNL1        0.0219
     30 C           9.4749   -7.3181   -3.6251 C.ar    1  UNL1        0.1238
     31 O           9.7260   -8.6499   -3.7280 O.3     1  UNL1       -0.5065
     32 C           8.1756   -6.9663   -3.3457 C.ar    1  UNL1        0.0219
     33 C           7.8878   -5.6367   -3.1188 C.ar    1  UNL1        0.1292
     34 O           6.6373   -5.4204   -2.5958 O.3     1  UNL1       -0.5062
     35 H           0.5065    0.5829    0.8472 H       1  UNL1        0.0230
     36 H           0.5419   -1.0883    0.2389 H       1  UNL1        0.0230
     37 H           0.6086    0.2702   -0.8960 H       1  UNL1        0.0230
     38 H           2.7587   -0.3320    1.2203 H       1  UNL1        0.0263
     39 H           2.8179    0.9424   -0.0168 H       1  UNL1        0.0263
     40 H           2.7412   -0.7228   -1.7297 H       1  UNL1        0.0265
     41 H           2.6654   -2.0583   -0.6449 H       1  UNL1        0.0265
     42 H           4.9283   -1.2033    0.3745 H       1  UNL1        0.0266
     43 H           4.9430   -0.0172   -0.9600 H       1  UNL1        0.0266
     44 H           4.7640   -1.6257   -2.4542 H       1  UNL1        0.0280
     45 H           4.6759   -3.0303   -1.4322 H       1  UNL1        0.0280
     46 H           7.1488   -2.6291   -1.0475 H       1  UNL1        0.0465
     47 H           7.0335   -1.1705   -1.9908 H       1  UNL1        0.0465
     48 H           4.1577   -3.6433   -3.2851 H       1  UNL1        0.0407
     49 H           4.1202   -3.8182   -4.9849 H       1  UNL1        0.0407
     50 H           2.1025   -2.1309   -3.8200 H       1  UNL1        0.0620
     51 H           1.4990    0.2476   -3.5649 H       1  UNL1        0.0618
     52 H           3.2461    2.0089   -3.6224 H       1  UNL1        0.0618
     53 H           5.5621    1.3938   -4.1141 H       1  UNL1        0.0620
     54 H           7.0508    0.0920   -5.1503 H       1  UNL1        0.0278
     55 H           6.4987   -1.5527   -5.5764 H       1  UNL1        0.0278
     56 H           7.0479   -0.9982   -3.9141 H       1  UNL1        0.0278
     57 H           8.9598   -2.5831   -2.7062 H       1  UNL1        0.0650
     58 H          10.9367   -3.0880   -4.8974 H       1  UNL1        0.1487
     59 H          10.4362   -0.6902   -6.4900 H       1  UNL1        0.0462
     60 H          10.1595   -2.2678   -7.2459 H       1  UNL1        0.0462
     61 H          12.4417   -2.9956   -6.7144 H       1  UNL1        0.0280
     62 H          12.7701   -1.4671   -5.8969 H       1  UNL1        0.0280
     63 H          12.3516   -0.2411   -8.0579 H       1  UNL1        0.0263
     64 H          12.0468   -1.7804   -8.8676 H       1  UNL1        0.0263
     65 H          14.6581   -1.0094   -7.4639 H       1  UNL1        0.0230
     66 H          14.3913   -1.0371   -9.2191 H       1  UNL1        0.0230
     67 H          14.3530   -2.5495   -8.2893 H       1  UNL1        0.0230
     68 H          11.0008   -3.3351   -3.1028 H       1  UNL1        0.2922
     69 H          11.5123   -6.6355   -3.8763 H       1  UNL1        0.0691
     70 H          10.6818   -8.7674   -3.8291 H       1  UNL1        0.2921
     71 H           7.3986   -7.7161   -3.2538 H       1  UNL1        0.0691
     72 H           6.0136   -5.8876   -3.1829 H       1  UNL1        0.2922
@<TRIPOS>BOND
     1     1     2    1
     2     2     3    1
     3     3     4    1
     4     4     5    1
     5     5     6    1
     6     6     7    1
     7     7     8   am
     8     8     9    2
     9     8    10    1
    10    10    11    1
    11    11    12   ar
    12    12    13   ar
    13    13    14   ar
    14    14    15   ar
    15    15    16   ar
    16    11    16   ar
    17    16    17    1
    18     7    18    1
    19    18    19    1
    20    19    20    2
    21    19    21   am
    22    21    22    1
    23    22    23    1
    24    23    24    1
    25    24    25    1
    26    18    26    1
    27    26    27   ar
    28    27    28    1
    29    27    29   ar
    30    29    30   ar
    31    30    31    1
    32    30    32   ar
    33    32    33   ar
    34    26    33   ar
    35    33    34    1
    36     1    35    1
    37     1    36    1
    38     1    37    1
    39     2    38    1
    40     2    39    1
    41     3    40    1
    42     3    41    1
    43     4    42    1
    44     4    43    1
    45     5    44    1
    46     5    45    1
    47     6    46    1
    48     6    47    1
    49    10    48    1
    50    10    49    1
    51    12    50    1
    52    13    51    1
    53    14    52    1
    54    15    53    1
    55    17    54    1
    56    17    55    1
    57    17    56    1
    58    18    57    1
    59    21    58    1
    60    22    59    1
    61    22    60    1
    62    23    61    1
    63    23    62    1
    64    24    63    1
    65    24    64    1
    66    25    65    1
    67    25    66    1
    68    25    67    1
    69    28    68    1
    70    29    69    1
    71    31    70    1
    72    32    71    1
    73    34    72    1
