@<TRIPOS>MOLECULE
*****
 40 43 0 0 0
SMALL
GASTEIGER

@<TRIPOS>ATOM
      1 O           1.0542   -0.1847   -0.0535 O.2     1  UNL1       -0.2684
      2 C           2.2726   -0.0282   -0.0227 C.2     1  UNL1        0.2653
      3 N           2.9802    0.9277   -0.7450 N.am    1  UNL1       -0.2029
      4 N           2.3622    1.7822   -1.6305 N.2     1  UNL1       -0.1873
      5 C           3.0794    2.5598   -2.3995 C.2     1  UNL1        0.0569
      6 C           4.5541    2.5650   -2.5593 C.ar    1  UNL1        0.0436
      7 C           5.2022    1.3275   -2.6676 C.ar    1  UNL1        0.1261
      8 O           4.5358    0.1300   -2.6630 O.3     1  UNL1       -0.5061
      9 C           6.5799    1.2499   -2.7533 C.ar    1  UNL1       -0.0189
     10 C           7.3292    2.4187   -2.8207 C.ar    1  UNL1       -0.0505
     11 C           6.7114    3.6774   -2.7779 C.ar    1  UNL1       -0.0170
     12 C           7.5011    4.8349   -2.8710 C.ar    1  UNL1       -0.0540
     13 C           6.9256    6.1007   -2.8076 C.ar    1  UNL1       -0.0612
     14 C           5.5521    6.2229   -2.6386 C.ar    1  UNL1       -0.0611
     15 C           4.7483    5.0796   -2.5502 C.ar    1  UNL1       -0.0533
     16 C           5.2998    3.7764   -2.6312 C.ar    1  UNL1       -0.0057
     17 C           3.1212   -0.9485    0.7965 C.ar    1  UNL1        0.0622
     18 C           2.7725   -2.3058    0.9419 C.ar    1  UNL1       -0.0476
     19 C           3.5728   -3.1920    1.6703 C.ar    1  UNL1       -0.0604
     20 C           4.7390   -2.7466    2.2970 C.ar    1  UNL1       -0.0525
     21 C           5.0821   -1.3849    2.2189 C.ar    1  UNL1        0.0004
     22 C           6.1363   -0.6176    2.7825 C.ar    1  UNL1       -0.0366
     23 C           5.9441    0.6907    2.4105 C.ar    1  UNL1        0.0027
     24 N           4.8279    0.7435    1.6220 N.ar    1  UNL1       -0.3601
     25 C           4.2770   -0.5138    1.4764 C.ar    1  UNL1        0.0588
     26 H           3.9929    0.8516   -0.7566 H       1  UNL1        0.1776
     27 H           2.5272    3.2730   -3.0400 H       1  UNL1        0.0853
     28 H           3.5662    0.2877   -2.6037 H       1  UNL1        0.2922
     29 H           7.0658    0.2787   -2.7728 H       1  UNL1        0.0654
     30 H           8.4103    2.3334   -2.9148 H       1  UNL1        0.0625
     31 H           8.5808    4.7600   -2.9951 H       1  UNL1        0.0624
     32 H           7.5513    6.9870   -2.8850 H       1  UNL1        0.0618
     33 H           5.1033    7.2117   -2.5755 H       1  UNL1        0.0618
     34 H           3.6792    5.2269   -2.4124 H       1  UNL1        0.0624
     35 H           1.8633   -2.6837    0.4764 H       1  UNL1        0.0626
     36 H           3.2909   -4.2392    1.7624 H       1  UNL1        0.0618
     37 H           5.3589   -3.4361    2.8652 H       1  UNL1        0.0624
     38 H           6.9282   -0.9857    3.4217 H       1  UNL1        0.0638
     39 H           6.4948    1.5885    2.6548 H       1  UNL1        0.0807
     40 H           4.4365    1.5906    1.2310 H       1  UNL1        0.1654
@<TRIPOS>BOND
     1     1     2    2
     2     2     3   am
     3     3     4    1
     4     4     5    2
     5     5     6    1
     6     6     7   ar
     7     7     8    1
     8     7     9   ar
     9     9    10   ar
    10    10    11   ar
    11    11    12   ar
    12    12    13   ar
    13    13    14   ar
    14    14    15   ar
    15    15    16   ar
    16     6    16   ar
    17    11    16   ar
    18     2    17    1
    19    17    18   ar
    20    18    19   ar
    21    19    20   ar
    22    20    21   ar
    23    21    22   ar
    24    22    23   ar
    25    23    24   ar
    26    24    25   ar
    27    17    25   ar
    28    21    25   ar
    29     3    26    1
    30     5    27    1
    31     8    28    1
    32     9    29    1
    33    10    30    1
    34    12    31    1
    35    13    32    1
    36    14    33    1
    37    15    34    1
    38    18    35    1
    39    19    36    1
    40    20    37    1
    41    22    38    1
    42    23    39    1
    43    24    40    1
