@<TRIPOS>MOLECULE
*****
 48 50 0 0 0
SMALL
GASTEIGER

@<TRIPOS>ATOM
      1 C           2.4922   -0.0328   -0.0130 C.3     1  UNL1       -0.0397
      2 C           0.9942   -0.0359    0.0023 C.ar    1  UNL1       -0.0503
      3 C           0.2288   -1.2082    0.0031 C.ar    1  UNL1       -0.0571
      4 C          -1.1837   -1.1526   -0.0030 C.ar    1  UNL1       -0.0402
      5 C          -1.8467    0.0843   -0.0098 C.ar    1  UNL1        0.0334
      6 N          -3.2741    0.1594   -0.0342 N.am    1  UNL1       -0.2842
      7 C          -3.9971    1.3562   -0.0562 C.2     1  UNL1        0.2343
      8 O          -3.5059    2.4887   -0.0610 O.2     1  UNL1       -0.2738
      9 C          -5.5322    1.2509   -0.0768 C.3     1  UNL1        0.0861
     10 N          -6.0895    2.6144   -0.1136 N.pl3   1  UNL1       -0.3354
     11 C          -7.4300    2.9135   -0.1057 C.ar    1  UNL1        0.0275
     12 C          -8.3240    2.2032    0.6909 C.ar    1  UNL1       -0.0401
     13 C          -9.7019    2.4572    0.6649 C.ar    1  UNL1       -0.0479
     14 C         -10.2383    3.4234   -0.1916 C.ar    1  UNL1        0.0368
     15 C         -11.7164    3.7043   -0.2782 C.2     1  UNL1        0.2444
     16 O         -12.1436    4.5277   -1.0893 O.2     1  UNL1       -0.2702
     17 N         -12.5574    3.0076    0.5630 N.am    1  UNL1       -0.3042
     18 C         -14.0035    3.1893    0.5628 C.3     1  UNL1        0.0700
     19 C         -14.5895    2.1817    1.4923 C.ar    1  UNL1        0.1218
     20 C         -14.4463    0.8100    1.5445 C.ar    1  UNL1       -0.0192
     21 C         -15.1567    0.3666    2.6791 C.ar    1  UNL1       -0.0236
     22 C         -15.7357    1.4873    3.2280 C.ar    1  UNL1        0.0921
     23 O         -15.3942    2.5997    2.5160 O.2     1  UNL1       -0.4662
     24 C          -9.3468    4.1425   -1.0036 C.ar    1  UNL1       -0.0479
     25 C          -7.9593    3.8963   -0.9504 C.ar    1  UNL1       -0.0401
     26 C          -1.0546    1.2344    0.0040 C.ar    1  UNL1       -0.0402
     27 C           0.3349    1.1849    0.0066 C.ar    1  UNL1       -0.0571
     28 H           2.9008   -1.0458    0.0003 H       1  UNL1        0.0278
     29 H           2.8749    0.5038    0.8626 H       1  UNL1        0.0278
     30 H           2.8530    0.4717   -0.9167 H       1  UNL1        0.0278
     31 H           0.7318   -2.1740    0.0046 H       1  UNL1        0.0621
     32 H          -1.7274   -2.0944   -0.0049 H       1  UNL1        0.0636
     33 H          -3.7759   -0.7212   -0.0518 H       1  UNL1        0.1549
     34 H          -5.8576    0.7163    0.8191 H       1  UNL1        0.0557
     35 H          -5.8366    0.7103   -0.9786 H       1  UNL1        0.0557
     36 H          -5.4007    3.3613   -0.2242 H       1  UNL1        0.1466
     37 H          -7.9465    1.4637    1.3905 H       1  UNL1        0.0636
     38 H         -10.3156    1.8707    1.3348 H       1  UNL1        0.0626
     39 H         -12.1913    2.3525    1.2340 H       1  UNL1        0.1495
     40 H         -14.3716    3.0071   -0.4528 H       1  UNL1        0.0543
     41 H         -14.2382    4.2218    0.8393 H       1  UNL1        0.0543
     42 H         -13.8631    0.2259    0.8483 H       1  UNL1        0.0652
     43 H         -15.2362   -0.6461    3.0481 H       1  UNL1        0.0649
     44 H         -16.3738    1.6456    4.0881 H       1  UNL1        0.1029
     45 H          -9.7225    4.8972   -1.6939 H       1  UNL1        0.0626
     46 H          -7.2993    4.4647   -1.6050 H       1  UNL1        0.0636
     47 H          -1.4710    2.2310    0.0096 H       1  UNL1        0.0636
     48 H           0.8833    2.1237    0.0076 H       1  UNL1        0.0621
@<TRIPOS>BOND
     1     1     2    1
     2     2     3   ar
     3     3     4   ar
     4     4     5   ar
     5     5     6    1
     6     6     7   am
     7     7     8    2
     8     7     9    1
     9     9    10    1
    10    10    11    1
    11    11    12   ar
    12    12    13   ar
    13    13    14   ar
    14    14    15    1
    15    15    16    2
    16    15    17   am
    17    17    18    1
    18    18    19    1
    19    19    20   ar
    20    20    21   ar
    21    21    22   ar
    22    22    23   ar
    23    19    23   ar
    24    14    24   ar
    25    24    25   ar
    26    11    25   ar
    27     5    26   ar
    28    26    27   ar
    29     2    27   ar
    30     1    28    1
    31     1    29    1
    32     1    30    1
    33     3    31    1
    34     4    32    1
    35     6    33    1
    36     9    34    1
    37     9    35    1
    38    10    36    1
    39    12    37    1
    40    13    38    1
    41    17    39    1
    42    18    40    1
    43    18    41    1
    44    20    42    1
    45    21    43    1
    46    22    44    1
    47    24    45    1
    48    25    46    1
    49    26    47    1
    50    27    48    1
