@<TRIPOS>MOLECULE
*****
 32 33 0 0 0
SMALL
GASTEIGER

@<TRIPOS>ATOM
      1 O           1.0129   -0.0669   -0.1125 O.2     1  UNL1       -0.2507
      2 C           2.2412    0.0540   -0.0279 C.2     1  UNL1        0.3233
      3 N           2.8916    0.8610    0.8923 N.am    1  UNL1       -0.1905
      4 N           2.1830    1.5769    1.8191 N.2     1  UNL1       -0.1865
      5 C           2.8442    2.3742    2.5985 C.2     1  UNL1        0.0528
      6 C           2.1153    3.1988    3.5941 C.ar    1  UNL1       -0.0052
      7 C           1.0411    2.6304    4.2882 C.ar    1  UNL1       -0.0497
      8 C           0.2725    3.4065    5.1623 C.ar    1  UNL1       -0.0196
      9 C           0.5817    4.7520    5.3322 C.ar    1  UNL1        0.1169
     10 O          -0.1517    5.5601    6.1509 O.3     1  UNL1       -0.5068
     11 C           1.6587    5.3230    4.6586 C.ar    1  UNL1       -0.0196
     12 C           2.4437    4.5436    3.7970 C.ar    1  UNL1       -0.0497
     13 N           3.0259   -0.5972   -0.9546 N.am    1  UNL1       -0.2681
     14 C           4.4176   -0.7685   -0.9810 C.ar    1  UNL1        0.0348
     15 C           5.0888   -0.8255   -2.2072 C.ar    1  UNL1       -0.0404
     16 C           6.4781   -0.9947   -2.2317 C.ar    1  UNL1       -0.0600
     17 C           7.1944   -1.0793   -1.0372 C.ar    1  UNL1       -0.0616
     18 C           6.5208   -1.0618    0.1799 C.ar    1  UNL1       -0.0600
     19 C           5.1361   -0.9358    0.2026 C.ar    1  UNL1       -0.0404
     20 H           3.8847    1.0254    0.7993 H       1  UNL1        0.1788
     21 H           3.9437    2.4872    2.5567 H       1  UNL1        0.0851
     22 H           0.7973    1.5809    4.1385 H       1  UNL1        0.0625
     23 H          -0.5658    2.9475    5.6767 H       1  UNL1        0.0654
     24 H          -0.8671    5.0423    6.5562 H       1  UNL1        0.2921
     25 H           1.8674    6.3819    4.7927 H       1  UNL1        0.0654
     26 H           3.2646    5.0136    3.2635 H       1  UNL1        0.0625
     27 H           2.4864   -1.0231   -1.6998 H       1  UNL1        0.1564
     28 H           4.5611   -0.6851   -3.1484 H       1  UNL1        0.0636
     29 H           7.0079   -1.0545   -3.1800 H       1  UNL1        0.0618
     30 H           8.2770   -1.1736   -1.0522 H       1  UNL1        0.0618
     31 H           7.0628   -1.1674    1.1147 H       1  UNL1        0.0618
     32 H           4.6194   -1.0143    1.1555 H       1  UNL1        0.0636
@<TRIPOS>BOND
     1     1     2    2
     2     2     3   am
     3     3     4    1
     4     4     5    2
     5     5     6    1
     6     6     7   ar
     7     7     8   ar
     8     8     9   ar
     9     9    10    1
    10     9    11   ar
    11    11    12   ar
    12     6    12   ar
    13     2    13   am
    14    13    14    1
    15    14    15   ar
    16    15    16   ar
    17    16    17   ar
    18    17    18   ar
    19    18    19   ar
    20    14    19   ar
    21     3    20    1
    22     5    21    1
    23     7    22    1
    24     8    23    1
    25    10    24    1
    26    11    25    1
    27    12    26    1
    28    13    27    1
    29    15    28    1
    30    16    29    1
    31    17    30    1
    32    18    31    1
    33    19    32    1
