REMARK  5 active torsions:
REMARK  status: ('A' for Active; 'I' for Inactive)
REMARK    1  A    between atoms: C_5  and  C_6 
REMARK       I    between atoms: C_6  and  N_8 
REMARK    2  A    between atoms: N_8  and  N_9 
REMARK       I    between atoms: N_9  and  C_10 
REMARK    3  A    between atoms: C_10  and  C_12 
REMARK    4  A    between atoms: C_13  and  C_12 
REMARK    5  A    between atoms: C_18  and  O_19 
ROOT
ATOM      1  C   UNL d   1      -5.629  -3.223   0.752  0.00  0.00     0.272 C 
ATOM      2  O   UNL d   1      -6.167  -3.928   1.616  0.00  0.00    -0.266 OA
ATOM      3  N   UNL d   1      -4.818  -3.764  -0.233  0.00  0.00    -0.263 N 
ATOM      4  H   UNL d   1      -4.346  -3.247  -0.972  0.00  0.00     0.190 HD
ENDROOT
BRANCH   3   5
ATOM      5  N   UNL d   1      -4.553  -5.140  -0.209  0.00  0.00    -0.267 N 
ATOM      6  C   UNL d   1      -3.757  -5.693  -1.186  0.00  0.00     0.236 C 
ATOM      7  O   UNL d   1      -3.239  -5.000  -2.068  0.00  0.00    -0.272 OA
ATOM      8  H   UNL d   1      -5.019  -5.660   0.529  0.00  0.00     0.190 HD
BRANCH   6   9
ATOM      9  C   UNL d   1      -3.536  -7.201  -1.152  0.00  0.00     0.113 C 
BRANCH   9  10
ATOM     10  C   UNL d   1      -4.497  -8.023  -0.281  0.00  0.00     0.017 C 
ATOM     11  C   UNL d   1      -4.074  -8.515   1.078  0.00  0.00    -0.026 C 
ATOM     12  C   UNL d   1      -4.144  -9.849   1.172  0.00  0.00    -0.030 C 
ATOM     13  C   UNL d   1      -4.466 -10.489  -0.131  0.00  0.00     0.027 C 
ATOM     14  C   UNL d   1      -4.886  -9.320  -1.009  0.00  0.00     0.012 C 
ENDBRANCH   9  10
ENDBRANCH   6   9
ENDBRANCH   3   5
BRANCH   1  15
ATOM     15  C   UNL d   1      -5.851  -1.742   0.767  0.00  0.00     0.066 A 
ATOM     16  C   UNL d   1      -5.250  -0.903  -0.183  0.00  0.00     0.020 A 
ATOM     17  C   UNL d   1      -5.472   0.482  -0.168  0.00  0.00     0.008 A 
ATOM     18  C   UNL d   1      -6.308   1.058   0.790  0.00  0.00    -0.059 A 
ATOM     19  C   UNL d   1      -6.584   2.533   0.815  0.00  0.00     0.048 C 
ATOM     20  C   UNL d   1      -6.903   0.231   1.748  0.00  0.00     0.044 A 
ATOM     21  C   UNL d   1      -6.673  -1.149   1.743  0.00  0.00     0.082 A 
BRANCH  21  22
ATOM     22  O   UNL d   1      -7.300  -1.842   2.746  0.00  0.00    -0.360 OA
ATOM     23  H   UNL d   1      -7.068  -2.791   2.660  0.00  0.00     0.217 HD
ENDBRANCH  21  22
ENDBRANCH   1  15
TORSDOF 5
