REMARK  5 active torsions:
REMARK  status: ('A' for Active; 'I' for Inactive)
REMARK    1  A    between atoms: N_8  and  C_9 
REMARK    2  A    between atoms: C_18  and  C_19 
REMARK    3  A    between atoms: C_19  and  N_20 
REMARK    4  A    between atoms: N_20  and  C_21 
REMARK    5  A    between atoms: C_24  and  O_25 
ROOT
ATOM      1  C   UNL d   1       0.975  -0.056  -0.005  0.00  0.00     0.051 C 
ATOM      2  C   UNL d   1       2.479  -0.027   0.009  0.00  0.00    -0.020 C 
ATOM      3  C   UNL d   1       3.255   1.081  -0.017  0.00  0.00     0.106 C 
ATOM      4  C   UNL d   1       2.521   2.412  -0.002  0.00  0.00     0.026 C 
ATOM      5  N   UNL d   1       1.913   3.516   0.010  0.00  0.00    -0.096 N 
ATOM      6  C   UNL d   1       4.718   1.107   0.005  0.00  0.00     0.271 C 
ATOM      7  O   UNL d   1       5.322   2.173  -0.024  0.00  0.00    -0.266 OA
ATOM      8  N   UNL d   1       5.310  -0.139   0.013  0.00  0.00    -0.274 N 
ATOM      9  C   UNL d   1       4.562  -1.265  -0.251  0.00  0.00     0.263 C 
ATOM     10  O   UNL d   1       4.986  -2.231  -0.879  0.00  0.00    -0.267 OA
ATOM     11  C   UNL d   1       3.127  -1.303   0.018  0.00  0.00     0.055 C 
ENDROOT
BRANCH  11  12
ATOM     12  C   UNL d   1       2.574  -2.540   0.049  0.00  0.00     0.106 C 
BRANCH  12  13
ATOM     13  N   UNL d   1       3.222  -3.764   0.085  0.00  0.00    -0.365 N 
ATOM     14  H   UNL d   1       4.248  -3.733   0.130  0.00  0.00     0.165 HD
BRANCH  13  15
ATOM     15  C   UNL d   1       2.670  -5.046  -0.019  0.00  0.00     0.032 A 
ATOM     16  C   UNL d   1       1.583  -5.310  -0.858  0.00  0.00     0.032 A 
ATOM     17  C   UNL d   1       0.968  -6.564  -0.867  0.00  0.00     0.039 A 
ATOM     18  C   UNL d   1       1.439  -7.559  -0.018  0.00  0.00     0.065 A 
ATOM     19  C   UNL d   1       2.522  -7.322   0.820  0.00  0.00     0.039 A 
ATOM     20  C   UNL d   1       3.147  -6.073   0.807  0.00  0.00     0.032 A 
BRANCH  18  21
ATOM     21  O   UNL d   1       0.864  -8.794   0.031  0.00  0.00    -0.361 OA
ATOM     22  H   UNL d   1       0.146  -8.835  -0.620  0.00  0.00     0.217 HD
ENDBRANCH  18  21
ENDBRANCH  13  15
ENDBRANCH  12  13
ENDBRANCH  11  12
BRANCH   8  23
ATOM     23  C   UNL d   1       6.786  -0.194  -0.021  0.00  0.00     0.111 C 
ATOM     24  C   UNL d   1       7.371  -0.881  -1.267  0.00  0.00     0.042 C 
ATOM     25  C   UNL d   1       7.365  -2.410  -1.058  0.00  0.00     0.142 C 
ATOM     26  S   UNL d   1       7.276  -2.655   0.771  0.00  0.00     0.146 S 
ATOM     27  O   UNL d   1       5.995  -3.124   1.271  0.00  0.00    -0.228 OA
ATOM     28  O   UNL d   1       8.496  -3.297   1.208  0.00  0.00    -0.228 OA
ATOM     29  C   UNL d   1       7.364  -0.925   1.187  0.00  0.00     0.166 C 
ENDBRANCH   8  23
TORSDOF 5
