@<TRIPOS>MOLECULE
*****
 69 71 0 0 0
SMALL
GASTEIGER

@<TRIPOS>ATOM
      1 C           0.9582   -0.0418   -0.1134 C.3     1  UNL1       -0.0652
      2 C           2.4625   -0.0621   -0.0731 C.3     1  UNL1       -0.0545
      3 C           2.8499   -0.7363    1.2270 C.3     1  UNL1       -0.0376
      4 C           4.3190   -0.7668    1.3275 C.3     1  UNL1        0.0116
      5 N           4.7606   -1.3717    2.5789 N.am    1  UNL1       -0.3135
      6 C           6.1061   -1.4623    2.6689 C.2     1  UNL1        0.2381
      7 O           6.5609   -0.8408    1.6873 O.2     1  UNL1       -0.2734
      8 C           6.9804   -2.1965    3.8043 C.3     1  UNL1        0.1276
      9 C           6.4929   -3.6507    3.9246 C.ar    1  UNL1       -0.0148
     10 C           5.1519   -3.9417    4.2078 C.ar    1  UNL1       -0.0561
     11 C           4.6954   -5.2567    4.2434 C.ar    1  UNL1       -0.0580
     12 C           5.5941   -6.3123    4.1102 C.ar    1  UNL1       -0.0202
     13 C           6.9373   -6.0389    3.9114 C.ar    1  UNL1        0.1172
     14 O           7.8868   -7.0094    3.8113 O.3     1  UNL1       -0.5068
     15 C           7.3763   -4.7340    3.7886 C.ar    1  UNL1       -0.0148
     16 N           8.5391   -2.1621    3.8402 N.am    1  UNL1       -0.2830
     17 C           9.4030   -1.7497    2.6936 C.3     1  UNL1        0.0156
     18 C           8.7288   -1.0190    1.6226 C.3     1  UNL1       -0.0400
     19 C           9.3496   -0.3617    0.4465 C.3     1  UNL1       -0.0639
     20 C           9.1596   -2.6666    5.0329 C.2     1  UNL1        0.2574
     21 O           8.4706   -2.9952    6.0061 O.2     1  UNL1       -0.2716
     22 C          10.7719   -2.7109    5.0912 C.3     1  UNL1        0.1924
     23 O          11.3579   -3.5122    4.0571 O.3     1  UNL1       -0.3711
     24 C          11.3119   -1.2603    5.0559 C.ar    1  UNL1       -0.0027
     25 C          12.6833   -1.0045    5.1509 C.ar    1  UNL1       -0.0550
     26 C          13.1228    0.3091    5.3056 C.ar    1  UNL1       -0.0614
     27 C          12.2391    1.3811    5.1563 C.ar    1  UNL1       -0.0617
     28 C          10.8879    1.1507    4.9900 C.ar    1  UNL1       -0.0614
     29 C          10.4309   -0.1496    5.0584 C.ar    1  UNL1       -0.0550
     30 C          11.2028   -3.4194    6.3877 C.ar    1  UNL1       -0.0027
     31 C          11.1855   -4.8213    6.4855 C.ar    1  UNL1       -0.0550
     32 C          11.3661   -5.4341    7.7235 C.ar    1  UNL1       -0.0614
     33 C          11.6715   -4.6680    8.8485 C.ar    1  UNL1       -0.0617
     34 C          11.7724   -3.2873    8.7502 C.ar    1  UNL1       -0.0614
     35 C          11.5192   -2.6717    7.5367 C.ar    1  UNL1       -0.0550
     36 H           0.6035    0.4357   -1.0252 H       1  UNL1        0.0230
     37 H           0.5749    0.5049    0.7545 H       1  UNL1        0.0230
     38 H           0.5754   -1.0665   -0.0673 H       1  UNL1        0.0230
     39 H           2.8681    0.9575   -0.1209 H       1  UNL1        0.0263
     40 H           2.8711   -0.6066   -0.9349 H       1  UNL1        0.0263
     41 H           2.4835   -1.7661    1.2682 H       1  UNL1        0.0280
     42 H           2.4641   -0.1878    2.0907 H       1  UNL1        0.0280
     43 H           4.7249    0.2584    1.2544 H       1  UNL1        0.0462
     44 H           4.7441   -1.3359    0.4794 H       1  UNL1        0.0462
     45 H           4.0986   -1.7135    3.2543 H       1  UNL1        0.1487
     46 H           6.6942   -1.6829    4.7385 H       1  UNL1        0.0648
     47 H           4.4333   -3.1582    4.4111 H       1  UNL1        0.0621
     48 H           3.6359   -5.4458    4.3883 H       1  UNL1        0.0619
     49 H           5.2312   -7.3297    4.1756 H       1  UNL1        0.0654
     50 H           7.4609   -7.8741    3.9037 H       1  UNL1        0.2921
     51 H           8.4406   -4.5941    3.6313 H       1  UNL1        0.0657
     52 H           9.8530   -2.6323    2.2568 H       1  UNL1        0.0465
     53 H          10.1788   -1.0635    3.0001 H       1  UNL1        0.0465
     54 H           8.2704   -0.1765    2.1648 H       1  UNL1        0.0278
     55 H           8.1335   -1.8283    1.1793 H       1  UNL1        0.0278
     56 H           9.9284    0.5037    0.7628 H       1  UNL1        0.0230
     57 H           8.5206   -0.0079   -0.1862 H       1  UNL1        0.0230
     58 H           9.9389   -1.0821   -0.1108 H       1  UNL1        0.0230
     59 H          11.2884   -3.0619    3.2109 H       1  UNL1        0.2116
     60 H          13.3906   -1.8303    5.2234 H       1  UNL1        0.0621
     61 H          14.1575    0.4987    5.5710 H       1  UNL1        0.0618
     62 H          12.5976    2.4027    5.1971 H       1  UNL1        0.0618
     63 H          10.1738    1.9558    4.8457 H       1  UNL1        0.0618
     64 H           9.3499   -0.2647    5.0343 H       1  UNL1        0.0621
     65 H          10.9862   -5.4374    5.6089 H       1  UNL1        0.0621
     66 H          11.2312   -6.5073    7.8160 H       1  UNL1        0.0618
     67 H          11.8155   -5.1450    9.8110 H       1  UNL1        0.0618
     68 H          11.9984   -2.6725    9.6148 H       1  UNL1        0.0618
     69 H          11.5525   -1.5858    7.5094 H       1  UNL1        0.0621
@<TRIPOS>BOND
     1     1     2    1
     2     2     3    1
     3     3     4    1
     4     4     5    1
     5     5     6   am
     6     6     7    2
     7     6     8    1
     8     8     9    1
     9     9    10   ar
    10    10    11   ar
    11    11    12   ar
    12    12    13   ar
    13    13    14    1
    14    13    15   ar
    15     9    15   ar
    16     8    16    1
    17    16    17    1
    18    17    18    1
    19    18    19    1
    20    16    20   am
    21    20    21    2
    22    20    22    1
    23    22    23    1
    24    22    24    1
    25    24    25   ar
    26    25    26   ar
    27    26    27   ar
    28    27    28   ar
    29    28    29   ar
    30    24    29   ar
    31    22    30    1
    32    30    31   ar
    33    31    32   ar
    34    32    33   ar
    35    33    34   ar
    36    34    35   ar
    37    30    35   ar
    38     1    36    1
    39     1    37    1
    40     1    38    1
    41     2    39    1
    42     2    40    1
    43     3    41    1
    44     3    42    1
    45     4    43    1
    46     4    44    1
    47     5    45    1
    48     8    46    1
    49    10    47    1
    50    11    48    1
    51    12    49    1
    52    14    50    1
    53    15    51    1
    54    17    52    1
    55    17    53    1
    56    18    54    1
    57    18    55    1
    58    19    56    1
    59    19    57    1
    60    19    58    1
    61    23    59    1
    62    25    60    1
    63    26    61    1
    64    27    62    1
    65    28    63    1
    66    29    64    1
    67    31    65    1
    68    32    66    1
    69    33    67    1
    70    34    68    1
    71    35    69    1
