REMARK  6 active torsions:
REMARK  status: ('A' for Active; 'I' for Inactive)
REMARK       I    between atoms: N_2  and  C_3 
REMARK    1  A    between atoms: C_3  and  C_5 
REMARK    2  A    between atoms: C_8  and  N_9 
REMARK       I    between atoms: N_9  and  C_10 
REMARK    3  A    between atoms: C_10  and  C_12 
REMARK    4  A    between atoms: C_12  and  N_13 
REMARK    5  A    between atoms: N_13  and  C_14 
REMARK    6  A    between atoms: C_20  and  S_21 
ROOT
ATOM      1  N   UNL d   1       9.008   1.145   0.922  0.00  0.00    -0.326 N 
ATOM      2  C   UNL d   1       9.688   1.418  -0.281  0.00  0.00     0.235 C 
ATOM      3  O   UNL d   1       9.178   1.303  -1.401  0.00  0.00    -0.272 OA
ATOM      4  H   UNL d   1       9.540   0.968   1.769  0.00  0.00     0.169 HD
ENDROOT
BRANCH   2   5
ATOM      5  C   UNL d   1      11.180   1.837  -0.233  0.00  0.00     0.195 C 
BRANCH   5   6
ATOM      6  N   UNL d   1      11.733   1.930  -1.578  0.00  0.00    -0.283 NA
ATOM      7  H   UNL d   1      11.112   1.546  -2.301  0.00  0.00     0.128 HD
BRANCH   6   8
ATOM      8  C   UNL d   1      13.080   1.573  -1.765  0.00  0.00     0.027 A 
ATOM      9  C   UNL d   1      13.706   2.459  -2.681  0.00  0.00     0.048 A 
ATOM     10  C   UNL d   1      15.036   2.335  -3.054  0.00  0.00     0.035 A 
ATOM     11 CL   UNL d   1      15.685   3.381  -4.254  0.00  0.00    -0.084 Cl
ATOM     12  C   UNL d   1      15.812   1.351  -2.474  0.00  0.00     0.025 A 
ATOM     13  C   UNL d   1      15.214   0.431  -1.593  0.00  0.00     0.022 A 
ATOM     14  C   UNL d   1      13.828   0.479  -1.235  0.00  0.00     0.021 A 
BRANCH  14  15
ATOM     15  S   UNL d   1      13.418  -0.953  -0.126  0.00  0.00    -0.133 SA
ATOM     16  C   UNL d   1      11.653  -0.975   0.399  0.00  0.00     0.095 C 
ENDBRANCH  14  15
ENDBRANCH   6   8
ENDBRANCH   5   6
ENDBRANCH   2   5
BRANCH   1  17
ATOM     17  C   UNL d   1       7.580   0.965   1.013  0.00  0.00     0.034 A 
ATOM     18  C   UNL d   1       6.931   0.639   2.218  0.00  0.00     0.030 A 
ATOM     19  C   UNL d   1       5.518   0.458   2.254  0.00  0.00     0.019 A 
ATOM     20  C   UNL d   1       4.738   0.644   1.102  0.00  0.00     0.032 A 
ATOM     21  C   UNL d   1       5.373   0.989  -0.078  0.00  0.00     0.019 A 
ATOM     22  C   UNL d   1       6.760   1.153  -0.105  0.00  0.00     0.030 A 
BRANCH  20  23
ATOM     23  C   UNL d   1       3.244   0.645   1.160  0.00  0.00     0.251 C 
ATOM     24  N   UNL d   1       2.580   0.095   0.069  0.00  0.00    -0.361 N 
ATOM     25  C   UNL d   1       1.135   0.073   0.025  0.00  0.00     0.149 C 
ATOM     26  H   UNL d   1       3.094  -0.360  -0.672  0.00  0.00     0.162 HD
ATOM     27  O   UNL d   1       2.679   1.137   2.113  0.00  0.00    -0.268 OA
ENDBRANCH  20  23
ENDBRANCH   1  17
TORSDOF 6
