REMARK  5 active torsions:
REMARK  status: ('A' for Active; 'I' for Inactive)
REMARK    1  A    between atoms: S_2  and  C_3 
REMARK    2  A    between atoms: C_8  and  N_9 
REMARK       I    between atoms: N_9  and  C_10 
REMARK    3  A    between atoms: C_10  and  C_12 
REMARK    4  A    between atoms: C_12  and  N_14 
REMARK       I    between atoms: N_14  and  C_15 
REMARK    5  A    between atoms: C_15  and  C_17 
ROOT
ATOM      1  N   UNL d   1       5.562  -0.645   0.570  0.00  0.00    -0.324 N 
ATOM      2  C   UNL d   1       5.322   0.705   0.287  0.00  0.00     0.244 C 
ATOM      3  O   UNL d   1       4.426   1.171  -0.430  0.00  0.00    -0.271 OA
ATOM      4  H   UNL d   1       6.515  -0.893   0.818  0.00  0.00     0.169 HD
ENDROOT
BRANCH   2   5
ATOM      5  C   UNL d   1       6.340   1.776   0.665  0.00  0.00     0.173 C 
ATOM      6  C   UNL d   1       7.398   1.649  -0.420  0.00  0.00     0.042 C 
BRANCH   5   7
ATOM      7  N   UNL d   1       5.590   3.067   0.555  0.00  0.00    -0.344 N 
ATOM      8  C   UNL d   1       6.180   4.300   0.580  0.00  0.00     0.252 C 
ATOM      9  O   UNL d   1       7.385   4.452   0.805  0.00  0.00    -0.268 OA
ATOM     10  H   UNL d   1       4.639   2.970   0.191  0.00  0.00     0.163 HD
BRANCH   8  11
ATOM     11  C   UNL d   1       5.341   5.506   0.327  0.00  0.00     0.032 A 
ATOM     12  C   UNL d   1       5.917   6.582  -0.368  0.00  0.00     0.017 A 
ATOM     13  C   UNL d   1       5.282   7.826  -0.403  0.00  0.00     0.001 A 
ATOM     14  C   UNL d   1       4.035   7.987   0.198  0.00  0.00     0.000 A 
ATOM     15  C   UNL d   1       3.435   6.909   0.854  0.00  0.00     0.001 A 
ATOM     16  C   UNL d   1       4.085   5.668   0.923  0.00  0.00     0.017 A 
ENDBRANCH   8  11
ENDBRANCH   5   7
ENDBRANCH   2   5
BRANCH   1  17
ATOM     17  C   UNL d   1       4.671  -1.782   0.342  0.00  0.00     0.051 C 
ATOM     18  C   UNL d   1       5.224  -3.085   0.454  0.00  0.00     0.031 C 
ATOM     19  C   UNL d   1       4.435  -4.238   0.261  0.00  0.00     0.002 C 
ATOM     20  C   UNL d   1       3.090  -4.116  -0.071  0.00  0.00     0.002 C 
ATOM     21  C   UNL d   1       2.531  -2.850  -0.221  0.00  0.00     0.021 C 
ATOM     22  C   UNL d   1       3.272  -1.692   0.058  0.00  0.00     0.026 C 
BRANCH  22  23
ATOM     23  S   UNL d   1       2.433  -0.138   0.227  0.00  0.00    -0.132 SA
ATOM     24  C   UNL d   1       0.682  -0.212   0.084  0.00  0.00     0.095 C 
ENDBRANCH  22  23
ENDBRANCH   1  17
TORSDOF 5
