@<TRIPOS>MOLECULE
*****
 30 31 0 0 0
SMALL
GASTEIGER

@<TRIPOS>ATOM
      1 C           0.8191    2.0669    0.0140 C.3     1  UNL1       -0.0366
      2 C          -0.1781    0.9571    0.0062 C.ar    1  UNL1       -0.0110
      3 C           0.3279   -0.3603    0.0101 C.ar    1  UNL1        0.0456
      4 CL          2.0288   -0.7051    0.0038 Cl      1  UNL1       -0.0832
      5 C          -0.5215   -1.4560    0.0142 C.ar    1  UNL1       -0.0430
      6 C          -1.8949   -1.2573    0.0057 C.ar    1  UNL1       -0.0586
      7 C          -2.4219    0.0471   -0.0075 C.ar    1  UNL1       -0.0401
      8 C          -1.5816    1.1866   -0.0039 C.ar    1  UNL1        0.0380
      9 N          -2.2302    2.4802   -0.0280 N.am    1  UNL1       -0.2812
     10 C          -1.6456    3.7403   -0.0338 C.2     1  UNL1        0.2483
     11 O          -0.4713    4.0824    0.0736 O.2     1  UNL1       -0.2699
     12 C          -2.4505    4.9476   -0.1516 C.ar    1  UNL1        0.0386
     13 C          -3.4696    5.2123    0.7532 C.ar    1  UNL1       -0.0461
     14 C          -4.0138    6.4967    0.7844 C.ar    1  UNL1       -0.0180
     15 C          -3.5214    7.4960   -0.0694 C.ar    1  UNL1        0.1351
     16 O          -4.0672    8.7481   -0.0430 O.3     1  UNL1       -0.5053
     17 C          -2.4670    7.2364   -0.9443 C.ar    1  UNL1        0.0830
     18 CL         -1.8052    8.4497   -1.9752 Cl      1  UNL1       -0.0797
     19 C          -1.9234    5.9649   -0.9762 C.ar    1  UNL1       -0.0277
     20 H           1.8718    1.8032    0.0254 H       1  UNL1        0.0279
     21 H           0.6841    2.6171    0.9511 H       1  UNL1        0.0279
     22 H           0.6955    2.6310   -0.9170 H       1  UNL1        0.0279
     23 H          -0.1019   -2.4586    0.0223 H       1  UNL1        0.0632
     24 H          -2.5468   -2.1287    0.0061 H       1  UNL1        0.0619
     25 H          -3.5075    0.1362   -0.0213 H       1  UNL1        0.0636
     26 H          -3.2440    2.4545   -0.0780 H       1  UNL1        0.1551
     27 H          -3.7690    4.4632    1.4808 H       1  UNL1        0.0626
     28 H          -4.7985    6.7107    1.5024 H       1  UNL1        0.0655
     29 H          -4.7898    8.7736    0.6019 H       1  UNL1        0.2922
     30 H          -1.0335    5.7731   -1.5785 H       1  UNL1        0.0641
@<TRIPOS>BOND
     1     1     2    1
     2     2     3   ar
     3     3     4    1
     4     3     5   ar
     5     5     6   ar
     6     6     7   ar
     7     7     8   ar
     8     2     8   ar
     9     8     9    1
    10     9    10   am
    11    10    11    2
    12    10    12    1
    13    12    13   ar
    14    13    14   ar
    15    14    15   ar
    16    15    16    1
    17    15    17   ar
    18    17    18    1
    19    17    19   ar
    20    12    19   ar
    21     1    20    1
    22     1    21    1
    23     1    22    1
    24     5    23    1
    25     6    24    1
    26     7    25    1
    27     9    26    1
    28    13    27    1
    29    14    28    1
    30    16    29    1
    31    19    30    1
