REMARK  8 active torsions:
REMARK  status: ('A' for Active; 'I' for Inactive)
REMARK    1  A    between atoms: O_2  and  C_3 
REMARK    2  A    between atoms: C_5  and  N_6 
REMARK    3  A    between atoms: N_6  and  C_7 
REMARK    4  A    between atoms: C_7  and  N_9 
REMARK       I    between atoms: N_9  and  C_10 
REMARK    5  A    between atoms: C_10  and  C_12 
REMARK    6  A    between atoms: C_18  and  O_19 
REMARK    7  A    between atoms: C_23  and  N_24 
REMARK       I    between atoms: N_24  and  C_25 
REMARK    8  A    between atoms: C_25  and  C_27 
ROOT
ATOM      1  C   UNL d   1       2.917  -0.472   1.003  0.00  0.00     0.097 C 
ATOM      2  C   UNL d   1       4.240   0.009   1.435  0.00  0.00     0.068 C 
ATOM      3  C   UNL d   1       5.067  -0.756   2.272  0.00  0.00     0.037 C 
ATOM      4  C   UNL d   1       4.413  -1.867   2.780  0.00  0.00     0.032 C 
ATOM      5  C   UNL d   1       3.194  -2.396   2.330  0.00  0.00     0.035 C 
ATOM      6  C   UNL d   1       2.401  -1.735   1.411  0.00  0.00     0.068 C 
ENDROOT
BRANCH   3   7
ATOM      7  N   UNL d   1       6.500  -0.506   2.546  0.00  0.00    -0.333 N 
ATOM      8  H   UNL d   1       6.860   0.350   2.130  0.00  0.00     0.168 HD
BRANCH   7   9
ATOM      9  C   UNL d   1       7.413  -1.414   3.210  0.00  0.00     0.179 C 
ATOM     10  S   UNL d   1       7.002  -2.798   4.087  0.00  0.00    -0.040 SA
BRANCH   9  11
ATOM     11  N   UNL d   1       8.788  -1.076   3.127  0.00  0.00    -0.299 N 
ATOM     12  C   UNL d   1       9.769  -1.571   4.042  0.00  0.00     0.260 C 
ATOM     13  O   UNL d   1       9.667  -2.545   4.761  0.00  0.00    -0.267 OA
ATOM     14  H   UNL d   1       9.092  -0.377   2.470  0.00  0.00     0.171 HD
BRANCH  12  15
ATOM     15  C   UNL d   1      11.075  -0.904   4.209  0.00  0.00     0.066 A 
ATOM     16  C   UNL d   1      12.156  -1.827   4.227  0.00  0.00     0.020 A 
ATOM     17  C   UNL d   1      13.428  -1.456   4.648  0.00  0.00     0.002 A 
ATOM     18  C   UNL d   1      13.658  -0.137   4.996  0.00  0.00     0.009 A 
ATOM     19  C   UNL d   1      12.598   0.786   5.024  0.00  0.00    -0.028 A 
ATOM     20  C   UNL d   1      12.873   2.187   5.501  0.00  0.00     0.051 C 
ATOM     21  C   UNL d   1      11.278   0.404   4.669  0.00  0.00     0.089 A 
BRANCH  21  22
ATOM     22  O   UNL d   1      10.367   1.403   4.915  0.00  0.00    -0.354 OA
ATOM     23  C   UNL d   1       8.996   1.194   4.660  0.00  0.00     0.210 C 
ENDBRANCH  21  22
ENDBRANCH  12  15
ENDBRANCH   9  11
ENDBRANCH   7   9
ENDBRANCH   3   7
BRANCH   1  24
ATOM     24  O   UNL d   1       2.316   0.399   0.127  0.00  0.00    -0.354 OA
ATOM     25  C   UNL d   1       0.929   0.657   0.266  0.00  0.00     0.210 C 
ENDBRANCH   1  24
BRANCH   6  26
ATOM     26  N   UNL d   1       1.133  -2.395   1.094  0.00  0.00    -0.319 N 
ATOM     27  C   UNL d   1       0.457  -2.277  -0.121  0.00  0.00     0.280 C 
ATOM     28  O   UNL d   1       1.121  -1.950  -1.115  0.00  0.00    -0.265 OA
ATOM     29  H   UNL d   1       0.919  -3.225   1.631  0.00  0.00     0.169 HD
BRANCH  27  30
ATOM     30  C   UNL d   1      -1.043  -2.270  -0.267  0.00  0.00     0.144 C 
ATOM     31  C   UNL d   1      -1.604  -1.409  -1.190  0.00  0.00     0.057 C 
ATOM     32  C   UNL d   1      -2.767  -2.006  -1.654  0.00  0.00     0.001 C 
ATOM     33  C   UNL d   1      -3.460  -1.888  -2.862  0.00  0.00     0.014 C 
ATOM     34  C   UNL d   1      -3.246  -2.783  -0.610  0.00  0.00     0.086 C 
ATOM     35  C   UNL d   1      -4.751  -2.372  -2.965  0.00  0.00     0.001 C 
ATOM     36  C   UNL d   1      -5.341  -2.961  -1.849  0.00  0.00     0.003 C 
ATOM     37  C   UNL d   1      -4.607  -3.187  -0.637  0.00  0.00     0.038 C 
ATOM     38  O   UNL d   1      -2.122  -3.029   0.263  0.00  0.00    -0.304 OA
ENDBRANCH  27  30
ENDBRANCH   6  26
TORSDOF 8
