@<TRIPOS>MOLECULE
*****
 56 58 0 0 0
SMALL
GASTEIGER

@<TRIPOS>ATOM
      1 C           1.1180    0.0301    0.0814 C.3     1  UNL1       -0.0306
      2 C           2.6399    0.0468    0.0901 C.3     1  UNL1        0.0900
      3 O           3.1157    1.3841    0.3333 O.3     1  UNL1       -0.4614
      4 C           4.4751    1.5397    0.2724 C.2     1  UNL1        0.3418
      5 O           5.2574    0.6224    0.0153 O.2     1  UNL1       -0.2449
      6 C           4.9274    2.9159    0.4900 C.ar    1  UNL1        0.0908
      7 C           5.9850    3.5090   -0.2308 C.ar    1  UNL1        0.0856
      8 N           6.8050    3.0099   -1.3135 N.am    1  UNL1       -0.2905
      9 C           7.8420    3.7171   -2.0171 C.2     1  UNL1        0.1412
     10 S           8.3318    5.3149   -1.7254 S.2     1  UNL1       -0.0182
     11 N           8.4932    2.9791   -3.0616 N.am    1  UNL1       -0.2676
     12 C           9.5354    3.5197   -3.8515 C.2     1  UNL1        0.2186
     13 O           9.9768    4.6636   -3.7274 O.2     1  UNL1       -0.2754
     14 C          10.2036    2.7070   -4.9464 C.3     1  UNL1        0.0274
     15 C          11.2997    3.6117   -5.6014 C.3     1  UNL1       -0.0104
     16 C          12.0586    2.9416   -6.7336 C.3     1  UNL1        0.0901
     17 O          13.0224    3.8684   -7.2570 O.3     1  UNL1       -0.4905
     18 C          13.8204    3.3553   -8.2499 C.ar    1  UNL1        0.1388
     19 C          13.2822    2.6885   -9.3551 C.ar    1  UNL1       -0.0171
     20 C          14.1192    2.2117  -10.3680 C.ar    1  UNL1       -0.0398
     21 C          15.4951    2.4146  -10.2876 C.ar    1  UNL1        0.0426
     22 CL         16.5149    1.8154  -11.5375 Cl      1  UNL1       -0.0835
     23 C          16.0446    3.1023   -9.2091 C.ar    1  UNL1       -0.0215
     24 C          15.2050    3.5819   -8.1977 C.ar    1  UNL1        0.0839
     25 CL         15.9250    4.4359   -6.8800 Cl      1  UNL1       -0.0797
     26 S           6.2284    5.0867    0.3724 S.2     1  UNL1       -0.0774
     27 C           5.0338    5.0526    1.5081 C.ar    1  UNL1       -0.0044
     28 C           4.3670    3.8502    1.4932 C.ar    1  UNL1       -0.0213
     29 C           3.2538    3.6393    2.4760 C.3     1  UNL1       -0.0261
     30 C           2.7002    4.9843    2.9987 C.3     1  UNL1       -0.0487
     31 C           3.8114    5.9216    3.4884 C.3     1  UNL1       -0.0483
     32 C           4.7750    6.2609    2.3554 C.3     1  UNL1       -0.0211
     33 H           0.7396   -0.9854   -0.0810 H       1  UNL1        0.0262
     34 H           0.7223    0.6748   -0.7104 H       1  UNL1        0.0262
     35 H           0.7163    0.4013    1.0296 H       1  UNL1        0.0262
     36 H           3.0061   -0.3130   -0.8785 H       1  UNL1        0.0695
     37 H           3.0015   -0.6131    0.8860 H       1  UNL1        0.0695
     38 H           6.5978    2.0432   -1.5546 H       1  UNL1        0.1543
     39 H           8.2093    2.0269   -3.2486 H       1  UNL1        0.1565
     40 H           9.4655    2.4259   -5.7016 H       1  UNL1        0.0359
     41 H          10.6739    1.8195   -4.5171 H       1  UNL1        0.0359
     42 H          12.0220    3.9529   -4.8429 H       1  UNL1        0.0302
     43 H          10.8480    4.5405   -5.9866 H       1  UNL1        0.0302
     44 H          11.3356    2.6605   -7.5029 H       1  UNL1        0.0696
     45 H          12.5740    2.0558   -6.3491 H       1  UNL1        0.0696
     46 H          12.2107    2.5544   -9.4621 H       1  UNL1        0.0655
     47 H          13.6895    1.6926  -11.2212 H       1  UNL1        0.0633
     48 H          17.1179    3.2653   -9.1562 H       1  UNL1        0.0648
     49 H           3.6377    3.0529    3.3193 H       1  UNL1        0.0314
     50 H           2.4351    3.0867    2.0125 H       1  UNL1        0.0314
     51 H           1.9906    4.8004    3.8102 H       1  UNL1        0.0268
     52 H           2.1530    5.4879    2.1904 H       1  UNL1        0.0268
     53 H           4.3635    5.4453    4.3078 H       1  UNL1        0.0269
     54 H           3.3813    6.8479    3.8881 H       1  UNL1        0.0269
     55 H           5.7062    6.6662    2.7747 H       1  UNL1        0.0318
     56 H           4.3412    7.0533    1.7301 H       1  UNL1        0.0318
@<TRIPOS>BOND
     1     1     2    1
     2     2     3    1
     3     3     4    1
     4     4     5    2
     5     4     6    1
     6     6     7   ar
     7     7     8    1
     8     8     9    1
     9     9    10    2
    10     9    11    1
    11    11    12   am
    12    12    13    2
    13    12    14    1
    14    14    15    1
    15    15    16    1
    16    16    17    1
    17    17    18    1
    18    18    19   ar
    19    19    20   ar
    20    20    21   ar
    21    21    22    1
    22    21    23   ar
    23    23    24   ar
    24    18    24   ar
    25    24    25    1
    26     7    26   ar
    27    26    27   ar
    28    27    28   ar
    29     6    28   ar
    30    28    29    1
    31    29    30    1
    32    30    31    1
    33    31    32    1
    34    27    32    1
    35     1    33    1
    36     1    34    1
    37     1    35    1
    38     2    36    1
    39     2    37    1
    40     8    38    1
    41    11    39    1
    42    14    40    1
    43    14    41    1
    44    15    42    1
    45    15    43    1
    46    16    44    1
    47    16    45    1
    48    19    46    1
    49    20    47    1
    50    23    48    1
    51    29    49    1
    52    29    50    1
    53    30    51    1
    54    30    52    1
    55    31    53    1
    56    31    54    1
    57    32    55    1
    58    32    56    1
