@<TRIPOS>MOLECULE
*****
 48 48 0 0 0
SMALL
GASTEIGER

@<TRIPOS>ATOM
      1 C           1.0628    0.0729    0.0637 C.3     1  UNL1       -0.0622
      2 C           2.5883    0.0931    0.0482 C.3     1  UNL1       -0.0214
      3 C           3.1290    1.2297   -0.8238 C.3     1  UNL1        0.0922
      4 O           4.5735    1.2430   -0.8338 O.3     1  UNL1       -0.4646
      5 C           5.1127    2.2414   -1.5994 C.2     1  UNL1        0.3075
      6 O           4.4515    3.0646   -2.2319 O.2     1  UNL1       -0.2508
      7 C           6.6210    2.2279   -1.5887 C.3     1  UNL1        0.0532
      8 C           7.2399    3.3680   -2.4652 C.3     1  UNL1        0.0344
      9 C           8.7583    3.2709   -2.4048 C.2     1  UNL1        0.2190
     10 O           9.2152    2.3351   -1.7475 O.2     1  UNL1       -0.2754
     11 N           9.5569    4.2012   -3.1029 N.am    1  UNL1       -0.2676
     12 C          10.9759    4.2449   -3.0268 C.2     1  UNL1        0.1408
     13 S          11.8657    3.2385   -1.9864 S.2     1  UNL1       -0.0182
     14 N          11.6031    5.2166   -3.8553 N.am    1  UNL1       -0.2966
     15 C          13.0396    5.3026   -4.0150 C.ar    1  UNL1        0.0333
     16 C          13.7466    6.5063   -3.9520 C.ar    1  UNL1       -0.0405
     17 C          15.1509    6.5047   -4.0945 C.ar    1  UNL1       -0.0593
     18 C          15.8584    5.3033   -4.2520 C.ar    1  UNL1       -0.0495
     19 C          15.1646    4.0952   -4.3433 C.ar    1  UNL1        0.0384
     20 C          15.9060    2.8118   -4.5714 C.2     1  UNL1        0.2441
     21 O          17.1324    2.8273   -4.6941 O.2     1  UNL1       -0.2702
     22 N          15.1681    1.6443   -4.6591 N.am    1  UNL1       -0.3116
     23 C          15.7917    0.3627   -4.9100 C.3     1  UNL1        0.0091
     24 C          14.7714   -0.7624   -4.9600 C.3     1  UNL1       -0.0495
     25 C          13.7684    4.1302   -4.2634 C.ar    1  UNL1       -0.0284
     26 H           0.6916   -0.7449    0.6911 H       1  UNL1        0.0231
     27 H           0.6593   -0.0695   -0.9445 H       1  UNL1        0.0231
     28 H           0.6592    1.0098    0.4623 H       1  UNL1        0.0231
     29 H           2.9622   -0.8703   -0.3176 H       1  UNL1        0.0295
     30 H           2.9622    0.1969    1.0734 H       1  UNL1        0.0295
     31 H           2.7662    2.1870   -0.4311 H       1  UNL1        0.0697
     32 H           2.7663    1.0982   -1.8502 H       1  UNL1        0.0697
     33 H           6.9592    1.2494   -1.9574 H       1  UNL1        0.0382
     34 H           6.9619    2.3310   -0.5492 H       1  UNL1        0.0382
     35 H           6.9131    4.3405   -2.0843 H       1  UNL1        0.0364
     36 H           6.9062    3.2539   -3.5014 H       1  UNL1        0.0364
     37 H           9.0823    4.8971   -3.6637 H       1  UNL1        0.1565
     38 H          11.0865    6.0257   -4.1805 H       1  UNL1        0.1538
     39 H          13.2552    7.4483   -3.7234 H       1  UNL1        0.0636
     40 H          15.7084    7.4412   -4.0757 H       1  UNL1        0.0618
     41 H          16.9468    5.3151   -4.3161 H       1  UNL1        0.0625
     42 H          14.1751    1.6357   -4.4854 H       1  UNL1        0.1490
     43 H          16.5241    0.1777   -4.1182 H       1  UNL1        0.0459
     44 H          16.3268    0.4303   -5.8627 H       1  UNL1        0.0459
     45 H          14.2296   -0.8462   -4.0115 H       1  UNL1        0.0245
     46 H          15.2658   -1.7187   -5.1567 H       1  UNL1        0.0245
     47 H          14.0315   -0.5912   -5.7496 H       1  UNL1        0.0245
     48 H          13.2044    3.2191   -4.3901 H       1  UNL1        0.0644
@<TRIPOS>BOND
     1     1     2    1
     2     2     3    1
     3     3     4    1
     4     4     5    1
     5     5     6    2
     6     5     7    1
     7     7     8    1
     8     8     9    1
     9     9    10    2
    10     9    11   am
    11    11    12    1
    12    12    13    2
    13    12    14    1
    14    14    15    1
    15    15    16   ar
    16    16    17   ar
    17    17    18   ar
    18    18    19   ar
    19    19    20    1
    20    20    21    2
    21    20    22   am
    22    22    23    1
    23    23    24    1
    24    19    25   ar
    25    15    25   ar
    26     1    26    1
    27     1    27    1
    28     1    28    1
    29     2    29    1
    30     2    30    1
    31     3    31    1
    32     3    32    1
    33     7    33    1
    34     7    34    1
    35     8    35    1
    36     8    36    1
    37    11    37    1
    38    14    38    1
    39    16    39    1
    40    17    40    1
    41    18    41    1
    42    22    42    1
    43    23    43    1
    44    23    44    1
    45    24    45    1
    46    24    46    1
    47    24    47    1
    48    25    48    1
