@<TRIPOS>MOLECULE
*****
 64 67 0 0 0
SMALL
GASTEIGER

@<TRIPOS>ATOM
      1 C           1.1342   -0.1042    0.0659 C.3     1  UNL1       -0.0305
      2 C           2.6603   -0.1585    0.0516 C.3     1  UNL1        0.0913
      3 O           3.1339   -1.5255    0.1773 O.3     1  UNL1       -0.4505
      4 C           4.4918   -1.6636    0.3267 C.2     1  UNL1        0.4029
      5 O           5.2646   -0.7036    0.3240 O.2     1  UNL1       -0.2263
      6 N           4.9080   -2.9694    0.5657 N.am    1  UNL1       -0.2644
      7 C           6.2464   -3.2376    1.1221 C.3     1  UNL1        0.0337
      8 C           6.2132   -4.4646    2.0645 C.3     1  UNL1        0.0309
      9 N           5.6165   -5.6326    1.3830 N.am    1  UNL1       -0.2945
     10 C           6.2898   -6.8553    1.3742 C.2     1  UNL1        0.2468
     11 O           7.3817   -7.0176    1.9179 O.2     1  UNL1       -0.2700
     12 C           5.7103   -8.0492    0.6943 C.ar    1  UNL1        0.0388
     13 C           5.5941   -9.2444    1.4218 C.ar    1  UNL1       -0.0478
     14 C           5.1471  -10.4215    0.8045 C.ar    1  UNL1       -0.0383
     15 C           4.7966  -10.4211   -0.5427 C.ar    1  UNL1        0.0493
     16 C           4.9025   -9.2132   -1.2591 C.ar    1  UNL1        0.0552
     17 C           5.3912   -8.0430   -0.6661 C.ar    1  UNL1       -0.0266
     18 N           4.5344   -9.1954   -2.6074 N.am    1  UNL1       -0.2824
     19 C           3.8537  -10.2301   -3.2046 C.2     1  UNL1        0.2383
     20 O           3.5761  -10.1321   -4.3974 O.2     1  UNL1       -0.2734
     21 C           3.3741  -11.3766   -2.2759 C.3     1  UNL1        0.1067
     22 C           3.1166  -12.7064   -3.0257 C.3     1  UNL1        0.0209
     23 S           1.4679  -12.6666   -3.8202 S.3     1  UNL1       -0.1537
     24 C           1.5683  -13.8328   -5.2179 C.3     1  UNL1        0.0191
     25 C           1.0422  -13.4077   -6.6004 C.ar    1  UNL1       -0.0347
     26 C           0.8701  -14.4380   -7.5610 C.ar    1  UNL1       -0.0575
     27 C           0.4115  -14.1749   -8.8618 C.ar    1  UNL1       -0.0615
     28 C           0.1150  -12.8756   -9.2465 C.ar    1  UNL1       -0.0615
     29 C           0.2670  -11.8475   -8.3291 C.ar    1  UNL1       -0.0586
     30 C           0.7244  -12.0939   -7.0196 C.ar    1  UNL1       -0.0465
     31 C           0.8509  -10.8859   -6.1449 C.3     1  UNL1       -0.0394
     32 N           4.2797  -11.5727   -1.1300 N.pl3   1  UNL1       -0.3309
     33 C           4.2753   -5.3593    0.8471 C.3     1  UNL1        0.0309
     34 C           4.3057   -4.1350   -0.0902 C.3     1  UNL1        0.0337
     35 H           0.7722    0.9199   -0.0928 H       1  UNL1        0.0262
     36 H           0.7323   -0.4561    1.0220 H       1  UNL1        0.0262
     37 H           0.7115   -0.7398   -0.7178 H       1  UNL1        0.0262
     38 H           3.0372    0.4645    0.8738 H       1  UNL1        0.0695
     39 H           3.0159    0.2515   -0.8997 H       1  UNL1        0.0695
     40 H           6.6262   -2.3568    1.6499 H       1  UNL1        0.0481
     41 H           6.9179   -3.4471    0.2803 H       1  UNL1        0.0481
     42 H           5.5716   -4.2408    2.9283 H       1  UNL1        0.0480
     43 H           7.2127   -4.6867    2.4517 H       1  UNL1        0.0480
     44 H           5.8539   -9.2655    2.4779 H       1  UNL1        0.0626
     45 H           5.0371  -11.3304    1.3911 H       1  UNL1        0.0637
     46 H           5.5034   -7.1363   -1.2515 H       1  UNL1        0.0644
     47 H           4.7595   -8.4117   -3.2044 H       1  UNL1        0.1549
     48 H           2.4302  -11.0319   -1.8287 H       1  UNL1        0.0602
     49 H           3.0311  -13.5202   -2.2985 H       1  UNL1        0.0399
     50 H           3.9461  -12.9395   -3.7028 H       1  UNL1        0.0399
     51 H           0.8926  -14.6255   -4.8772 H       1  UNL1        0.0425
     52 H           2.5671  -14.2721   -5.3199 H       1  UNL1        0.0425
     53 H           1.0917  -15.4740   -7.3056 H       1  UNL1        0.0621
     54 H           0.2858  -14.9827   -9.5786 H       1  UNL1        0.0618
     55 H          -0.2314  -12.6525  -10.2516 H       1  UNL1        0.0618
     56 H           0.0311  -10.8290   -8.6331 H       1  UNL1        0.0620
     57 H           0.5785   -9.9539   -6.6450 H       1  UNL1        0.0278
     58 H           1.8946  -10.7894   -5.8534 H       1  UNL1        0.0278
     59 H           0.1702  -10.9697   -5.2950 H       1  UNL1        0.0278
     60 H           4.7561  -12.4561   -0.9930 H       1  UNL1        0.1469
     61 H           3.6303   -5.1454    1.7072 H       1  UNL1        0.0480
     62 H           3.8615   -6.2279    0.3376 H       1  UNL1        0.0480
     63 H           3.3173   -3.9073   -0.4919 H       1  UNL1        0.0481
     64 H           4.9610   -4.3694   -0.9426 H       1  UNL1        0.0481
@<TRIPOS>BOND
     1     1     2    1
     2     2     3    1
     3     3     4    1
     4     4     5    2
     5     4     6   am
     6     6     7    1
     7     7     8    1
     8     8     9    1
     9     9    10   am
    10    10    11    2
    11    10    12    1
    12    12    13   ar
    13    13    14   ar
    14    14    15   ar
    15    15    16   ar
    16    16    17   ar
    17    12    17   ar
    18    16    18    1
    19    18    19   am
    20    19    20    2
    21    19    21    1
    22    21    22    1
    23    22    23    1
    24    23    24    1
    25    24    25    1
    26    25    26   ar
    27    26    27   ar
    28    27    28   ar
    29    28    29   ar
    30    29    30   ar
    31    25    30   ar
    32    30    31    1
    33    21    32    1
    34    15    32    1
    35     9    33    1
    36    33    34    1
    37     6    34    1
    38     1    35    1
    39     1    36    1
    40     1    37    1
    41     2    38    1
    42     2    39    1
    43     7    40    1
    44     7    41    1
    45     8    42    1
    46     8    43    1
    47    13    44    1
    48    14    45    1
    49    17    46    1
    50    18    47    1
    51    21    48    1
    52    22    49    1
    53    22    50    1
    54    24    51    1
    55    24    52    1
    56    26    53    1
    57    27    54    1
    58    28    55    1
    59    29    56    1
    60    31    57    1
    61    31    58    1
    62    31    59    1
    63    32    60    1
    64    33    61    1
    65    33    62    1
    66    34    63    1
    67    34    64    1
