@<TRIPOS>MOLECULE
*****
 34 36 0 0 0
SMALL
GASTEIGER

@<TRIPOS>ATOM
      1 O           1.0559   -0.1492    0.0378 O.2     1  UNL1       -0.2684
      2 C           2.2880   -0.1066   -0.0602 C.2     1  UNL1        0.2653
      3 N           2.9979   -0.7847   -1.0584 N.am    1  UNL1       -0.2029
      4 N           2.2955   -1.4910   -2.0287 N.2     1  UNL1       -0.1875
      5 C           2.9618   -2.2417   -2.8493 C.2     1  UNL1        0.0528
      6 C           2.2948   -3.0412   -3.9219 C.ar    1  UNL1       -0.0052
      7 C           1.1737   -2.5573   -4.6098 C.ar    1  UNL1       -0.0497
      8 C           0.6123   -3.2981   -5.6661 C.ar    1  UNL1       -0.0196
      9 C           1.1616   -4.5296   -6.0127 C.ar    1  UNL1        0.1169
     10 O           0.6703   -5.2847   -7.0376 O.3     1  UNL1       -0.5068
     11 C           2.2528   -5.0340   -5.3142 C.ar    1  UNL1       -0.0196
     12 C           2.8282   -4.2875   -4.2763 C.ar    1  UNL1       -0.0497
     13 C           3.0718    0.6738    0.9122 C.ar    1  UNL1        0.0633
     14 C           4.0799    1.5870    0.6388 C.ar    1  UNL1        0.0149
     15 N           4.4126    2.2366    1.8065 N.ar    1  UNL1       -0.3599
     16 C           3.7153    1.7090    2.8682 C.ar    1  UNL1        0.0472
     17 C           3.7634    2.0252    4.2372 C.ar    1  UNL1       -0.0378
     18 C           2.9452    1.2942    5.1044 C.ar    1  UNL1       -0.0598
     19 C           2.0843    0.3172    4.6139 C.ar    1  UNL1       -0.0611
     20 C           2.0191    0.0458    3.2399 C.ar    1  UNL1       -0.0519
     21 C           2.8630    0.7353    2.3413 C.ar    1  UNL1        0.0118
     22 H           4.0104   -0.8228   -1.0322 H       1  UNL1        0.1776
     23 H           4.0610   -2.3407   -2.7932 H       1  UNL1        0.0851
     24 H           0.7447   -1.5934   -4.3449 H       1  UNL1        0.0625
     25 H          -0.2436   -2.8981   -6.2032 H       1  UNL1        0.0654
     26 H          -0.0679   -4.8177   -7.4627 H       1  UNL1        0.2921
     27 H           2.6549   -6.0080   -5.5833 H       1  UNL1        0.0654
     28 H           3.6772   -4.7043   -3.7426 H       1  UNL1        0.0625
     29 H           4.5317    1.8981   -0.2924 H       1  UNL1        0.0815
     30 H           5.0696    3.0018    1.8866 H       1  UNL1        0.1654
     31 H           4.4191    2.7990    4.6264 H       1  UNL1        0.0638
     32 H           2.9797    1.4903    6.1749 H       1  UNL1        0.0618
     33 H           1.4543   -0.2432    5.3008 H       1  UNL1        0.0618
     34 H           1.3317   -0.7090    2.8681 H       1  UNL1        0.0624
@<TRIPOS>BOND
     1     1     2    2
     2     2     3   am
     3     3     4    1
     4     4     5    2
     5     5     6    1
     6     6     7   ar
     7     7     8   ar
     8     8     9   ar
     9     9    10    1
    10     9    11   ar
    11    11    12   ar
    12     6    12   ar
    13     2    13    1
    14    13    14   ar
    15    14    15   ar
    16    15    16   ar
    17    16    17   ar
    18    17    18   ar
    19    18    19   ar
    20    19    20   ar
    21    20    21   ar
    22    13    21   ar
    23    16    21   ar
    24     3    22    1
    25     5    23    1
    26     7    24    1
    27     8    25    1
    28    10    26    1
    29    11    27    1
    30    12    28    1
    31    14    29    1
    32    15    30    1
    33    17    31    1
    34    18    32    1
    35    19    33    1
    36    20    34    1
