REMARK  11 active torsions:
REMARK  status: ('A' for Active; 'I' for Inactive)
REMARK    1  A    between atoms: C_2  and  C_3 
REMARK    2  A    between atoms: C_3  and  N_4 
REMARK    3  A    between atoms: N_4  and  C_5 
REMARK       I    between atoms: N_4  and  C_8 
REMARK    4  A    between atoms: C_5  and  C_6 
REMARK    5  A    between atoms: C_8  and  C_10 
REMARK    6  A    between atoms: C_13  and  N_14 
REMARK       I    between atoms: N_14  and  C_15 
REMARK    7  A    between atoms: C_15  and  C_17 
REMARK    8  A    between atoms: C_17  and  N_18 
REMARK    9  A    between atoms: N_18  and  C_19 
REMARK   10  A    between atoms: C_24  and  C_25 
REMARK       I    between atoms: C_25  and  N_27 
REMARK   11  A    between atoms: N_27  and  C_28 
ROOT
ATOM      1  C   UNL d   1      13.159   1.449   1.502  0.00  0.00     0.223 C 
ENDROOT
BRANCH   1   2
ATOM      2  C   UNL d   1      11.628   1.495   1.406  0.00  0.00     0.239 C 
ATOM      3  N   UNL d   1      10.912   1.026   2.514  0.00  0.00    -0.326 N 
ATOM      4  H   UNL d   1      11.421   0.649   3.305  0.00  0.00     0.169 HD
ATOM      5  O   UNL d   1      11.137   1.913   0.354  0.00  0.00    -0.271 OA
BRANCH   3   6
ATOM      6  C   UNL d   1       9.489   0.960   2.572  0.00  0.00     0.034 A 
ATOM      7  C   UNL d   1       8.812   0.389   3.663  0.00  0.00     0.030 A 
ATOM      8  C   UNL d   1       7.400   0.223   3.630  0.00  0.00     0.019 A 
ATOM      9  C   UNL d   1       6.647   0.710   2.550  0.00  0.00     0.032 A 
ATOM     10  C   UNL d   1       7.324   1.397   1.558  0.00  0.00     0.019 A 
ATOM     11  C   UNL d   1       8.709   1.466   1.541  0.00  0.00     0.030 A 
BRANCH   9  12
ATOM     12  C   UNL d   1       5.149   0.649   2.515  0.00  0.00     0.253 C 
ATOM     13  N   UNL d   1       4.459   0.329   1.306  0.00  0.00    -0.348 N 
ATOM     14  O   UNL d   1       4.563   0.911   3.565  0.00  0.00    -0.267 OA
BRANCH  13  15
ATOM     15  C   UNL d   1       2.961   0.364   1.411  0.00  0.00     0.125 C 
BRANCH  15  16
ATOM     16  C   UNL d   1       2.162  -0.012   0.174  0.00  0.00     0.015 C 
ATOM     17  C   UNL d   1       0.665  -0.023   0.145  0.00  0.00     0.006 C 
ENDBRANCH  15  16
ENDBRANCH  13  15
BRANCH  13  18
ATOM     18  C   UNL d   1       5.208  -0.102   0.086  0.00  0.00     0.125 C 
BRANCH  18  19
ATOM     19  C   UNL d   1       4.460  -0.488  -1.169  0.00  0.00     0.015 C 
ATOM     20  C   UNL d   1       5.224  -0.835  -2.408  0.00  0.00     0.006 C 
ENDBRANCH  18  19
ENDBRANCH  13  18
ENDBRANCH   9  12
ENDBRANCH   3   6
ENDBRANCH   1   2
BRANCH   1  21
ATOM     21  N   UNL d   1      13.720   2.124   0.324  0.00  0.00    -0.381 N 
ATOM     22  H   UNL d   1      13.030   2.377  -0.392  0.00  0.00     0.160 HD
BRANCH  21  23
ATOM     23  C   UNL d   1      15.043   2.114  -0.047  0.00  0.00     0.029 A 
ATOM     24  C   UNL d   1      15.576   3.229  -0.694  0.00  0.00     0.031 A 
ATOM     25  C   UNL d   1      16.916   3.257  -1.079  0.00  0.00     0.027 A 
ATOM     26  C   UNL d   1      17.765   2.185  -0.781  0.00  0.00     0.049 A 
ATOM     27 CL   UNL d   1      19.426   2.435  -1.200  0.00  0.00    -0.083 Cl
ATOM     28  C   UNL d   1      17.252   1.035  -0.152  0.00  0.00     0.055 A 
ATOM     29  C   UNL d   1      15.892   1.037   0.219  0.00  0.00     0.048 A 
BRANCH  28  30
ATOM     30  C   UNL d   1      18.103  -0.185   0.081  0.00  0.00     0.253 C 
ATOM     31  O   UNL d   1      19.286  -0.193  -0.204  0.00  0.00    -0.268 OA
ATOM     32  N   UNL d   1      17.502  -1.327   0.611  0.00  0.00    -0.352 N 
ATOM     33  H   UNL d   1      16.555  -1.332   0.947  0.00  0.00     0.163 HD
BRANCH  32  34
ATOM     34  C   UNL d   1      18.318  -2.497   0.911  0.00  0.00     0.084 C 
ATOM     35  C   UNL d   1      18.850  -2.425   2.347  0.00  0.00     0.025 C 
ATOM     36  C   UNL d   1      19.715  -3.638   2.678  0.00  0.00     0.002 C 
ATOM     37  C   UNL d   1      18.966  -4.944   2.428  0.00  0.00     0.000 C 
ATOM     38  C   UNL d   1      18.432  -5.008   1.000  0.00  0.00     0.002 C 
ATOM     39  C   UNL d   1      17.549  -3.801   0.678  0.00  0.00     0.025 C 
ENDBRANCH  32  34
ENDBRANCH  28  30
ENDBRANCH  21  23
ENDBRANCH   1  21
TORSDOF 11
