@<TRIPOS>MOLECULE
*****
 71 74 0 0 0
SMALL
GASTEIGER

@<TRIPOS>ATOM
      1 C           6.3165   11.7244   -7.4183 C.3     1  UNL1       -0.0327
      2 C           5.9290   12.9847   -6.7000 C.ar    1  UNL1        0.0341
      3 C           5.2223   12.9514   -5.4855 C.ar    1  UNL1        0.1276
      4 O           4.8509   11.7174   -5.0561 O.3     1  UNL1       -0.4824
      5 C           4.2565   11.5859   -3.7800 C.3     1  UNL1        0.1652
      6 C           4.1753   10.0719   -3.4900 C.2     1  UNL1        0.2507
      7 O           4.6074    9.1906   -4.2158 O.2     1  UNL1       -0.2721
      8 N           3.5192    9.8142   -2.3154 N.am    1  UNL1       -0.3122
      9 C           3.1877    8.5016   -1.7839 C.3     1  UNL1        0.0145
     10 C           2.3810    8.6027   -0.4615 C.3     1  UNL1       -0.0254
     11 C           3.2508    8.5677    0.8062 C.3     1  UNL1       -0.0481
     12 C           4.0533    9.8508    0.9782 C.3     1  UNL1       -0.0416
     13 C           3.1457   11.0892    1.0372 C.3     1  UNL1        0.0356
     14 C           2.2785   11.1127    2.2776 C.2     1  UNL1        0.2161
     15 O           1.1417   10.6505    2.3136 O.2     1  UNL1       -0.2755
     16 N           2.8429   11.6808    3.3823 N.am    1  UNL1       -0.3150
     17 C           2.0189   11.7646    4.5601 C.3     1  UNL1        0.0137
     18 C           2.7267   12.4674    5.6893 C.3     1  UNL1       -0.0141
     19 C           1.8452   12.4951    6.9237 C.3     1  UNL1        0.0456
     20 O           2.5254   13.1680    7.9714 O.3     1  UNL1       -0.3950
     21 C           2.1861   11.1894   -0.1445 C.3     1  UNL1       -0.0416
     22 C           1.4631    9.8464   -0.4481 C.3     1  UNL1       -0.0481
     23 C           4.9539   14.1271   -4.7938 C.ar    1  UNL1       -0.0189
     24 C           5.5267   15.3123   -5.2211 C.ar    1  UNL1       -0.0470
     25 C           6.1295   15.3879   -6.4772 C.ar    1  UNL1        0.0258
     26 C           6.5134   16.6772   -7.0417 C.ar    1  UNL1       -0.0005
     27 C           6.4212   17.9544   -6.3220 C.ar    1  UNL1       -0.0170
     28 C           7.2244   18.1712   -5.1969 C.ar    1  UNL1       -0.0540
     29 C           7.2547   19.4268   -4.6066 C.ar    1  UNL1       -0.0612
     30 C           6.3177   20.3858   -4.9838 C.ar    1  UNL1       -0.0617
     31 C           5.4161   20.1230   -6.0151 C.ar    1  UNL1       -0.0612
     32 C           5.5142   18.9350   -6.7317 C.ar    1  UNL1       -0.0540
     33 C           6.9497   16.7074   -8.3081 C.ar    1  UNL1        0.0313
     34 C           7.0971   15.5014   -9.1399 C.ar    1  UNL1        0.3378
     35 O           7.4742   15.5886  -10.2937 O.2     1  UNL1       -0.2452
     36 O           6.8078   14.2860   -8.5322 O.2     1  UNL1       -0.4217
     37 C           6.2910   14.2286   -7.2229 C.ar    1  UNL1        0.1460
     38 H           6.0170   10.8243   -6.8741 H       1  UNL1        0.0280
     39 H           7.4071   11.6850   -7.5165 H       1  UNL1        0.0280
     40 H           5.8551   11.6885   -8.4080 H       1  UNL1        0.0280
     41 H           3.2490   12.0258   -3.7961 H       1  UNL1        0.0795
     42 H           4.8504   12.0689   -2.9892 H       1  UNL1        0.0795
     43 H           2.7666   10.4678   -2.2327 H       1  UNL1        0.1488
     44 H           4.1026    7.9125   -1.6621 H       1  UNL1        0.0465
     45 H           2.5690    8.0057   -2.5401 H       1  UNL1        0.0465
     46 H           1.7482    7.7039   -0.4084 H       1  UNL1        0.0316
     47 H           3.9160    7.6957    0.7958 H       1  UNL1        0.0269
     48 H           2.6070    8.4332    1.6873 H       1  UNL1        0.0269
     49 H           4.7563    9.9347    0.1389 H       1  UNL1        0.0273
     50 H           4.6669    9.7805    1.8835 H       1  UNL1        0.0273
     51 H           3.7906   11.9788    1.0342 H       1  UNL1        0.0394
     52 H           3.7479   12.1309    3.3316 H       1  UNL1        0.1487
     53 H           1.7495   10.7386    4.8407 H       1  UNL1        0.0463
     54 H           1.0877   12.2840    4.2959 H       1  UNL1        0.0463
     55 H           2.9924   13.4891    5.3919 H       1  UNL1        0.0302
     56 H           3.6744   11.9626    5.9103 H       1  UNL1        0.0302
     57 H           1.5950   11.4824    7.2574 H       1  UNL1        0.0557
     58 H           0.9102   13.0286    6.7234 H       1  UNL1        0.0557
     59 H           3.3363   12.6665    8.1636 H       1  UNL1        0.2094
     60 H           2.7809   11.6106   -0.9579 H       1  UNL1        0.0273
     61 H           1.4251   11.9646    0.0055 H       1  UNL1        0.0273
     62 H           0.9033    9.9121   -1.3885 H       1  UNL1        0.0269
     63 H           0.6913    9.6778    0.3096 H       1  UNL1        0.0269
     64 H           4.3144   14.1652   -3.9200 H       1  UNL1        0.0654
     65 H           5.4535   16.1793   -4.5712 H       1  UNL1        0.0626
     66 H           7.8277   17.3680   -4.7778 H       1  UNL1        0.0624
     67 H           8.0095   19.6501   -3.8587 H       1  UNL1        0.0618
     68 H           6.2874   21.3402   -4.4672 H       1  UNL1        0.0618
     69 H           4.6564   20.8525   -6.2797 H       1  UNL1        0.0618
     70 H           4.8720   18.7676   -7.5934 H       1  UNL1        0.0624
     71 H           7.2254   17.6321   -8.8035 H       1  UNL1        0.0695
@<TRIPOS>BOND
     1     1     2    1
     2     2     3   ar
     3     3     4    1
     4     4     5    1
     5     5     6    1
     6     6     7    2
     7     6     8   am
     8     8     9    1
     9    10    11    1
    10    11    12    1
    11    12    13    1
    12    14    15    2
    13    14    16   am
    14    16    17    1
    15    17    18    1
    16    18    19    1
    17    19    20    1
    18    13    21    1
    19    21    22    1
    20    10    22    1
    21     3    23   ar
    22    23    24   ar
    23    24    25   ar
    24    25    26   ar
    25    26    27    1
    26    27    28   ar
    27    28    29   ar
    28    29    30   ar
    29    30    31   ar
    30    31    32   ar
    31    27    32   ar
    32    26    33   ar
    33    33    34   ar
    34    34    35    2
    35    34    36   ar
    36    36    37   ar
    37     2    37   ar
    38    25    37   ar
    39    10     9    1
    40    13    14    1
    41     1    38    1
    42     1    39    1
    43     1    40    1
    44     5    41    1
    45     5    42    1
    46     8    43    1
    47     9    44    1
    48     9    45    1
    49    10    46    1
    50    11    47    1
    51    11    48    1
    52    12    49    1
    53    12    50    1
    54    13    51    1
    55    16    52    1
    56    17    53    1
    57    17    54    1
    58    18    55    1
    59    18    56    1
    60    19    57    1
    61    19    58    1
    62    20    59    1
    63    21    60    1
    64    21    61    1
    65    22    62    1
    66    22    63    1
    67    23    64    1
    68    24    65    1
    69    28    66    1
    70    29    67    1
    71    30    68    1
    72    31    69    1
    73    32    70    1
    74    33    71    1
