@<TRIPOS>MOLECULE
*****
 64 67 0 0 0
SMALL
GASTEIGER

@<TRIPOS>ATOM
      1 O           1.3925   -0.4794    0.3680 O.2     1  UNL1       -0.2265
      2 C           2.5437   -0.1330    0.1566 C.2     1  UNL1        0.4012
      3 N           3.0859    0.1974   -1.0675 N.am    1  UNL1       -0.2675
      4 C           2.3528    0.3916   -2.3787 C.3     1  UNL1        0.1290
      5 C           1.4337    1.6238   -2.3457 C.3     1  UNL1        0.0187
      6 C           0.2946    1.5375   -1.3874 C.ar    1  UNL1        0.0513
      7 C          -0.4176    0.4312   -0.9625 C.ar    1  UNL1        0.0492
      8 N          -1.2082    0.7267    0.1071 N.ar    1  UNL1       -0.2433
      9 C          -1.0343    2.0102    0.3064 C.ar    1  UNL1        0.1058
     10 N          -0.2291    2.5966   -0.6484 N.ar    1  UNL1       -0.2390
     11 C          -0.0634    3.9833   -0.7928 C.2     1  UNL1        0.4211
     12 O          -0.6502    4.7707   -0.0674 O.2     1  UNL1       -0.2227
     13 O           0.7413    4.2681   -1.8443 O.3     1  UNL1       -0.4434
     14 C           0.9068    5.6633   -2.1291 C.3     1  UNL1        0.1193
     15 C           1.8857    5.8769   -3.2692 C.ar    1  UNL1       -0.0102
     16 C           2.5686    4.8223   -3.8886 C.ar    1  UNL1       -0.0554
     17 C           3.5839    5.0576   -4.8146 C.ar    1  UNL1       -0.0614
     18 C           3.8485    6.3533   -5.2354 C.ar    1  UNL1       -0.0617
     19 C           3.1434    7.4160   -4.6762 C.ar    1  UNL1       -0.0614
     20 C           2.1786    7.1820   -3.6903 C.ar    1  UNL1       -0.0554
     21 C           3.4252    0.6186   -3.4887 C.2     1  UNL1        0.3334
     22 O           4.6287    0.5737   -3.2375 O.2     1  UNL1       -0.2483
     23 O           2.8898    0.8794   -4.7663 O.3     1  UNL1       -0.4245
     24 C           3.7718    0.9648   -5.8879 C.ar    1  UNL1        0.1321
     25 C           3.5220    1.9098   -6.8941 C.ar    1  UNL1       -0.0128
     26 C           4.3465    1.9590   -8.0374 C.ar    1  UNL1        0.0191
     27 C           5.4605    1.1113   -8.1316 C.ar    1  UNL1        0.2734
     28 N           6.4245    1.2661   -9.2350 N.pl3   1  UNL1        0.0796
     29 O           6.1975    2.1427  -10.0809 O.2     1  UNL1        0.0414
     30 O           7.4214    0.5290   -9.2378 O.co2   1  UNL1       -0.5760
     31 C           5.6923    0.1509   -7.1418 C.ar    1  UNL1        0.0191
     32 C           4.8329    0.0663   -6.0389 C.ar    1  UNL1       -0.0128
     33 O           3.3149   -0.0661    1.2494 O.3     1  UNL1       -0.4456
     34 C           4.7219   -0.1552    1.2161 C.3     1  UNL1        0.1191
     35 C           5.0924   -0.3776    2.6528 C.ar    1  UNL1       -0.0103
     36 C           5.0974   -1.6649    3.2098 C.ar    1  UNL1       -0.0554
     37 C           5.3116   -1.8353    4.5779 C.ar    1  UNL1       -0.0614
     38 C           5.5891   -0.7311    5.3824 C.ar    1  UNL1       -0.0617
     39 C           5.5633    0.5521    4.8410 C.ar    1  UNL1       -0.0614
     40 C           5.2903    0.7294    3.4878 C.ar    1  UNL1       -0.0554
     41 H           4.0922    0.2735   -1.1408 H       1  UNL1        0.1529
     42 H           1.8014   -0.5271   -2.6022 H       1  UNL1        0.0619
     43 H           1.0044    1.8208   -3.3365 H       1  UNL1        0.0352
     44 H           2.0846    2.4616   -2.0825 H       1  UNL1        0.0352
     45 H          -0.2318   -0.6034   -1.2407 H       1  UNL1        0.0848
     46 H          -1.4932    2.5779    1.1041 H       1  UNL1        0.1034
     47 H           1.3073    6.1658   -1.2396 H       1  UNL1        0.0749
     48 H          -0.0653    6.0874   -2.4010 H       1  UNL1        0.0749
     49 H           2.3286    3.7963   -3.6574 H       1  UNL1        0.0621
     50 H           4.1755    4.2298   -5.1948 H       1  UNL1        0.0618
     51 H           4.6015    6.5315   -5.9981 H       1  UNL1        0.0618
     52 H           3.3645    8.4325   -4.9911 H       1  UNL1        0.0618
     53 H           1.6607    8.0309   -3.2488 H       1  UNL1        0.0621
     54 H           2.7126    2.6310   -6.8027 H       1  UNL1        0.0656
     55 H           4.1179    2.6606   -8.8399 H       1  UNL1        0.0686
     56 H           6.5352   -0.5348   -7.2058 H       1  UNL1        0.0686
     57 H           5.0291   -0.6941   -5.2895 H       1  UNL1        0.0656
     58 H           5.1039    0.7982    0.8461 H       1  UNL1        0.0749
     59 H           5.0370   -0.9859    0.5794 H       1  UNL1        0.0749
     60 H           4.9090   -2.5380    2.5884 H       1  UNL1        0.0621
     61 H           5.2499   -2.8262    5.0205 H       1  UNL1        0.0618
     62 H           5.8153   -0.8702    6.4356 H       1  UNL1        0.0618
     63 H           5.7357    1.4177    5.4738 H       1  UNL1        0.0618
     64 H           5.2132    1.7361    3.0839 H       1  UNL1        0.0621
@<TRIPOS>UNITY_ATOM_ATTR
28 1
charge 1
30 1
charge -1
@<TRIPOS>BOND
     1     1     2    2
     2     2     3   am
     3     3     4    1
     4     4     5    1
     5     5     6    1
     6     6     7   ar
     7     7     8   ar
     8     8     9   ar
     9     9    10   ar
    10     6    10   ar
    11    10    11   am
    12    11    12    2
    13    11    13    1
    14    13    14    1
    15    14    15    1
    16    15    16   ar
    17    16    17   ar
    18    17    18   ar
    19    18    19   ar
    20    19    20   ar
    21    15    20   ar
    22     4    21    1
    23    21    22    2
    24    21    23    1
    25    23    24    1
    26    24    25   ar
    27    25    26   ar
    28    26    27   ar
    29    27    28    1
    30    28    29    2
    31    28    30    1
    32    27    31   ar
    33    31    32   ar
    34    24    32   ar
    35     2    33    1
    36    33    34    1
    37    34    35    1
    38    35    36   ar
    39    36    37   ar
    40    37    38   ar
    41    38    39   ar
    42    39    40   ar
    43    35    40   ar
    44     3    41    1
    45     4    42    1
    46     5    43    1
    47     5    44    1
    48     7    45    1
    49     9    46    1
    50    14    47    1
    51    14    48    1
    52    16    49    1
    53    17    50    1
    54    18    51    1
    55    19    52    1
    56    20    53    1
    57    25    54    1
    58    26    55    1
    59    31    56    1
    60    32    57    1
    61    34    58    1
    62    34    59    1
    63    36    60    1
    64    37    61    1
    65    38    62    1
    66    39    63    1
    67    40    64    1
