@<TRIPOS>MOLECULE
*****
 80 83 0 0 0
SMALL
GASTEIGER

@<TRIPOS>ATOM
      1 C           1.0441   -0.0417    0.0506 C.3     1  UNL1       -0.0559
      2 C           2.5824   -0.0417    0.0082 C.3     1  UNL1       -0.0092
      3 C           3.0923   -1.1059   -0.9780 C.3     1  UNL1       -0.0559
      4 C           3.0322    1.3168   -0.6012 C.3     1  UNL1       -0.0559
      5 C           3.0831   -0.3485    1.4427 C.ar    1  UNL1        0.0004
      6 C           3.0568   -1.6522    1.9426 C.ar    1  UNL1       -0.0440
      7 C           3.4195   -1.9116    3.2636 C.ar    1  UNL1        0.0200
      8 C           3.3440   -3.2965    3.7430 C.2     1  UNL1        0.1829
      9 O           2.9936   -4.1799    2.9421 O.2     1  UNL1       -0.2901
     10 C           3.8410   -3.6354    5.1333 C.3     1  UNL1        0.0934
     11 N           3.8596   -5.0737    5.3416 N.ar    1  UNL1       -0.2637
     12 C           4.2736   -6.0256    4.4421 C.ar    1  UNL1        0.3625
     13 N           4.8323   -5.7158    3.2514 N.2     1  UNL1       -0.2235
     14 N           4.0927   -7.3076    4.9126 N.ar    1  UNL1       -0.2662
     15 C           4.3455   -8.5861    4.2930 C.3     1  UNL1        0.0706
     16 C           4.8729   -8.5071    2.8594 C.3     1  UNL1       -0.0133
     17 N           5.2189   -9.8234    2.2673 N.4     1  UNL1        0.2365
     18 C           6.6378  -10.2193    2.6524 C.3     1  UNL1       -0.0318
     19 C           6.9505  -11.5907    2.1009 C.3     1  UNL1       -0.0123
     20 C           5.9051  -12.5788    2.5934 C.3     1  UNL1       -0.0434
     21 C           4.5554  -12.2014    1.9993 C.3     1  UNL1       -0.0123
     22 C           4.1453  -10.8597    2.5445 C.3     1  UNL1       -0.0318
     23 C           3.5427   -7.1547    6.2236 C.ar    1  UNL1        0.0727
     24 C           3.2090   -8.1157    7.1570 C.ar    1  UNL1       -0.0359
     25 C           2.7238   -7.6608    8.3865 C.ar    1  UNL1       -0.0597
     26 C           2.5768   -6.2817    8.6425 C.ar    1  UNL1       -0.0597
     27 C           2.9130   -5.3238    7.6796 C.ar    1  UNL1       -0.0359
     28 C           3.3980   -5.7861    6.4792 C.ar    1  UNL1        0.0729
     29 C           3.8392   -0.8791    4.0991 C.ar    1  UNL1       -0.0440
     30 C           3.8681    0.4548    3.6513 C.ar    1  UNL1        0.0004
     31 C           4.2693    1.5428    4.6593 C.3     1  UNL1       -0.0092
     32 C           3.2857    1.5217    5.8451 C.3     1  UNL1       -0.0559
     33 C           5.7077    1.2799    5.1392 C.3     1  UNL1       -0.0559
     34 C           4.2541    2.9802    4.1261 C.3     1  UNL1       -0.0559
     35 C           3.4853    0.6779    2.3210 C.ar    1  UNL1        0.1242
     36 O           3.4131    1.8893    1.7388 O.3     1  UNL1       -0.5062
     37 H           0.6285    0.1895   -0.9352 H       1  UNL1        0.0238
     38 H           0.6673    0.7112    0.7556 H       1  UNL1        0.0238
     39 H           0.6445   -1.0116    0.3663 H       1  UNL1        0.0238
     40 H           2.7632   -0.8766   -1.9964 H       1  UNL1        0.0238
     41 H           2.7244   -2.1090   -0.7491 H       1  UNL1        0.0238
     42 H           4.1887   -1.1374   -0.9728 H       1  UNL1        0.0238
     43 H           2.7498    1.4226   -1.6495 H       1  UNL1        0.0238
     44 H           4.1226    1.4316   -0.5277 H       1  UNL1        0.0238
     45 H           2.5442    2.1743   -0.1201 H       1  UNL1        0.0238
     46 H           2.7222   -2.4721    1.3110 H       1  UNL1        0.0629
     47 H           3.1780   -3.1629    5.8590 H       1  UNL1        0.0577
     48 H           4.8735   -3.2959    5.2605 H       1  UNL1        0.0577
     49 H           4.7320   -4.7596    2.9292 H       1  UNL1        0.4466
     50 H           4.9508   -6.2934    2.4473 H       1  UNL1        0.4466
     51 H           3.3871   -9.1160    4.2984 H       1  UNL1        0.0547
     52 H           5.0540   -9.1328    4.9236 H       1  UNL1        0.0547
     53 H           5.7947   -7.9164    2.8312 H       1  UNL1        0.0832
     54 H           4.1210   -8.0553    2.2022 H       1  UNL1        0.0832
     55 H           5.2361   -9.6936    1.2422 H       1  UNL1        0.2034
     56 H           6.7029  -10.1976    3.7451 H       1  UNL1        0.0814
     57 H           7.3178   -9.4622    2.2409 H       1  UNL1        0.0814
     58 H           7.9487  -11.8998    2.4231 H       1  UNL1        0.0317
     59 H           6.9535  -11.5570    1.0044 H       1  UNL1        0.0317
     60 H           5.8539  -12.5383    3.6917 H       1  UNL1        0.0269
     61 H           6.1733  -13.5982    2.3146 H       1  UNL1        0.0269
     62 H           3.8017  -12.9449    2.2741 H       1  UNL1        0.0317
     63 H           4.6064  -12.1601    0.9061 H       1  UNL1        0.0317
     64 H           4.0344  -10.9475    3.6291 H       1  UNL1        0.0814
     65 H           3.2089  -10.4915    2.1096 H       1  UNL1        0.0814
     66 H           3.3215   -9.1792    6.9793 H       1  UNL1        0.0639
     67 H           2.4583   -8.3757    9.1673 H       1  UNL1        0.0618
     68 H           2.1989   -5.9590    9.6137 H       1  UNL1        0.0618
     69 H           2.8042   -4.2680    7.8955 H       1  UNL1        0.0639
     70 H           4.1283   -1.0922    5.1241 H       1  UNL1        0.0629
     71 H           3.3078    0.5770    6.3967 H       1  UNL1        0.0238
     72 H           2.2561    1.6762    5.4973 H       1  UNL1        0.0238
     73 H           3.5223    2.3202    6.5559 H       1  UNL1        0.0238
     74 H           5.8090    0.3268    5.6669 H       1  UNL1        0.0238
     75 H           6.0353    2.0698    5.8227 H       1  UNL1        0.0238
     76 H           6.4015    1.2617    4.2889 H       1  UNL1        0.0238
     77 H           3.2413    3.2521    3.7972 H       1  UNL1        0.0238
     78 H           4.9871    3.0889    3.3150 H       1  UNL1        0.0238
     79 H           4.5316    3.7245    4.8726 H       1  UNL1        0.0238
     80 H           3.7212    2.6900    2.1496 H       1  UNL1        0.2922
@<TRIPOS>UNITY_ATOM_ATTR
13 1
charge 1
17 1
charge 1
@<TRIPOS>BOND
     1     1     2    1
     2     2     3    1
     3     2     4    1
     4     2     5    1
     5     5     6   ar
     6     6     7   ar
     7     7     8    1
     8     8     9    2
     9     8    10    1
    10    10    11    1
    11    11    12   ar
    12    12    13    2
    13    12    14   ar
    14    14    15    1
    15    15    16    1
    16    16    17    1
    17    17    18    1
    18    18    19    1
    19    19    20    1
    20    20    21    1
    21    21    22    1
    22    17    22    1
    23    14    23   ar
    24    23    24   ar
    25    24    25   ar
    26    25    26   ar
    27    26    27   ar
    28    27    28   ar
    29    23    28   ar
    30    11    28   ar
    31     7    29   ar
    32    29    30   ar
    33    30    31    1
    34    31    32    1
    35    31    33    1
    36    31    34    1
    37    30    35   ar
    38     5    35   ar
    39    35    36    1
    40     1    37    1
    41     1    38    1
    42     1    39    1
    43     3    40    1
    44     3    41    1
    45     3    42    1
    46     4    43    1
    47     4    44    1
    48     4    45    1
    49     6    46    1
    50    10    47    1
    51    10    48    1
    52    13    49    1
    53    13    50    1
    54    15    51    1
    55    15    52    1
    56    16    53    1
    57    16    54    1
    58    17    55    1
    59    18    56    1
    60    18    57    1
    61    19    58    1
    62    19    59    1
    63    20    60    1
    64    20    61    1
    65    21    62    1
    66    21    63    1
    67    22    64    1
    68    22    65    1
    69    24    66    1
    70    25    67    1
    71    26    68    1
    72    27    69    1
    73    29    70    1
    74    32    71    1
    75    32    72    1
    76    32    73    1
    77    33    74    1
    78    33    75    1
    79    33    76    1
    80    34    77    1
    81    34    78    1
    82    34    79    1
    83    36    80    1
