@<TRIPOS>MOLECULE
*****
 57 62 0 0 0
SMALL
GASTEIGER

@<TRIPOS>ATOM
      1 C           0.9391    0.6656    0.1709 C.3     1  UNL1       -0.0252
      2 C           2.4942    0.5855    0.5461 C.2     1  UNL1        0.0228
      3 C           3.0733   -0.5234    1.0993 C.2     1  UNL1        0.0068
      4 C           2.5342   -1.8465    1.6750 C.3     1  UNL1        0.1159
      5 C           0.9990   -1.8718    1.7569 C.ar    1  UNL1        0.2671
      6 N           0.1007   -2.0613    0.7601 N.ar    1  UNL1       -0.2466
      7 C          -1.1561   -1.6139    1.1482 C.ar    1  UNL1        0.1283
      8 C          -1.0693   -1.3106    2.4754 C.ar    1  UNL1        0.1283
      9 N           0.2479   -1.4454    2.7993 N.ar    1  UNL1       -0.2466
     10 C           3.2444   -1.9771    2.9926 C.2     1  UNL1        0.0306
     11 C           4.4206   -1.3385    3.2107 C.2     1  UNL1        0.0138
     12 C           5.0281   -1.2810    4.5629 C.3     1  UNL1       -0.0067
     13 C           4.2035   -1.8712    5.7151 C.3     1  UNL1        0.0025
     14 C           3.7465   -0.7195    6.5553 C.ar    1  UNL1       -0.0064
     15 C           2.9338    0.3152    6.1342 C.ar    1  UNL1       -0.0513
     16 C           2.7527    1.2806    7.1472 C.ar    1  UNL1       -0.0545
     17 C           3.4081    0.9314    8.3060 C.ar    1  UNL1       -0.0241
     18 S           4.2269   -0.5630    8.1768 S.2     1  UNL1       -0.1013
     19 C           2.9728   -2.7037    5.4191 C.3     1  UNL1        0.0179
     20 C           2.5230   -2.7327    4.0254 C.2     1  UNL1        0.1624
     21 O           1.4900   -3.3531    3.7731 O.2     1  UNL1       -0.2923
     22 N           5.1159   -0.6481    2.1917 N.pl3   1  UNL1       -0.3241
     23 C           4.6363   -0.6760    0.7979 C.3     1  UNL1        0.1294
     24 N           4.9742    0.4854   -0.2130 N.pl3   1  UNL1       -0.2282
     25 C           5.2042   -0.0557   -1.6534 C.ar    1  UNL1        0.0588
     26 C           6.3359   -0.3995   -2.4320 C.ar    1  UNL1       -0.0384
     27 C           6.1555   -0.5748   -3.8868 C.ar    1  UNL1       -0.0599
     28 C           4.9094   -0.5207   -4.5440 C.ar    1  UNL1       -0.0610
     29 C           3.8268   -0.3106   -3.7792 C.ar    1  UNL1       -0.0511
     30 C           4.0310   -0.1605   -2.4121 C.ar    1  UNL1        0.0199
     31 C           2.8580   -0.6436   -1.7688 C.2     1  UNL1        0.0735
     32 O           1.7611   -0.1977   -2.1443 O.co2   1  UNL1       -0.5446
     33 O           3.0776   -1.6246   -0.9569 O.co2   1  UNL1       -0.5446
     34 N           3.5604    1.3480   -0.1062 N.pl3   1  UNL1       -0.2663
     35 H           0.4337    0.1281    0.9420 H       1  UNL1        0.0290
     36 H           0.4910    0.1189   -0.6895 H       1  UNL1        0.0290
     37 H           0.4161    1.6186    0.2075 H       1  UNL1        0.0290
     38 H           2.7467   -2.7905    1.1298 H       1  UNL1        0.0522
     39 H           0.4382   -2.1226   -0.2087 H       1  UNL1        0.3104
     40 H          -1.9054   -1.4198    0.4007 H       1  UNL1        0.1117
     41 H          -1.7134   -0.8838    3.2210 H       1  UNL1        0.1117
     42 H           0.6581   -1.2626    3.7049 H       1  UNL1        0.3104
     43 H           5.2641   -0.2249    4.7729 H       1  UNL1        0.0332
     44 H           5.9822   -1.8056    4.5074 H       1  UNL1        0.0332
     45 H           4.8781   -2.5437    6.2564 H       1  UNL1        0.0362
     46 H           2.5334    0.3936    5.1295 H       1  UNL1        0.0626
     47 H           2.1875    2.1931    7.0194 H       1  UNL1        0.0623
     48 H           3.4541    1.4880    9.2277 H       1  UNL1        0.0693
     49 H           2.0987   -2.3515    5.9909 H       1  UNL1        0.0351
     50 H           3.1501   -3.7527    5.6552 H       1  UNL1        0.0351
     51 H           5.7705    0.0918    2.4262 H       1  UNL1        0.1479
     52 H           5.0226   -1.6345    0.4123 H       1  UNL1        0.0773
     53 H           7.3489   -0.5776   -2.0563 H       1  UNL1        0.0637
     54 H           7.0024   -0.6803   -4.5631 H       1  UNL1        0.0618
     55 H           4.7039   -0.6267   -5.6013 H       1  UNL1        0.0618
     56 H           2.7879   -0.3022   -4.1166 H       1  UNL1        0.0625
     57 H           3.2472    1.6602   -1.0442 H       1  UNL1        0.1698
@<TRIPOS>UNITY_ATOM_ATTR
9 1
charge 1
33 1
charge -1
@<TRIPOS>BOND
     1     1     2    1
     2     2     3    2
     3     3     4    1
     4     5     6   ar
     5     6     7   ar
     6     7     8   ar
     7     8     9   ar
     8     5     9   ar
     9     4    10    1
    10    10    11    2
    11    11    12    1
    12    12    13    1
    13    14    15   ar
    14    15    16   ar
    15    16    17   ar
    16    17    18   ar
    17    14    18   ar
    18    13    19    1
    19    19    20    1
    20    10    20    1
    21    20    21    2
    22    11    22    1
    23    22    23    1
    24     3    23    1
    25    23    24    1
    26    24    25    1
    27    25    26   ar
    28    26    27   ar
    29    27    28   ar
    30    28    29   ar
    31    29    30   ar
    32    25    30   ar
    33    30    31    1
    34    31    32   ar
    35    31    33   ar
    36    24    34    1
    37     2    34    1
    38    13    14    1
    39     4     5    1
    40     1    35    1
    41     1    36    1
    42     1    37    1
    43     4    38    1
    44     6    39    1
    45     7    40    1
    46     8    41    1
    47     9    42    1
    48    12    43    1
    49    12    44    1
    50    13    45    1
    51    15    46    1
    52    16    47    1
    53    17    48    1
    54    19    49    1
    55    19    50    1
    56    22    51    1
    57    23    52    1
    58    26    53    1
    59    27    54    1
    60    28    55    1
    61    29    56    1
    62    34    57    1
