@<TRIPOS>MOLECULE
*****
 58 61 0 0 0
SMALL
GASTEIGER

@<TRIPOS>ATOM
      1 C           1.0755   -0.0877    0.0480 C.3     1  UNL1        0.0788
      2 O           2.5014   -0.1380    0.0036 O.3     1  UNL1       -0.4951
      3 C           3.0963    0.8179   -0.7650 C.ar    1  UNL1        0.1219
      4 C           4.1749    0.4039   -1.5437 C.ar    1  UNL1       -0.0198
      5 C           4.8202    1.2968   -2.3993 C.ar    1  UNL1       -0.0565
      6 C           4.3796    2.6169   -2.4741 C.ar    1  UNL1       -0.0389
      7 C           3.3029    3.0396   -1.6847 C.ar    1  UNL1        0.0549
      8 N           2.7450    4.2898   -1.8016 N.pl3   1  UNL1       -0.2015
      9 N           2.9146    5.2614   -0.8378 N.3     1  UNL1       -0.1797
     10 N           2.8309    6.5037   -1.5130 N.4     1  UNL1        0.4192
     11 N           2.0688    6.2831   -2.7869 N.3     1  UNL1       -0.2341
     12 C           2.0391    4.7859   -2.9608 C.3     1  UNL1        0.1757
     13 S           0.2312    4.2163   -2.9866 S.3     1  UNL1       -0.1079
     14 C           0.2150    2.3245   -3.3368 C.3     1  UNL1        0.0733
     15 C          -1.2986    1.6764   -3.2943 C.2     1  UNL1        0.2230
     16 O          -2.2760    2.3948   -3.1964 O.2     1  UNL1       -0.2749
     17 N          -1.4212    0.2303   -3.3449 N.am    1  UNL1       -0.3143
     18 C          -2.7906   -0.6410   -3.3149 C.3     1  UNL1        0.0157
     19 C          -2.6893   -2.3963   -3.3120 C.3     1  UNL1       -0.0101
     20 C          -3.9418   -3.4373   -3.9024 C.ar    1  UNL1       -0.0209
     21 C          -4.3746   -3.1368   -5.2305 C.ar    1  UNL1        0.0060
     22 N          -5.7399   -3.2641   -4.9313 N.ar    1  UNL1       -0.3603
     23 C          -5.8257   -4.6090   -4.6265 C.ar    1  UNL1        0.0502
     24 C          -6.8510   -5.4597   -5.0672 C.ar    1  UNL1        0.0040
     25 C          -6.9183   -6.8172   -4.8473 C.ar    1  UNL1        0.1221
     26 O          -7.9135   -7.3927   -5.5796 O.3     1  UNL1       -0.4950
     27 C          -8.4080   -8.7221   -5.4730 C.3     1  UNL1        0.0788
     28 C          -5.9277   -7.2653   -3.9901 C.ar    1  UNL1       -0.0193
     29 C          -4.8425   -6.3203   -3.4207 C.ar    1  UNL1       -0.0489
     30 C          -4.6929   -4.8978   -3.8460 C.ar    1  UNL1        0.0031
     31 C           2.7141    2.1501   -0.7819 C.ar    1  UNL1        0.0026
     32 H           0.7490   -0.8302    0.7808 H       1  UNL1        0.0660
     33 H           0.6447   -0.3556   -0.9239 H       1  UNL1        0.0660
     34 H           0.6939    0.8823    0.3777 H       1  UNL1        0.0660
     35 H           4.5059   -0.6295   -1.4829 H       1  UNL1        0.0654
     36 H           5.6490    0.9503   -3.0146 H       1  UNL1        0.0619
     37 H           4.9013    3.3064   -3.1347 H       1  UNL1        0.0636
     38 H           3.7301    5.1067   -0.2269 H       1  UNL1        0.1991
     39 H           3.7826    6.8788   -1.6945 H       1  UNL1        0.2445
     40 H           2.3373    7.1994   -0.9184 H       1  UNL1        0.2445
     41 H           2.5474    6.6952   -3.5918 H       1  UNL1        0.1771
     42 H           2.5496    4.5499   -3.9038 H       1  UNL1        0.0851
     43 H           0.7996    1.8532   -2.5536 H       1  UNL1        0.0472
     44 H           0.6805    2.1855   -4.3162 H       1  UNL1        0.0472
     45 H          -0.6141   -0.2546   -3.7086 H       1  UNL1        0.1487
     46 H          -3.3437   -0.3410   -4.2153 H       1  UNL1        0.0465
     47 H          -3.3559   -0.2465   -2.4568 H       1  UNL1        0.0465
     48 H          -2.0747   -2.7839   -2.4767 H       1  UNL1        0.0329
     49 H          -2.0530   -2.4771   -4.1888 H       1  UNL1        0.0329
     50 H          -4.1088   -3.7090   -6.1474 H       1  UNL1        0.0810
     51 H          -6.2495   -2.6175   -4.3440 H       1  UNL1        0.1653
     52 H          -7.5997   -5.0076   -5.7027 H       1  UNL1        0.0675
     53 H          -9.3892   -8.7617   -5.9834 H       1  UNL1        0.0660
     54 H          -8.5872   -9.0150   -4.4389 H       1  UNL1        0.0660
     55 H          -7.7737   -9.4398   -6.0028 H       1  UNL1        0.0660
     56 H          -5.8768   -8.3410   -3.7828 H       1  UNL1        0.0654
     57 H          -4.1525   -6.8588   -2.7641 H       1  UNL1        0.0625
     58 H           1.9163    2.5191   -0.1418 H       1  UNL1        0.0673
@<TRIPOS>UNITY_ATOM_ATTR
10 1
charge 1
@<TRIPOS>BOND
     1     1     2    1
     2     2     3    1
     3     3     4   ar
     4     4     5   ar
     5     5     6   ar
     6     6     7   ar
     7     7     8    1
     8     8     9    1
     9     9    10    1
    10    10    11    1
    11    11    12    1
    12     8    12    1
    13    12    13    1
    14    13    14    1
    15    14    15    1
    16    15    16    2
    17    15    17   am
    18    17    18    1
    19    18    19    1
    20    19    20    1
    21    20    21   ar
    22    21    22   ar
    23    22    23   ar
    24    23    24   ar
    25    24    25   ar
    26    25    26    1
    27    26    27    1
    28    25    28   ar
    29    28    29   ar
    30    29    30   ar
    31    20    30   ar
    32    23    30   ar
    33     7    31   ar
    34     3    31   ar
    35     1    32    1
    36     1    33    1
    37     1    34    1
    38     4    35    1
    39     5    36    1
    40     6    37    1
    41     9    38    1
    42    10    39    1
    43    10    40    1
    44    11    41    1
    45    12    42    1
    46    14    43    1
    47    14    44    1
    48    17    45    1
    49    18    46    1
    50    18    47    1
    51    19    48    1
    52    19    49    1
    53    21    50    1
    54    22    51    1
    55    24    52    1
    56    27    53    1
    57    27    54    1
    58    27    55    1
    59    28    56    1
    60    29    57    1
    61    31    58    1
