REMARK  6 active torsions:
REMARK  status: ('A' for Active; 'I' for Inactive)
REMARK       I    between atoms: C_2  and  N_3 
REMARK    1  A    between atoms: C_2  and  C_13 
REMARK    2  A    between atoms: N_3  and  C_4 
REMARK    3  A    between atoms: C_4  and  C_5 
REMARK    4  A    between atoms: C_10  and  C_11 
REMARK    5  A    between atoms: C_11  and  O_12 
REMARK    6  A    between atoms: C_19  and  O_20 
ROOT
ATOM      1  O   UNL d   1       0.938  -0.105   0.104  0.00  0.00    -0.268 OA
ATOM      2  C   UNL d   1       2.167  -0.073   0.099  0.00  0.00     0.254 C 
ATOM      3  N   UNL d   1       2.902   0.634   1.031  0.00  0.00    -0.353 N 
ATOM      4  H   UNL d   1       3.913   0.656   0.995  0.00  0.00     0.163 HD
ENDROOT
BRANCH   3   5
ATOM      5  C   UNL d   1       2.219   1.292   2.122  0.00  0.00     0.162 C 
BRANCH   5   6
ATOM      6  C   UNL d   1       3.138   2.156   2.950  0.00  0.00    -0.032 C 
ATOM      7  C   UNL d   1       4.019   1.500   3.838  0.00  0.00     0.009 C 
ATOM      8  C   UNL d   1       4.728   2.204   4.810  0.00  0.00     0.001 C 
ATOM      9  C   UNL d   1       4.639   3.587   4.861  0.00  0.00     0.001 C 
ATOM     10  C   UNL d   1       3.839   4.259   3.936  0.00  0.00     0.010 C 
ATOM     11  C   UNL d   1       3.099   3.565   2.949  0.00  0.00    -0.027 C 
BRANCH  11  12
ATOM     12  C   UNL d   1       2.299   4.431   1.993  0.00  0.00     0.203 C 
BRANCH  12  13
ATOM     13  O   UNL d   1       1.740   3.805   0.853  0.00  0.00    -0.396 OA
ATOM     14  H   UNL d   1       2.377   3.155   0.513  0.00  0.00     0.209 HD
ENDBRANCH  12  13
ENDBRANCH  11  12
ENDBRANCH   5   6
ENDBRANCH   3   5
BRANCH   2  15
ATOM     15  C   UNL d   1       2.941  -0.844  -0.907  0.00  0.00     0.066 A 
ATOM     16  C   UNL d   1       4.016  -1.635  -0.481  0.00  0.00     0.043 A 
ATOM     17  C   UNL d   1       4.774  -2.329  -1.422  0.00  0.00     0.035 A 
ATOM     18 CL   UNL d   1       6.212  -3.135  -0.927  0.00  0.00    -0.084 Cl
ATOM     19  C   UNL d   1       4.414  -2.328  -2.768  0.00  0.00     0.026 A 
ATOM     20  C   UNL d   1       3.324  -1.567  -3.195  0.00  0.00     0.039 A 
ATOM     21  C   UNL d   1       2.598  -0.815  -2.267  0.00  0.00     0.081 A 
BRANCH  21  22
ATOM     22  O   UNL d   1       1.575  -0.022  -2.701  0.00  0.00    -0.360 OA
ATOM     23  H   UNL d   1       1.374  -0.203  -3.633  0.00  0.00     0.217 HD
ENDBRANCH  21  22
ENDBRANCH   2  15
TORSDOF 6
