REMARK  11 active torsions:
REMARK  status: ('A' for Active; 'I' for Inactive)
REMARK    1  A    between atoms: C_2  and  N_3 
REMARK    2  A    between atoms: C_5  and  C_6 
REMARK    3  A    between atoms: C_7  and  N_8 
REMARK    4  A    between atoms: C_7  and  C_23 
REMARK       I    between atoms: N_8  and  C_9 
REMARK    5  A    between atoms: C_9  and  C_11 
REMARK    6  A    between atoms: C_13  and  O_14 
REMARK    7  A    between atoms: C_16  and  O_17 
REMARK    8  A    between atoms: C_19  and  O_20 
REMARK       I    between atoms: C_23  and  N_25 
REMARK    9  A    between atoms: N_25  and  CA_26 
REMARK   10  A    between atoms: CA_26  and  C_27 
REMARK   11  A    between atoms: C_27  and  O_28 
ROOT
ATOM      1  C   UNK d   1       4.431  -1.459  -4.177  0.00  0.00     0.043 C 
ATOM      2  C   UNK d   1       4.969  -0.351  -4.802  0.00  0.00     0.084 C 
ENDROOT
BRANCH   2   3
ATOM      3  N   UNK d   1       5.150   0.915  -4.200  0.00  0.00    -0.220 NA
ATOM      4  C   UNK d   0       4.197   1.349  -3.310  0.00  0.00     0.235 C 
ATOM      5  O   UNK d   0       3.023   1.062  -3.464  0.00  0.00    -0.274 OA
ATOM      6  H   UNK d   1       5.387   1.673  -4.820  0.00  0.00     0.137 HD
BRANCH   4   7
ATOM      7  C   UNK d   0       4.463   2.415  -2.314  0.00  0.00     0.032 C 
ATOM      8  C   UNK d   0       4.810   2.344  -0.942  0.00  0.00     0.056 C 
ATOM      9  C   UNK d   0       4.584   3.454  -0.094  0.00  0.00     0.105 C 
ATOM     10  C   UNK d   0       4.021   4.624  -0.649  0.00  0.00     0.135 C 
ATOM     11  C   UNK d   0       3.578   4.620  -1.983  0.00  0.00     0.105 C 
ATOM     12  C   UNK d   0       3.765   3.507  -2.763  0.00  0.00     0.056 C 
BRANCH   9  13
ATOM     13  O   UNK d   0       4.926   3.262   1.234  0.00  0.00    -0.353 OA
ATOM     14  C   UNK d   0       4.958   4.417   2.084  0.00  0.00     0.210 C 
ENDBRANCH   9  13
BRANCH  10  15
ATOM     15  O   UNK d   0       3.940   5.715   0.168  0.00  0.00    -0.351 OA
ATOM     16  C   UNK d   0       3.553   6.957  -0.381  0.00  0.00     0.210 C 
ENDBRANCH  10  15
BRANCH  11  17
ATOM     17  O   UNK d   0       2.957   5.712  -2.512  0.00  0.00    -0.353 OA
ATOM     18  C   UNK d   0       2.582   5.668  -3.880  0.00  0.00     0.210 C 
ENDBRANCH  11  17
ENDBRANCH   4   7
ENDBRANCH   2   3
BRANCH   2  19
ATOM     19  C   UNK d   1       5.414  -0.477  -6.299  0.00  0.00     0.263 C 
ATOM     20  O   UNK d   1       5.406  -1.548  -6.904  0.00  0.00    -0.267 OA
ATOM     21  N   GLY d   2       5.836   0.696  -6.916  0.00  0.00    -0.354 N 
ATOM     22  H   GLY d   2       5.811   1.577  -6.446  0.00  0.00     0.162 HD
BRANCH  21  23
ATOM     23  CA  GLY d   2       6.389   0.755  -8.267  0.00  0.00     0.149 C 
BRANCH  23  24
ATOM     24  C   GLY d   2       6.821   2.181  -8.649  0.00  0.00     0.183 C 
BRANCH  24  25
ATOM     25  O   GLY d   2       7.370   2.234  -9.957  0.00  0.00    -0.399 OA
ATOM     26  H   GLY d   2       8.137   1.635  -9.983  0.00  0.00     0.209 HD
ENDBRANCH  24  25
ENDBRANCH  23  24
ENDBRANCH  21  23
ENDBRANCH   2  19
BRANCH   1  27
ATOM     27  C   UNK d   1       3.858  -1.708  -2.819  0.00  0.00    -0.006 C 
ATOM     28  C   UNK d   1       3.765  -0.824  -1.780  0.00  0.00     0.103 C 
ATOM     29  N   UNK d   1       2.950  -1.218  -0.772  0.00  0.00    -0.356 N 
ATOM     30  C   UNK d   1       2.769  -2.552  -0.917  0.00  0.00     0.045 A 
ATOM     31  C   UNK d   1       2.199  -3.449  -0.016  0.00  0.00     0.030 A 
ATOM     32  C   UNK d   1       3.272  -2.893  -2.204  0.00  0.00     0.002 A 
ATOM     33  C   UNK d   1       2.119  -4.771  -0.417  0.00  0.00     0.002 A 
ATOM     34  C   UNK d   1       2.568  -5.158  -1.681  0.00  0.00     0.001 A 
ATOM     35  C   UNK d   1       3.126  -4.239  -2.590  0.00  0.00     0.014 A 
BRANCH  29  36
ATOM     36  C   UNK d   1       2.447  -0.286   0.228  0.00  0.00     0.124 C 
ATOM     37  C   UNK d   1       0.947  -0.092   0.149  0.00  0.00     0.027 C 
ENDBRANCH  29  36
ENDBRANCH   1  27
TORSDOF 11
