@<TRIPOS>MOLECULE
*****
 38 40 0 0 0
SMALL
GASTEIGER

@<TRIPOS>ATOM
      1 C           1.0231    0.0210    0.0446 C.3     1  UNL1       -0.0418
      2 C           2.5677    0.0442    0.0617 C.3     1  UNL1        0.0524
      3 C           3.0163    1.2782   -0.7461 C.3     1  UNL1       -0.0418
      4 C           3.0274    0.1629    1.5441 C.3     1  UNL1        0.0649
      5 O           2.5099    1.3284    2.1828 O.3     1  UNL1       -0.3929
      6 N           3.1069   -1.1808   -0.5718 N.am    1  UNL1       -0.3002
      7 C           4.4713   -1.4449   -0.6702 C.2     1  UNL1        0.3022
      8 O           5.3100   -0.6951   -0.1622 O.2     1  UNL1       -0.2649
      9 C           4.8490   -2.6392   -1.3912 C.ar    1  UNL1        0.3136
     10 N           4.2869   -3.1445   -2.4719 N.ar    1  UNL1       -0.1831
     11 C           5.1416   -4.1865   -2.7747 C.ar    1  UNL1        0.2032
     12 C           4.9843   -5.0044   -3.9590 C.ar    1  UNL1        0.0316
     13 C           4.9793   -4.4452   -5.2463 C.ar    1  UNL1       -0.0502
     14 C           4.8688   -5.2618   -6.3726 C.ar    1  UNL1       -0.0591
     15 C           4.7396   -6.6502   -6.2500 C.ar    1  UNL1       -0.0378
     16 C           4.7450   -7.1926   -4.9577 C.ar    1  UNL1        0.0471
     17 N           4.6583   -8.5034   -4.5394 N.ar    1  UNL1       -0.3606
     18 C           4.7519   -8.5729   -3.1751 C.ar    1  UNL1        0.0028
     19 C           4.8518   -7.2898   -2.6952 C.ar    1  UNL1       -0.0360
     20 C           4.8688   -6.4035   -3.8105 C.ar    1  UNL1        0.0104
     21 N           6.1394   -4.3596   -1.8919 N.ar    1  UNL1       -0.0555
     22 O           5.9615   -3.3165   -0.9883 O.2     1  UNL1       -0.3276
     23 H           0.6073    0.9319    0.4947 H       1  UNL1        0.0251
     24 H           0.6287   -0.8323    0.6078 H       1  UNL1        0.0251
     25 H           0.6303   -0.0441   -0.9758 H       1  UNL1        0.0251
     26 H           2.6128    2.2080   -0.3330 H       1  UNL1        0.0251
     27 H           2.6786    1.2081   -1.7863 H       1  UNL1        0.0251
     28 H           4.1058    1.3771   -0.7631 H       1  UNL1        0.0251
     29 H           4.1148    0.1920    1.6438 H       1  UNL1        0.0578
     30 H           2.6787   -0.7066    2.1137 H       1  UNL1        0.0578
     31 H           2.9189    2.0986    1.7512 H       1  UNL1        0.2095
     32 H           2.4668   -1.8570   -0.9784 H       1  UNL1        0.1498
     33 H           5.0885   -3.3703   -5.3725 H       1  UNL1        0.0625
     34 H           4.8949   -4.8137   -7.3642 H       1  UNL1        0.0618
     35 H           4.6554   -7.2791   -7.1317 H       1  UNL1        0.0638
     36 H           4.5677   -9.2994   -5.1555 H       1  UNL1        0.1653
     37 H           4.7445   -9.5230   -2.6591 H       1  UNL1        0.0807
     38 H           4.9366   -7.0079   -1.6535 H       1  UNL1        0.0639
@<TRIPOS>BOND
     1     1     2    1
     2     2     3    1
     3     2     4    1
     4     4     5    1
     5     2     6    1
     6     6     7   am
     7     7     8    2
     8     7     9    1
     9     9    10   ar
    10    10    11   ar
    11    11    12    1
    12    12    13   ar
    13    13    14   ar
    14    14    15   ar
    15    15    16   ar
    16    16    17   ar
    17    17    18   ar
    18    18    19   ar
    19    19    20   ar
    20    12    20   ar
    21    16    20   ar
    22    11    21   ar
    23    21    22   ar
    24     9    22   ar
    25     1    23    1
    26     1    24    1
    27     1    25    1
    28     3    26    1
    29     3    27    1
    30     3    28    1
    31     4    29    1
    32     4    30    1
    33     5    31    1
    34     6    32    1
    35    13    33    1
    36    14    34    1
    37    15    35    1
    38    17    36    1
    39    18    37    1
    40    19    38    1
