@<TRIPOS>MOLECULE
*****
 52 54 0 0 0
SMALL
GASTEIGER

@<TRIPOS>ATOM
      1 C          -2.4249   -0.0398   -0.0064 C.3     1  UNL1       -0.0222
      2 C          -0.9187   -0.0172   -0.0045 C.ar    1  UNL1        0.0433
      3 C          -0.2243   -1.2121    0.0007 C.ar    1  UNL1       -0.0224
      4 C           1.1460   -1.1129    0.0015 C.ar    1  UNL1        0.0329
      5 N           1.8075    0.0548   -0.0118 N.ar    1  UNL1       -0.2217
      6 C           1.0603    1.1542   -0.0227 C.ar    1  UNL1        0.2349
      7 N           1.6842    2.4054   -0.0831 N.pl3   1  UNL1       -0.1836
      8 S           3.3472    2.4929   -0.1342 S.O2    1  UNL1        0.0746
      9 O           3.8693    2.0324    1.1311 O.2     1  UNL1       -0.1499
     10 O           3.8080    1.9518   -1.4017 O.2     1  UNL1       -0.1499
     11 C           3.7779    4.2383   -0.1958 C.ar    1  UNL1        0.1087
     12 C           5.0929    4.6506    0.0946 C.ar    1  UNL1       -0.0333
     13 C           5.4179    6.0283    0.1714 C.ar    1  UNL1       -0.0386
     14 C           4.4502    7.0019   -0.1144 C.ar    1  UNL1        0.0338
     15 N           4.7886    8.3895   -0.1431 N.am    1  UNL1       -0.2815
     16 C           3.8927    9.4135   -0.4611 C.2     1  UNL1        0.2483
     17 O           2.7018    9.2904   -0.7332 O.2     1  UNL1       -0.2699
     18 C           4.3893   10.8065   -0.5076 C.ar    1  UNL1        0.0372
     19 C           3.5441   11.8381   -0.0619 C.ar    1  UNL1       -0.0462
     20 C           3.8691   13.1807   -0.2967 C.ar    1  UNL1       -0.0192
     21 C           5.0869   13.5088   -0.8927 C.ar    1  UNL1        0.1209
     22 O           5.3377   14.8494   -1.0552 O.3     1  UNL1       -0.4894
     23 C           6.6114   15.2303   -1.6027 C.3     1  UNL1        0.0946
     24 C           6.6891   14.9083   -3.0975 C.3     1  UNL1       -0.0281
     25 C           6.7847   16.7459   -1.4547 C.3     1  UNL1       -0.0281
     26 C           5.9370   12.4689   -1.2900 C.ar    1  UNL1       -0.0192
     27 C           5.5769   11.1264   -1.1486 C.ar    1  UNL1       -0.0462
     28 C           3.1571    6.5532   -0.4027 C.ar    1  UNL1       -0.0386
     29 C           2.8179    5.1990   -0.4573 C.ar    1  UNL1       -0.0333
     30 N          -0.2870    1.1885   -0.0161 N.ar    1  UNL1       -0.2185
     31 H          -2.8160   -1.0656   -0.0116 H       1  UNL1        0.0293
     32 H          -2.8110    0.4628   -0.8981 H       1  UNL1        0.0293
     33 H          -2.8160    0.4561    0.8869 H       1  UNL1        0.0293
     34 H          -0.7145   -2.1777    0.0002 H       1  UNL1        0.0651
     35 H           1.7753   -1.9973    0.0072 H       1  UNL1        0.0831
     36 H           1.0613    3.1960   -0.0421 H       1  UNL1        0.1767
     37 H           5.8729    3.9055    0.2546 H       1  UNL1        0.0638
     38 H           6.4281    6.3079    0.4664 H       1  UNL1        0.0637
     39 H           5.7506    8.6353    0.0602 H       1  UNL1        0.1551
     40 H           2.6101   11.5924    0.4415 H       1  UNL1        0.0626
     41 H           3.1607   13.9609   -0.0235 H       1  UNL1        0.0654
     42 H           7.4177   14.7525   -1.0301 H       1  UNL1        0.0727
     43 H           5.8815   15.4134   -3.6346 H       1  UNL1        0.0265
     44 H           6.5609   13.8504   -3.3284 H       1  UNL1        0.0265
     45 H           7.6561   15.2090   -3.5087 H       1  UNL1        0.0265
     46 H           5.9861   17.2827   -1.9792 H       1  UNL1        0.0265
     47 H           7.7448   17.0675   -1.8764 H       1  UNL1        0.0265
     48 H           6.7478   17.0597   -0.4072 H       1  UNL1        0.0265
     49 H           6.8918   12.6581   -1.7624 H       1  UNL1        0.0654
     50 H           6.2098   10.3633   -1.5895 H       1  UNL1        0.0626
     51 H           2.3449    7.2414   -0.5955 H       1  UNL1        0.0637
     52 H           1.7992    4.9542   -0.7237 H       1  UNL1        0.0638
@<TRIPOS>BOND
     1     1     2    1
     2     2     3   ar
     3     3     4   ar
     4     4     5   ar
     5     5     6   ar
     6     6     7    1
     7     7     8    1
     8     8     9    2
     9     8    10    2
    10     8    11    1
    11    11    12   ar
    12    12    13   ar
    13    13    14   ar
    14    14    15    1
    15    15    16   am
    16    16    17    2
    17    16    18    1
    18    18    19   ar
    19    19    20   ar
    20    20    21   ar
    21    21    22    1
    22    22    23    1
    23    23    24    1
    24    23    25    1
    25    21    26   ar
    26    26    27   ar
    27    18    27   ar
    28    14    28   ar
    29    28    29   ar
    30    11    29   ar
    31     6    30   ar
    32     2    30   ar
    33     1    31    1
    34     1    32    1
    35     1    33    1
    36     3    34    1
    37     4    35    1
    38     7    36    1
    39    12    37    1
    40    13    38    1
    41    15    39    1
    42    19    40    1
    43    20    41    1
    44    23    42    1
    45    24    43    1
    46    24    44    1
    47    24    45    1
    48    25    46    1
    49    25    47    1
    50    25    48    1
    51    26    49    1
    52    27    50    1
    53    28    51    1
    54    29    52    1
