@<TRIPOS>MOLECULE
*****
 53 56 0 0 0
SMALL
GASTEIGER

@<TRIPOS>ATOM
      1 C           0.9572   -0.0170    0.2278 C.3     1  UNL1       -0.0190
      2 C           2.4862    0.0731    0.0715 C.3     1  UNL1        0.1743
      3 O           2.9302    0.7654   -1.1207 O.3     1  UNL1       -0.4798
      4 C           2.5711    0.2378   -2.3413 C.ar    1  UNL1        0.1217
      5 C           1.2471    0.0056   -2.7196 C.ar    1  UNL1       -0.0189
      6 C           0.9163   -0.5826   -3.9410 C.ar    1  UNL1       -0.0443
      7 C           1.9108   -0.8032   -4.8777 C.ar    1  UNL1        0.0181
      8 BR          1.4429   -1.5058   -6.5673 Br      1  UNL1       -0.0503
      9 C           3.2281   -0.4540   -4.5837 C.ar    1  UNL1       -0.0443
     10 C           3.5593    0.0562   -3.3129 C.ar    1  UNL1       -0.0189
     11 C           2.9922    0.7841    1.3710 C.2     1  UNL1        0.2726
     12 O           2.1932    1.2140    2.2186 O.2     1  UNL1       -0.2700
     13 N           4.3671    0.8563    1.5654 N.am    1  UNL1       -0.2039
     14 N           4.8256    1.3868    2.7610 N.2     1  UNL1       -0.1875
     15 C           6.0985    1.5483    2.9119 C.2     1  UNL1        0.0564
     16 C           6.6087    2.1278    4.1428 C.ar    1  UNL1        0.0403
     17 C           6.1241    1.9692    5.4263 C.ar    1  UNL1        0.0405
     18 N           6.9170    2.7222    6.2621 N.ar    1  UNL1       -0.2387
     19 C           6.8673    2.7573    7.6796 C.ar    1  UNL1        0.0654
     20 C           6.8524    3.9832    8.3570 C.ar    1  UNL1       -0.0363
     21 C           6.8860    4.0040    9.7570 C.ar    1  UNL1       -0.0598
     22 C           6.9181    2.8093   10.4779 C.ar    1  UNL1       -0.0616
     23 C           6.9305    1.5889    9.8016 C.ar    1  UNL1       -0.0598
     24 C           6.8912    1.5574    8.4030 C.ar    1  UNL1       -0.0363
     25 N           7.8832    3.3842    5.5778 N.ar    1  UNL1       -0.1657
     26 C           7.7281    2.9969    4.3001 C.ar    1  UNL1        0.1017
     27 C           8.5616    3.5370    3.2295 C.ar    1  UNL1        0.0027
     28 C           9.9283    3.2469    3.1419 C.ar    1  UNL1       -0.0525
     29 C          10.6988    3.8150    2.1206 C.ar    1  UNL1       -0.0611
     30 C          10.0971    4.6181    1.1503 C.ar    1  UNL1       -0.0617
     31 C           8.7323    4.8890    1.2191 C.ar    1  UNL1       -0.0611
     32 C           7.9700    4.3583    2.2598 C.ar    1  UNL1       -0.0525
     33 H           0.5084   -0.7173   -0.4777 H       1  UNL1        0.0270
     34 H           0.5024    0.9729    0.0906 H       1  UNL1        0.0270
     35 H           0.6569   -0.4048    1.2052 H       1  UNL1        0.0270
     36 H           2.9058   -0.9419    0.0701 H       1  UNL1        0.0829
     37 H           0.4121    0.3167   -2.1074 H       1  UNL1        0.0654
     38 H          -0.1235   -0.8226   -4.1479 H       1  UNL1        0.0630
     39 H           3.9996   -0.5696   -5.3409 H       1  UNL1        0.0630
     40 H           4.5913    0.3290   -3.1087 H       1  UNL1        0.0654
     41 H           5.0215    0.5328    0.8612 H       1  UNL1        0.1773
     42 H           6.8330    1.2890    2.1305 H       1  UNL1        0.0852
     43 H           5.2716    1.4265    5.8083 H       1  UNL1        0.0837
     44 H           6.7693    4.9206    7.8117 H       1  UNL1        0.0639
     45 H           6.8977    4.9527   10.2895 H       1  UNL1        0.0618
     46 H           6.9373    2.8295   11.5659 H       1  UNL1        0.0618
     47 H           6.9944    0.6619   10.3669 H       1  UNL1        0.0618
     48 H           6.9491    0.5982    7.8958 H       1  UNL1        0.0639
     49 H          10.4014    2.5834    3.8624 H       1  UNL1        0.0624
     50 H          11.7722    3.6430    2.0865 H       1  UNL1        0.0618
     51 H          10.6929    5.0394    0.3440 H       1  UNL1        0.0618
     52 H           8.2628    5.5292    0.4768 H       1  UNL1        0.0618
     53 H           6.9108    4.5999    2.3203 H       1  UNL1        0.0624
@<TRIPOS>BOND
     1     1     2    1
     2     2     3    1
     3     3     4    1
     4     4     5   ar
     5     5     6   ar
     6     6     7   ar
     7     7     8    1
     8     7     9   ar
     9     9    10   ar
    10     4    10   ar
    11     2    11    1
    12    11    12    2
    13    11    13   am
    14    13    14    1
    15    14    15    2
    16    15    16    1
    17    16    17   ar
    18    17    18   ar
    19    18    19    1
    20    19    20   ar
    21    20    21   ar
    22    21    22   ar
    23    22    23   ar
    24    23    24   ar
    25    19    24   ar
    26    18    25   ar
    27    25    26   ar
    28    16    26   ar
    29    26    27    1
    30    27    28   ar
    31    28    29   ar
    32    29    30   ar
    33    30    31   ar
    34    31    32   ar
    35    27    32   ar
    36     1    33    1
    37     1    34    1
    38     1    35    1
    39     2    36    1
    40     5    37    1
    41     6    38    1
    42     9    39    1
    43    10    40    1
    44    13    41    1
    45    15    42    1
    46    17    43    1
    47    20    44    1
    48    21    45    1
    49    22    46    1
    50    23    47    1
    51    24    48    1
    52    28    49    1
    53    29    50    1
    54    30    51    1
    55    31    52    1
    56    32    53    1
