REMARK  13 active torsions:
REMARK  status: ('A' for Active; 'I' for Inactive)
REMARK    1  A    between atoms: C_2  and  O_3 
REMARK    2  A    between atoms: O_3  and  C_4 
REMARK    3  A    between atoms: C_4  and  C_6 
REMARK    4  A    between atoms: C_10  and  N_11 
REMARK    5  A    between atoms: C_15  and  C_16 
REMARK    6  A    between atoms: N_17  and  N_18 
REMARK       I    between atoms: N_18  and  C_19 
REMARK    7  A    between atoms: C_19  and  C_21 
REMARK    8  A    between atoms: C_21  and  C_22 
REMARK    9  A    between atoms: C_23  and  C_22 
REMARK   10  A    between atoms: C_23  and  C_25 
REMARK   11  A    between atoms: C_23  and  O_24 
REMARK   12  A    between atoms: C_28  and  O_29 
REMARK   13  A    between atoms: O_29  and  C_30 
ROOT
ATOM      1  C   UNL d   1       6.627  -4.474   9.199  0.00  0.00     0.152 C 
ATOM      2  N   UNL d   1       6.285  -3.872  10.304  0.00  0.00    -0.184 NA
ENDROOT
BRANCH   1   3
ATOM      3  C   UNL d   1       5.805  -4.746   8.017  0.00  0.00     0.008 A 
ATOM      4  C   UNL d   1       4.453  -4.420   7.747  0.00  0.00     0.040 A 
ATOM      5  C   UNL d   1       4.103  -4.839   6.497  0.00  0.00     0.014 A 
ATOM      6  N   UNL d   1       5.209  -5.429   5.942  0.00  0.00    -0.319 N 
ATOM      7  C   UNL d   1       2.736  -4.722   5.925  0.00  0.00     0.068 C 
ATOM      8  C   UNL d   1       6.251  -5.411   6.867  0.00  0.00     0.025 A 
ATOM      9  C   UNL d   1       7.605  -5.955   6.524  0.00  0.00     0.070 C 
BRANCH   6  10
ATOM     10  C   UNL d   1       5.246  -5.958   4.643  0.00  0.00     0.040 A 
ATOM     11  C   UNL d   1       5.487  -7.322   4.475  0.00  0.00     0.030 A 
ATOM     12  C   UNL d   1       5.371  -7.865   3.203  0.00  0.00     0.003 A 
ATOM     13  C   UNL d   1       5.039  -7.043   2.117  0.00  0.00     0.018 A 
ATOM     14  C   UNL d   1       4.750  -5.680   2.306  0.00  0.00     0.041 A 
ATOM     15  C   UNL d   1       4.877  -5.128   3.576  0.00  0.00     0.047 A 
BRANCH  14  16
ATOM     16  C   UNL d   1       4.110  -4.905   1.215  0.00  0.00     0.293 C 
ATOM     17  O   UNL d   1       3.333  -5.430   0.424  0.00  0.00    -0.259 OA
BRANCH  16  18
ATOM     18  O   UNL d   1       4.452  -3.590   1.240  0.00  0.00    -0.318 OA
BRANCH  18  19
ATOM     19  C   UNL d   1       3.799  -2.802   0.225  0.00  0.00     0.174 C 
ATOM     20  C   UNL d   1       4.296  -1.366   0.281  0.00  0.00     0.034 C 
ENDBRANCH  18  19
ENDBRANCH  16  18
ENDBRANCH  14  16
ENDBRANCH   6  10
ENDBRANCH   1   3
BRANCH   2  21
ATOM     21  N   UNL d   1       5.026  -3.403  10.471  0.00  0.00    -0.247 N 
ATOM     22  C   UNL d   1       4.597  -2.763  11.603  0.00  0.00     0.237 C 
ATOM     23  O   UNL d   1       5.292  -2.544  12.590  0.00  0.00    -0.272 OA
ATOM     24  H   UNL d   1       4.354  -3.516   9.751  0.00  0.00     0.192 HD
BRANCH  22  25
ATOM     25  C   UNL d   1       3.128  -2.348  11.503  0.00  0.00     0.107 C 
BRANCH  25  26
ATOM     26  C   UNL d   1       2.733  -1.672  12.811  0.00  0.00     0.046 C 
BRANCH  26  27
ATOM     27  C   UNL d   1       1.284  -1.205  12.817  0.00  0.00     0.151 C 
BRANCH  27  28
ATOM     28  C   UNL d   1       0.598  -1.458  14.144  0.00  0.00    -0.029 A 
ATOM     29  C   UNL d   1       0.218  -2.762  14.505  0.00  0.00     0.012 A 
ATOM     30  C   UNL d   1      -0.599  -2.980  15.622  0.00  0.00     0.037 A 
ATOM     31  C   UNL d   1      -0.961  -1.916  16.449  0.00  0.00     0.068 A 
ATOM     32  C   UNL d   1      -0.529  -0.632  16.128  0.00  0.00     0.037 A 
ATOM     33  C   UNL d   1       0.247  -0.407  14.996  0.00  0.00     0.012 A 
BRANCH  31  34
ATOM     34  O   UNL d   1      -1.726  -2.229  17.543  0.00  0.00    -0.352 OA
BRANCH  34  35
ATOM     35  C   UNL d   1      -1.980  -1.145  18.442  0.00  0.00     0.171 C 
ATOM     36  C   UNL d   1      -2.730  -1.667  19.650  0.00  0.00     0.034 C 
ENDBRANCH  34  35
ENDBRANCH  31  34
ENDBRANCH  27  28
BRANCH  27  37
ATOM     37  O   UNL d   1       1.262   0.183  12.469  0.00  0.00    -0.391 OA
ATOM     38  H   UNL d   1       1.785   0.651  13.144  0.00  0.00     0.210 HD
ENDBRANCH  27  37
ENDBRANCH  26  27
ENDBRANCH  25  26
ENDBRANCH  22  25
ENDBRANCH   2  21
TORSDOF 13
