@<TRIPOS>MOLECULE
*****
 68 72 0 0 0
SMALL
GASTEIGER

@<TRIPOS>ATOM
      1 C           0.7461    0.0067    0.3721 C.3     1  UNL1       -0.0564
      2 C           2.3401    0.2079    0.1300 C.3     1  UNL1        0.0036
      3 C           2.9883   -0.1374    1.4429 C.3     1  UNL1       -0.0442
      4 C           2.5031   -1.4661    1.8561 C.3     1  UNL1       -0.0483
      5 C           3.0187   -2.4548    0.8162 C.3     1  UNL1       -0.0224
      6 C           2.2898   -2.1897   -0.6532 C.3     1  UNL1       -0.0078
      7 C           2.8895   -3.2808   -1.6159 C.3     1  UNL1       -0.0447
      8 C           2.5173   -4.6980   -1.2482 C.3     1  UNL1       -0.0227
      9 C           3.0133   -5.1293    0.0904 C.3     1  UNL1        0.0792
     10 O           2.2325   -6.4225    0.1703 O.3     1  UNL1       -0.3876
     11 C           4.4011   -5.7348    0.2747 C.3     1  UNL1        0.0030
     12 C           4.4496   -6.3145    1.7948 C.3     1  UNL1        0.0579
     13 O           4.9469   -7.5301    2.1683 O.3     1  UNL1       -0.3917
     14 C           4.5764   -4.9862    2.2655 C.3     1  UNL1       -0.0258
     15 C           2.6517   -4.9132    2.1524 C.3     1  UNL1       -0.0372
     16 C           2.6977   -3.8133    1.3060 C.3     1  UNL1        0.0395
     17 C           3.0528   -3.6136    3.1351 C.2     1  UNL1        0.0324
     18 N           4.0439   -2.9526    3.6554 N.2     1  UNL1       -0.1908
     19 N           4.3176   -3.4257    4.9214 N.am    1  UNL1       -0.1913
     20 C           5.3078   -2.7715    5.5292 C.2     1  UNL1        0.3165
     21 N           5.7720   -1.7428    4.8178 N.am    1  UNL1       -0.3120
     22 O           5.7470   -3.1055    6.6970 O.2     1  UNL1       -0.2513
     23 C           2.5051   -0.6314   -1.1367 C.3     1  UNL1        0.0751
     24 O           3.8691   -0.6495   -1.6026 O.3     1  UNL1       -0.3877
     25 C           1.6643    0.6854   -1.9696 C.3     1  UNL1       -0.0226
     26 C           2.7545    1.7275   -1.8528 C.3     1  UNL1       -0.0432
     27 C           3.0036    1.5854   -0.3234 C.3     1  UNL1       -0.0081
     28 C           2.4380    2.6593    0.5539 C.2     1  UNL1       -0.0222
     29 C           1.1471    2.9329    0.7239 C.2     1  UNL1        0.0252
     30 C           1.0129    3.8212    1.8670 C.2     1  UNL1        0.3323
     31 O          -0.0379    4.1764    2.3125 O.2     1  UNL1       -0.2456
     32 O           2.2672    4.1204    2.3171 O.3     1  UNL1       -0.4571
     33 C           3.2405    3.4044    1.5474 C.3     1  UNL1        0.1147
     34 H           0.4678   -1.0114    0.6406 H       1  UNL1        0.0236
     35 H           0.1007    0.0535   -0.5108 H       1  UNL1        0.0236
     36 H           0.3598    0.6381    1.1575 H       1  UNL1        0.0236
     37 H           2.6925    0.5702    2.2239 H       1  UNL1        0.0272
     38 H           4.0864   -0.1378    1.4157 H       1  UNL1        0.0272
     39 H           1.4322   -1.6030    2.0214 H       1  UNL1        0.0268
     40 H           2.8444   -1.5102    2.8784 H       1  UNL1        0.0268
     41 H           4.1103   -2.3411    0.7171 H       1  UNL1        0.0314
     42 H           1.2250   -2.4207   -0.5404 H       1  UNL1        0.0332
     43 H           3.9857   -3.2673   -1.6191 H       1  UNL1        0.0270
     44 H           2.5366   -3.1220   -2.6343 H       1  UNL1        0.0270
     45 H           2.8892   -5.4362   -1.9705 H       1  UNL1        0.0293
     46 H           1.4216   -4.8057   -1.2325 H       1  UNL1        0.0293
     47 H           2.8113   -7.1937    0.0318 H       1  UNL1        0.2102
     48 H           5.0175   -4.8474   -0.0100 H       1  UNL1        0.0318
     49 H           4.7612   -6.4871   -0.4195 H       1  UNL1        0.0318
     50 H           3.8801   -6.2701    2.7428 H       1  UNL1        0.0594
     51 H           4.7721   -8.1262    1.4337 H       1  UNL1        0.2098
     52 H           5.4207   -4.5930    1.6188 H       1  UNL1        0.0290
     53 H           5.1365   -4.8275    3.1905 H       1  UNL1        0.0290
     54 H           1.6776   -4.7036    2.7333 H       1  UNL1        0.0276
     55 H           1.9048   -5.5235    1.6576 H       1  UNL1        0.0276
     56 H           2.5947   -4.3461    3.9454 H       1  UNL1        0.0805
     57 H           4.0087   -4.3408    5.2666 H       1  UNL1        0.1788
     58 H           5.3361   -1.6515    3.8946 H       1  UNL1        0.1465
     59 H           6.4339   -1.0831    5.1715 H       1  UNL1        0.1465
     60 H           4.3421   -1.3842   -1.1790 H       1  UNL1        0.2102
     61 H           0.9101    1.2829   -1.4036 H       1  UNL1        0.0293
     62 H           1.1158    0.6194   -2.9116 H       1  UNL1        0.0293
     63 H           2.5858    2.7688   -2.1474 H       1  UNL1        0.0272
     64 H           3.5290    1.3477   -2.5266 H       1  UNL1        0.0272
     65 H           4.1015    1.5348   -0.2070 H       1  UNL1        0.0353
     66 H           0.2723    2.5112    0.2685 H       1  UNL1        0.0689
     67 H           3.8062    2.7549    2.2241 H       1  UNL1        0.0746
     68 H           3.9136    4.1124    1.0598 H       1  UNL1        0.0746
@<TRIPOS>BOND
     1     2     3    1
     2     3     4    1
     3     4     5    1
     4     5     6    1
     5     6     7    1
     6     7     8    1
     7     8     9    1
     8     9    11    1
     9    11    12    1
    10    12    14    1
    11    14    15    1
    12    15    16    1
    13     5    16    1
    14     9    16    1
    15    17    18    2
    16    18    19    1
    17    19    20   am
    18    20    21   am
    19    20    22    2
    20     6    23    1
    21     2    23    1
    22    23    25    1
    23    25    26    1
    24    26    27    1
    25     2    27    1
    26    28    29    2
    27    29    30    1
    28    30    31    2
    29    30    32    1
    30    32    33    1
    31    28    33    1
    32     1     2    1
    33     9    10    1
    34    12    13    1
    35    16    17    1
    36    23    24    1
    37    27    28    1
    38     1    34    1
    39     1    35    1
    40     1    36    1
    41     3    37    1
    42     3    38    1
    43     4    39    1
    44     4    40    1
    45     5    41    1
    46     6    42    1
    47     7    43    1
    48     7    44    1
    49     8    45    1
    50     8    46    1
    51    10    47    1
    52    11    48    1
    53    11    49    1
    54    12    50    1
    55    13    51    1
    56    14    52    1
    57    14    53    1
    58    15    54    1
    59    15    55    1
    60    17    56    1
    61    19    57    1
    62    21    58    1
    63    21    59    1
    64    24    60    1
    65    25    61    1
    66    25    62    1
    67    26    63    1
    68    26    64    1
    69    27    65    1
    70    29    66    1
    71    33    67    1
    72    33    68    1
