REMARK  4 active torsions:
REMARK  status: ('A' for Active; 'I' for Inactive)
REMARK    1  A    between atoms: O_2  and  C_3 
REMARK       I    between atoms: C_3  and  N_5 
REMARK    2  A    between atoms: N_5  and  N_6 
REMARK       I    between atoms: N_6  and  C_7 
REMARK       I    between atoms: C_7  and  N_9 
REMARK    3  A    between atoms: N_9  and  C_10 
REMARK    4  A    between atoms: C_10  and  C_12 
ROOT
ATOM      1  N   UNL d   1       5.327   0.356   2.563  0.00  0.00    -0.247 N 
ATOM      2  C   UNL d   1       6.713   0.308   2.482  0.00  0.00     0.335 C 
ATOM      3  O   UNL d   1       7.285   0.102   1.413  0.00  0.00    -0.246 OA
ATOM      4  N   UNL d   1       7.386   0.547   3.672  0.00  0.00    -0.334 N 
ATOM      5  H   UNL d   1       4.810   0.479   3.427  0.00  0.00     0.192 HD
ATOM      6  H   UNL d   1       6.873   0.630   4.537  0.00  0.00     0.165 HD
ENDROOT
BRANCH   4   7
ATOM      7  C   UNL d   1       8.865   0.570   3.761  0.00  0.00     0.115 C 
ATOM      8  C   UNL d   1       9.461   1.663   2.860  0.00  0.00     0.037 C 
BRANCH   7   9
ATOM      9  C   UNL d   1       9.376   0.740   5.203  0.00  0.00    -0.035 A 
ATOM     10  C   UNL d   1       9.542   2.005   5.795  0.00  0.00     0.010 A 
ATOM     11  C   UNL d   1      10.011   2.152   7.107  0.00  0.00     0.008 A 
ATOM     12  C   UNL d   1      10.306   1.031   7.889  0.00  0.00    -0.052 A 
ATOM     13  C   UNL d   1      10.193  -0.243   7.309  0.00  0.00    -0.051 A 
ATOM     14  C   UNL d   1      10.754   1.212   9.322  0.00  0.00     0.039 C 
ATOM     15  C   UNL d   1       9.732  -0.376   5.979  0.00  0.00     0.017 A 
ATOM     16  C   UNL d   1      10.447  -1.493   8.118  0.00  0.00     0.039 C 
ATOM     17  C   UNL d   1      11.213  -1.254   9.416  0.00  0.00     0.005 C 
ATOM     18  C   UNL d   1      10.613  -0.065  10.154  0.00  0.00     0.005 C 
ENDBRANCH   7   9
ENDBRANCH   4   7
BRANCH   1  19
ATOM     19  N   UNL d   1       4.534   0.178   1.371  0.00  0.00    -0.241 N 
ATOM     20  C   UNL d   1       3.150   0.190   1.419  0.00  0.00     0.379 C 
ATOM     21  O   UNL d   1       2.508   0.340   2.459  0.00  0.00    -0.237 OA
ATOM     22  H   UNL d   1       5.038   0.056   0.494  0.00  0.00     0.192 HD
BRANCH  20  23
ATOM     23  O   UNL d   1       2.577   0.015   0.189  0.00  0.00    -0.308 OA
ATOM     24  C   UNL d   1       1.131   0.012   0.164  0.00  0.00     0.215 C 
ENDBRANCH  20  23
ENDBRANCH   1  19
TORSDOF 4
