@<TRIPOS>MOLECULE
*****
 49 53 0 0 0
SMALL
GASTEIGER

@<TRIPOS>ATOM
      1 C           0.8643   -0.0089    0.1075 C.3     1  UNL1       -0.0427
      2 N           2.3688   -0.1130    0.0212 N.4     1  UNL1        0.2369
      3 C           2.9020    0.1271   -1.3868 C.3     1  UNL1       -0.0277
      4 C           2.2755   -0.8721   -2.3594 C.3     1  UNL1        0.0144
      5 C           2.3208   -2.2685   -1.8225 C.ar    1  UNL1       -0.0130
      6 C           2.6048   -2.5263   -0.4862 C.ar    1  UNL1        0.0400
      7 S           2.5949   -4.1948   -0.1368 S.2     1  UNL1       -0.0724
      8 C           2.2123   -4.5763   -1.7490 C.ar    1  UNL1        0.0802
      9 C           2.0581   -3.4651   -2.5509 C.ar    1  UNL1        0.0680
     10 C           1.7353   -3.6963   -3.9530 C.2     1  UNL1        0.2198
     11 O           1.3282   -2.6534   -4.7042 O.2     1  UNL1       -0.4921
     12 N           1.8326   -4.8364   -4.5243 N.2     1  UNL1       -0.2228
     13 C           2.3702   -5.9236   -3.7016 C.3     1  UNL1        0.1433
     14 C           3.8698   -6.0819   -3.9887 C.ar    1  UNL1       -0.0053
     15 C           4.8248   -5.0815   -3.7029 C.ar    1  UNL1       -0.0515
     16 C           6.1647   -5.1786   -4.1330 C.ar    1  UNL1       -0.0188
     17 C           6.5933   -6.3291   -4.7998 C.ar    1  UNL1        0.1320
     18 O           7.9799   -6.4586   -5.1491 O.3     1  UNL1       -0.4220
     19 C           8.5422   -7.6129   -5.7594 C.2     1  UNL1        0.3511
     20 O           7.8953   -8.6029   -6.1212 O.2     1  UNL1       -0.2439
     21 C           9.9821   -7.5554   -5.9298 C.ar    1  UNL1        0.0966
     22 C          10.7385   -8.0824   -6.9722 C.ar    1  UNL1       -0.0406
     23 C          12.1432   -8.0364   -6.7129 C.ar    1  UNL1       -0.0539
     24 C          12.4091   -7.5049   -5.4718 C.ar    1  UNL1       -0.0235
     25 S          10.9862   -7.0132   -4.6567 S.2     1  UNL1       -0.0902
     26 C           5.6540   -7.3222   -5.0735 C.ar    1  UNL1       -0.0188
     27 C           4.3174   -7.2058   -4.6790 C.ar    1  UNL1       -0.0515
     28 N           2.1093   -5.8116   -2.2707 N.pl3   1  UNL1       -0.3130
     29 C           2.8688   -1.4675    0.5449 C.3     1  UNL1        0.0005
     30 H           0.5665    0.9522   -0.3177 H       1  UNL1        0.0778
     31 H           0.5766   -0.0824    1.1568 H       1  UNL1        0.0778
     32 H           0.4059   -0.8273   -0.4552 H       1  UNL1        0.0778
     33 H           2.7611    0.6187    0.6273 H       1  UNL1        0.2034
     34 H           3.9911    0.0030   -1.3430 H       1  UNL1        0.0818
     35 H           2.6723    1.1584   -1.6694 H       1  UNL1        0.0818
     36 H           2.7868   -0.8135   -3.3238 H       1  UNL1        0.0366
     37 H           1.2230   -0.6079   -2.5245 H       1  UNL1        0.0366
     38 H           1.1644   -1.8468   -4.2133 H       1  UNL1        0.2937
     39 H           1.8528   -6.8314   -4.0389 H       1  UNL1        0.0805
     40 H           4.5323   -4.1954   -3.1510 H       1  UNL1        0.0623
     41 H           6.8308   -4.3395   -3.9466 H       1  UNL1        0.0654
     42 H          10.3138   -8.5195   -7.8723 H       1  UNL1        0.0631
     43 H          12.9176   -8.4036   -7.3802 H       1  UNL1        0.0623
     44 H          13.3741   -7.3842   -4.9990 H       1  UNL1        0.0693
     45 H           5.9012   -8.2182   -5.6223 H       1  UNL1        0.0654
     46 H           3.6353   -8.0090   -4.9484 H       1  UNL1        0.0623
     47 H           2.1619   -6.6718   -1.7354 H       1  UNL1        0.1489
     48 H           3.9429   -1.3411    0.7297 H       1  UNL1        0.0872
     49 H           2.3648   -1.6452    1.5002 H       1  UNL1        0.0872
@<TRIPOS>UNITY_ATOM_ATTR
2 1
charge 1
@<TRIPOS>BOND
     1     1     2    1
     2     2     3    1
     3     3     4    1
     4     4     5    1
     5     5     6   ar
     6     6     7   ar
     7     7     8   ar
     8     8     9   ar
     9     5     9   ar
    10     9    10    1
    11    10    11    1
    12    10    12    2
    13    12    13    1
    14    14    15   ar
    15    15    16   ar
    16    16    17   ar
    17    17    18    1
    18    18    19    1
    19    19    20    2
    20    19    21    1
    21    21    22   ar
    22    22    23   ar
    23    23    24   ar
    24    24    25   ar
    25    21    25   ar
    26    17    26   ar
    27    26    27   ar
    28    14    27   ar
    29    13    28    1
    30     8    28    1
    31     6    29    1
    32     2    29    1
    33    13    14    1
    34     1    30    1
    35     1    31    1
    36     1    32    1
    37     2    33    1
    38     3    34    1
    39     3    35    1
    40     4    36    1
    41     4    37    1
    42    11    38    1
    43    13    39    1
    44    15    40    1
    45    16    41    1
    46    22    42    1
    47    23    43    1
    48    24    44    1
    49    26    45    1
    50    27    46    1
    51    28    47    1
    52    29    48    1
    53    29    49    1
