REMARK  8 active torsions:
REMARK  status: ('A' for Active; 'I' for Inactive)
REMARK    1  A    between atoms: C_5  and  N_6 
REMARK    2  A    between atoms: N_6  and  C_7 
REMARK    3  A    between atoms: C_9  and  C_10 
REMARK       I    between atoms: C_10  and  N_12 
REMARK    4  A    between atoms: N_12  and  C_13 
REMARK    5  A    between atoms: C_13  and  C_14 
REMARK    6  A    between atoms: C_14  and  C_15 
REMARK    7  A    between atoms: C_18  and  S_19 
REMARK    8  A    between atoms: S_19  and  N_20 
ROOT
ATOM      1  C   UNL d   1      -1.511  -6.378   1.664  0.00  0.00     0.270 C 
ATOM      2  O   UNL d   1      -1.654  -7.574   1.419  0.00  0.00    -0.266 OA
ATOM      3  N   UNL d   1      -0.870  -5.922   2.803  0.00  0.00    -0.355 N 
ATOM      4  H   UNL d   1      -0.788  -4.920   2.942  0.00  0.00     0.162 HD
ENDROOT
BRANCH   1   5
ATOM      5  C   UNL d   1      -2.018  -5.337   0.765  0.00  0.00     0.133 A 
ATOM      6  N   UNL d   1      -1.863  -3.981   1.026  0.00  0.00    -0.218 NA
ATOM      7  C   UNL d   1      -2.429  -3.256   0.082  0.00  0.00     0.171 A 
ATOM      8  S   UNL d   1      -3.204  -4.167  -1.161  0.00  0.00    -0.061 SA
ATOM      9  C   UNL d   1      -2.687  -5.615  -0.413  0.00  0.00     0.090 A 
BRANCH   7  10
ATOM     10  N   UNL d   1      -2.409  -1.903   0.042  0.00  0.00    -0.335 N 
ATOM     11  H   UNL d   1      -3.270  -1.430  -0.185  0.00  0.00     0.168 HD
BRANCH  10  12
ATOM     12  C   UNL d   1      -1.228  -1.127   0.002  0.00  0.00     0.040 A 
ATOM     13  C   UNL d   1       0.029  -1.761   0.005  0.00  0.00     0.030 A 
ATOM     14  C   UNL d   1       1.224  -1.050   0.006  0.00  0.00     0.009 A 
ATOM     15  C   UNL d   1       1.211   0.339   0.002  0.00  0.00    -0.061 A 
ATOM     16  C   UNL d   1       2.510   1.088   0.008  0.00  0.00     0.048 C 
ATOM     17  C   UNL d   1      -0.027   1.000  -0.003  0.00  0.00     0.015 A 
ATOM     18  C   UNL d   1      -1.252   0.284   0.005  0.00  0.00    -0.035 A 
ATOM     19  C   UNL d   1      -2.529   1.085   0.000  0.00  0.00     0.050 C 
ENDBRANCH  10  12
ENDBRANCH   7  10
ENDBRANCH   1   5
BRANCH   3  20
ATOM     20  C   UNL d   1      -0.338  -6.882   3.742  0.00  0.00     0.127 C 
BRANCH  20  21
ATOM     21  C   UNL d   1       0.373  -6.301   4.971  0.00  0.00     0.058 C 
BRANCH  21  22
ATOM     22  C   UNL d   1       0.808  -7.364   5.970  0.00  0.00    -0.057 A 
ATOM     23  C   UNL d   1       0.724  -8.735   5.674  0.00  0.00     0.009 A 
ATOM     24  C   UNL d   1       0.897  -9.699   6.661  0.00  0.00     0.026 A 
ATOM     25  C   UNL d   1       1.294  -9.306   7.936  0.00  0.00     0.079 A 
ATOM     26  C   UNL d   1       1.464  -7.954   8.241  0.00  0.00     0.026 A 
ATOM     27  C   UNL d   1       1.224  -6.986   7.257  0.00  0.00     0.009 A 
BRANCH  25  28
ATOM     28  S   UNL d   1       1.720 -10.560   9.114  0.00  0.00     0.256 S 
ATOM     29  O   UNL d   1       2.634 -11.472   8.455  0.00  0.00    -0.201 OA
ATOM     30  O   UNL d   1       2.014  -9.929  10.372  0.00  0.00    -0.201 OA
BRANCH  28  31
ATOM     31  N   UNL d   1       0.275 -11.370   9.303  0.00  0.00    -0.324 N 
ATOM     32  H   UNL d   1       0.013 -12.009   8.559  0.00  0.00     0.169 HD
ATOM     33  H   UNL d   1      -0.433 -10.898   9.856  0.00  0.00     0.169 HD
ENDBRANCH  28  31
ENDBRANCH  25  28
ENDBRANCH  21  22
ENDBRANCH  20  21
ENDBRANCH   3  20
TORSDOF 8
