REMARK  6 active torsions:
REMARK  status: ('A' for Active; 'I' for Inactive)
REMARK    1  A    between atoms: O_2  and  N_3 
REMARK       I    between atoms: N_3  and  C_4 
REMARK       I    between atoms: C_4  and  N_6 
REMARK    2  A    between atoms: N_6  and  C_7 
REMARK    3  A    between atoms: C_7  and  C_9 
REMARK    4  A    between atoms: C_12  and  O_13 
REMARK    5  A    between atoms: O_13  and  C_14 
REMARK    6  A    between atoms: C_19  and  O_20 
ROOT
ATOM      1  C   UNL d   1       6.331  -4.614  -0.228  0.00  0.00    -0.033 C 
ATOM      2  C   UNL d   1       5.438  -5.578  -0.711  0.00  0.00     0.012 C 
ATOM      3  C   UNL d   1       5.719  -6.945  -0.553  0.00  0.00     0.040 C 
ATOM      4  C   UNL d   1       6.933  -7.364   0.010  0.00  0.00     0.102 C 
ATOM      5  C   UNL d   1       7.826  -6.391   0.477  0.00  0.00     0.102 C 
ATOM      6  C   UNL d   1       7.549  -5.063   0.275  0.00  0.00     0.049 C 
ENDROOT
BRANCH   1   7
ATOM      7  C   UNL d   1       6.080  -3.114  -0.158  0.00  0.00     0.115 C 
ATOM      8  C   UNL d   1       6.742  -2.527   1.120  0.00  0.00     0.037 C 
BRANCH   7   9
ATOM      9  N   UNL d   1       4.659  -2.794  -0.169  0.00  0.00    -0.333 N 
ATOM     10  C   UNL d   1       4.226  -1.493  -0.163  0.00  0.00     0.340 C 
ATOM     11  N   UNL d   1       2.867  -1.371  -0.090  0.00  0.00    -0.217 N 
ATOM     12  O   UNL d   1       5.004  -0.535  -0.203  0.00  0.00    -0.245 OA
ATOM     13  H   UNL d   1       2.217  -2.142  -0.127  0.00  0.00     0.199 HD
ATOM     14  H   UNL d   1       3.989  -3.538  -0.066  0.00  0.00     0.165 HD
BRANCH  11  15
ATOM     15  O   UNL d   1       2.379  -0.043  -0.067  0.00  0.00    -0.281 OA
ATOM     16  C   UNL d   1       0.960  -0.037  -0.065  0.00  0.00     0.237 C 
ENDBRANCH  11  15
ENDBRANCH   7   9
ENDBRANCH   1   7
BRANCH   5  17
ATOM     17  O   UNL d   1       8.944  -6.729   1.163  0.00  0.00    -0.353 OA
ATOM     18  C   UNL d   1       9.925  -5.798   1.578  0.00  0.00     0.210 C 
ENDBRANCH   5  17
BRANCH   4  19
ATOM     19  O   UNL d   1       7.124  -8.724  -0.007  0.00  0.00    -0.343 OA
BRANCH  19  20
ATOM     20  C   UNL d   1       8.380  -9.276   0.390  0.00  0.00     0.129 C 
ATOM     21  C   UNL d   1       9.628  -8.756  -0.346  0.00  0.00     0.032 C 
ATOM     22  C   UNL d   1      10.761  -8.961   0.656  0.00  0.00     0.002 C 
ATOM     23  C   UNL d   1      10.138  -9.129   2.056  0.00  0.00     0.002 C 
ATOM     24  C   UNL d   1       8.622  -9.176   1.901  0.00  0.00     0.032 C 
ENDBRANCH  19  20
ENDBRANCH   4  19
TORSDOF 6
