REMARK  6 active torsions:
REMARK  status: ('A' for Active; 'I' for Inactive)
REMARK    1  A    between atoms: C_2  and  C_19 
REMARK    2  A    between atoms: C_2  and  N_3 
REMARK    3  A    between atoms: N_3  and  C_4 
REMARK    4  A    between atoms: C_7  and  O_8 
REMARK    5  A    between atoms: O_8  and  C_9 
REMARK    6  A    between atoms: C_9  and  C_10 
REMARK       I    between atoms: C_19  and  N_21 
REMARK       I    between atoms: N_21  and  C_22 
REMARK       I    between atoms: C_22  and  N_23 
ROOT
ATOM      1  C   UNL d   1       0.267   0.791   0.911  0.00  0.00     0.028 C 
ATOM      2  C   UNL d   1       0.815   1.575   1.923  0.00  0.00     0.032 C 
ATOM      3  C   UNL d   1       0.075   1.976   3.027  0.00  0.00     0.039 C 
ATOM      4  C   UNL d   1      -1.305   1.891   2.983  0.00  0.00     0.069 C 
ATOM      5  C   UNL d   1      -1.913   1.274   1.897  0.00  0.00     0.039 C 
ATOM      6  C   UNL d   1      -1.129   0.715   0.877  0.00  0.00     0.032 C 
ENDROOT
BRANCH   1   7
ATOM      7  N   UNL d   1       1.028   0.165  -0.059  0.00  0.00    -0.377 N 
ATOM      8  H   UNL d   1       0.541  -0.557  -0.598  0.00  0.00     0.160 HD
BRANCH   7   9
ATOM      9  C   UNL d   1       2.499  -0.035  -0.023  0.00  0.00     0.170 C 
ATOM     10  C   UNL d   1       3.083  -0.340   1.361  0.00  0.00     0.042 C 
BRANCH   9  11
ATOM     11  C   UNL d   1       2.865  -1.238  -0.946  0.00  0.00     0.247 C 
ATOM     12  O   UNL d   1       1.991  -1.931  -1.475  0.00  0.00    -0.271 OA
ATOM     13  N   UNL d   1       4.226  -1.478  -1.122  0.00  0.00    -0.278 N 
ATOM     14  C   UNL d   1       4.806  -2.498  -1.827  0.00  0.00     0.320 C 
ATOM     15  H   UNL d   1       4.910  -0.881  -0.680  0.00  0.00     0.173 HD
ATOM     16  N   UNL d   1       3.977  -3.365  -2.437  0.00  0.00    -0.352 N 
ATOM     17  O   UNL d   1       6.031  -2.615  -1.896  0.00  0.00    -0.247 OA
ATOM     18  H   UNL d   1       2.970  -3.246  -2.356  0.00  0.00     0.160 HD
ATOM     19  H   UNL d   1       4.343  -4.133  -2.980  0.00  0.00     0.160 HD
ENDBRANCH   9  11
ENDBRANCH   7   9
ENDBRANCH   1   7
BRANCH   4  20
ATOM     20  O   UNL d   1      -1.935   2.525   4.004  0.00  0.00    -0.347 OA
BRANCH  20  21
ATOM     21  C   UNL d   1      -3.359   2.569   3.972  0.00  0.00     0.216 C 
BRANCH  21  22
ATOM     22  C   UNL d   1      -3.799   3.326   5.197  0.00  0.00    -0.012 A 
ATOM     23  C   UNL d   1      -4.654   4.435   5.066  0.00  0.00     0.011 A 
ATOM     24  C   UNL d   1      -4.909   5.261   6.161  0.00  0.00     0.001 A 
ATOM     25  C   UNL d   1      -4.385   4.944   7.412  0.00  0.00     0.002 A 
ATOM     26  C   UNL d   1      -3.599   3.805   7.569  0.00  0.00     0.024 A 
ATOM     27  C   UNL d   1      -3.319   2.990   6.474  0.00  0.00     0.042 A 
ATOM     28 CL   UNL d   1      -2.385   1.563   6.770  0.00  0.00    -0.084 Cl
ENDBRANCH  21  22
ENDBRANCH  20  21
ENDBRANCH   4  20
TORSDOF 6
