@<TRIPOS>MOLECULE
*****
 52 55 0 0 0
SMALL
GASTEIGER

@<TRIPOS>ATOM
      1 O           1.0299   -0.0781   -0.0078 O.2     1  UNL1       -0.2525
      2 C           2.2225   -0.1944    0.0600 C.2     1  UNL1        0.3049
      3 N           2.9246   -1.0412    0.8733 N.am    1  UNL1       -0.2991
      4 C           2.2334   -1.9941    1.7032 C.3     1  UNL1        0.0147
      5 C           3.2183   -2.8743    2.4599 C.3     1  UNL1       -0.0191
      6 C           2.4841   -3.8787    3.3355 C.3     1  UNL1        0.0296
      7 N           3.4066   -4.7620    4.0600 N.ar    1  UNL1       -0.2957
      8 C           3.2980   -6.1491    4.1228 C.ar    1  UNL1        0.0732
      9 C           4.3080   -6.5929    4.9266 C.ar    1  UNL1        0.1870
     10 N           4.9991   -5.4753    5.3273 N.ar    1  UNL1       -0.2011
     11 C           4.4494   -4.3713    4.8148 C.ar    1  UNL1        0.2463
     12 N           3.0130    0.6704   -0.7437 N.am    1  UNL1       -0.2544
     13 C           4.3934    0.7813   -0.7501 C.ar    1  UNL1        0.1251
     14 C           5.2670   -0.2737   -0.8502 C.ar    1  UNL1        0.0089
     15 C           6.5642    0.2668   -0.6893 C.ar    1  UNL1        0.1296
     16 C           7.8211   -0.5333   -0.9331 C.ar    1  UNL1        0.1562
     17 C           8.0052   -1.1587   -2.1486 C.ar    1  UNL1       -0.0065
     18 C           9.3951   -1.3607   -2.2481 C.ar    1  UNL1        0.0208
     19 C          10.2838   -1.9348   -3.1766 C.ar    1  UNL1       -0.0510
     20 C           9.7861   -3.1864   -3.2839 C.ar    1  UNL1       -0.0610
     21 C          10.2403   -3.7944   -2.1179 C.ar    1  UNL1       -0.0582
     22 C          10.3450   -2.9886   -0.8385 C.ar    1  UNL1       -0.0187
     23 C           9.6416   -1.7682   -0.9400 C.ar    1  UNL1        0.1358
     24 O           8.8653   -0.9746   -0.0921 O.2     1  UNL1       -0.4532
     25 N           6.5083    1.6060   -0.5888 N.ar    1  UNL1       -0.1663
     26 N           5.1825    1.9146   -0.7050 N.ar    1  UNL1       -0.2475
     27 C           4.7554    3.3068   -0.5855 C.3     1  UNL1        0.0666
     28 C           3.2406    3.4847   -0.5534 C.3     1  UNL1        0.0638
     29 O           2.8191    4.8253   -0.4311 O.3     1  UNL1       -0.3932
     30 H           3.9250   -0.9783    0.9261 H       1  UNL1        0.1502
     31 H           1.5888   -2.5979    1.0549 H       1  UNL1        0.0463
     32 H           1.5913   -1.4399    2.3965 H       1  UNL1        0.0463
     33 H           3.8743   -2.2463    3.0745 H       1  UNL1        0.0297
     34 H           3.8718   -3.4037    1.7549 H       1  UNL1        0.0297
     35 H           1.8315   -4.5012    2.7113 H       1  UNL1        0.0494
     36 H           1.8552   -3.3699    4.0742 H       1  UNL1        0.0494
     37 H           2.5059   -6.6464    3.5885 H       1  UNL1        0.0871
     38 H           4.6218   -7.5633    5.2691 H       1  UNL1        0.1392
     39 H           5.8116   -5.4785    5.9415 H       1  UNL1        0.4538
     40 H           4.7940   -3.3563    4.9792 H       1  UNL1        0.1600
     41 H           2.4290    1.3054   -1.2787 H       1  UNL1        0.1578
     42 H           5.0022   -1.3069   -1.0144 H       1  UNL1        0.0675
     43 H           7.2809   -1.3268   -2.9269 H       1  UNL1        0.0662
     44 H          11.3614   -1.9866   -2.8448 H       1  UNL1        0.0625
     45 H           8.7655   -3.2500   -3.6921 H       1  UNL1        0.0618
     46 H          11.0568   -4.4749   -2.4158 H       1  UNL1        0.0619
     47 H          11.2222   -3.0190   -0.1863 H       1  UNL1        0.0654
     48 H           5.1761    3.8691   -1.4278 H       1  UNL1        0.0532
     49 H           5.1929    3.7126    0.3342 H       1  UNL1        0.0532
     50 H           2.8027    2.9167    0.2761 H       1  UNL1        0.0575
     51 H           2.8200    3.1282   -1.4980 H       1  UNL1        0.0575
     52 H           3.1079    5.1728    0.4293 H       1  UNL1        0.2095
@<TRIPOS>UNITY_ATOM_ATTR
10 1
charge 1
@<TRIPOS>BOND
     1     1     2    2
     2     2     3   am
     3     3     4    1
     4     4     5    1
     5     5     6    1
     6     6     7    1
     7     7     8   ar
     8     8     9   ar
     9     9    10   ar
    10    10    11   ar
    11     7    11   ar
    12     2    12   am
    13    12    13    1
    14    13    14   ar
    15    14    15   ar
    16    15    16    1
    17    16    17   ar
    18    17    18   ar
    19    18    19   ar
    20    19    20   ar
    21    20    21   ar
    22    21    22   ar
    23    22    23   ar
    24    18    23   ar
    25    23    24   ar
    26    16    24   ar
    27    15    25   ar
    28    25    26   ar
    29    13    26   ar
    30    26    27    1
    31    27    28    1
    32    28    29    1
    33     3    30    1
    34     4    31    1
    35     4    32    1
    36     5    33    1
    37     5    34    1
    38     6    35    1
    39     6    36    1
    40     8    37    1
    41     9    38    1
    42    10    39    1
    43    11    40    1
    44    12    41    1
    45    14    42    1
    46    17    43    1
    47    19    44    1
    48    20    45    1
    49    21    46    1
    50    22    47    1
    51    27    48    1
    52    27    49    1
    53    28    50    1
    54    28    51    1
    55    29    52    1
