@<TRIPOS>MOLECULE
*****
 47 50 0 0 0
SMALL
GASTEIGER

@<TRIPOS>ATOM
      1 N          -2.0268   -0.0995    0.0139 N.pl3   1  UNL1       -0.3278
      2 C          -0.7029    0.0945    0.0046 C.ar    1  UNL1        0.2092
      3 N          -0.0417    1.2285    0.0089 N.ar    1  UNL1       -0.1880
      4 C           1.2684    0.8288    0.0045 C.ar    1  UNL1        0.2105
      5 S           2.6566    1.8771    0.0262 S.3     1  UNL1       -0.0750
      6 C           2.0176    3.5972    0.0404 C.3     1  UNL1        0.0779
      7 C           3.2096    4.5877   -0.0465 C.2     1  UNL1        0.2263
      8 O           4.3613    4.1840   -0.2548 O.2     1  UNL1       -0.2747
      9 N           2.9677    5.9558   -0.0092 N.am    1  UNL1       -0.2937
     10 C           1.9349    6.6761    0.7099 C.3     1  UNL1        0.0154
     11 C           1.7991    7.9764   -0.0703 C.3     1  UNL1       -0.0351
     12 C           3.2297    8.2878   -0.5095 C.3     1  UNL1       -0.0287
     13 C           3.9293    6.9138   -0.5811 C.3     1  UNL1        0.0513
     14 C           5.2769    6.9317    0.1210 C.ar    1  UNL1       -0.0233
     15 C           6.4369    6.6839   -0.6303 C.ar    1  UNL1       -0.0531
     16 C           7.6844    6.6435   -0.0121 C.ar    1  UNL1       -0.0160
     17 C           7.7795    6.7929    1.3689 C.ar    1  UNL1        0.1619
     18 C           6.6421    7.0173    2.1426 C.ar    1  UNL1        0.1622
     19 C           5.4018    7.1387    1.5113 C.ar    1  UNL1       -0.0113
     20 O           6.7006    7.1779    3.5040 O.3     1  UNL1       -0.4882
     21 C           7.1660    5.9991    4.1800 C.3     1  UNL1        0.0928
     22 C           8.6794    5.8015    4.1253 C.3     1  UNL1        0.0157
     23 C           9.1499    5.5488    2.7039 C.3     1  UNL1        0.0928
     24 O           9.0318    6.7315    1.9148 O.3     1  UNL1       -0.4882
     25 N           1.4481   -0.5003   -0.0037 N.ar    1  UNL1       -0.1443
     26 N           0.1840   -0.9448   -0.0024 N.ar    1  UNL1       -0.2461
     27 H          -2.6411    0.7077   -0.0125 H       1  UNL1        0.1451
     28 H          -2.4874   -1.0003   -0.0479 H       1  UNL1        0.1451
     29 H           1.4306    3.7668    0.9443 H       1  UNL1        0.0475
     30 H           1.3966    3.7499   -0.8493 H       1  UNL1        0.0475
     31 H           2.3363    6.8947    1.7076 H       1  UNL1        0.0465
     32 H           1.0085    6.1160    0.8299 H       1  UNL1        0.0465
     33 H           1.3684    8.7913    0.5205 H       1  UNL1        0.0281
     34 H           1.1660    7.8224   -0.9516 H       1  UNL1        0.0281
     35 H           3.7068    8.9620    0.2115 H       1  UNL1        0.0287
     36 H           3.2476    8.8071   -1.4762 H       1  UNL1        0.0287
     37 H           4.0571    6.6312   -1.6359 H       1  UNL1        0.0550
     38 H           6.3741    6.4879   -1.6989 H       1  UNL1        0.0622
     39 H           8.5774    6.4506   -0.5981 H       1  UNL1        0.0655
     40 H           4.5272    7.3608    2.1134 H       1  UNL1        0.0659
     41 H           6.6357    5.1088    3.8170 H       1  UNL1        0.0697
     42 H           6.8845    6.1130    5.2343 H       1  UNL1        0.0697
     43 H           8.9556    4.9418    4.7471 H       1  UNL1        0.0331
     44 H           9.1820    6.6893    4.5266 H       1  UNL1        0.0331
     45 H           8.6178    4.7008    2.2496 H       1  UNL1        0.0697
     46 H          10.2117    5.2825    2.7112 H       1  UNL1        0.0697
     47 H          -0.0026   -1.9405   -0.0003 H       1  UNL1        0.1918
@<TRIPOS>BOND
     1     1     2    1
     2     2     3   ar
     3     3     4   ar
     4     4     5    1
     5     5     6    1
     6     6     7    1
     7     7     8    2
     8     7     9   am
     9     9    10    1
    10    10    11    1
    11    11    12    1
    12    12    13    1
    13     9    13    1
    14    13    14    1
    15    14    15   ar
    16    15    16   ar
    17    16    17   ar
    18    17    18   ar
    19    18    19   ar
    20    14    19   ar
    21    18    20    1
    22    20    21    1
    23    21    22    1
    24    22    23    1
    25    23    24    1
    26    17    24    1
    27     4    25   ar
    28    25    26   ar
    29     2    26   ar
    30     1    27    1
    31     1    28    1
    32     6    29    1
    33     6    30    1
    34    10    31    1
    35    10    32    1
    36    11    33    1
    37    11    34    1
    38    12    35    1
    39    12    36    1
    40    13    37    1
    41    15    38    1
    42    16    39    1
    43    19    40    1
    44    21    41    1
    45    21    42    1
    46    22    43    1
    47    22    44    1
    48    23    45    1
    49    23    46    1
    50    26    47    1
