REMARK  5 active torsions:
REMARK  status: ('A' for Active; 'I' for Inactive)
REMARK    1  A    between atoms: C_5  and  N_4 
REMARK    2  A    between atoms: C_17  and  N_19 
REMARK    3  A    between atoms: N_19  and  C_20 
REMARK    4  A    between atoms: C_20  and  C_21 
REMARK    5  A    between atoms: C_21  and  C_22 
ROOT
ATOM      1  C   UNL d   1       5.648  -6.457   1.391  0.00  0.00     0.073 C 
ATOM      2  C   UNL d   1       5.186  -5.080   1.037  0.00  0.00     0.069 C 
ATOM      3  N   UNL d   1       6.011  -4.096   0.807  0.00  0.00    -0.171 NA
ATOM      4  N   UNL d   1       5.227  -3.009   0.386  0.00  0.00    -0.200 N 
ATOM      5  C   UNL d   1       3.886  -3.327   0.222  0.00  0.00     0.280 C 
ATOM      6  O   UNL d   1       2.977  -2.675  -0.281  0.00  0.00    -0.265 OA
ATOM      7  C   UNL d   1       3.778  -4.667   0.866  0.00  0.00     0.081 C 
ATOM      8  C   UNL d   1       2.637  -5.221   1.328  0.00  0.00     0.019 C 
ATOM      9  C   UNL d   1       2.621  -6.480   2.188  0.00  0.00     0.069 C 
ENDROOT
BRANCH   8  10
ATOM     10  N   UNL d   1       1.373  -4.662   1.117  0.00  0.00    -0.392 N 
ATOM     11  H   UNL d   1       1.350  -3.738   0.674  0.00  0.00     0.159 HD
BRANCH  10  12
ATOM     12  C   UNL d   1       0.179  -5.176   1.734  0.00  0.00     0.124 C 
BRANCH  12  13
ATOM     13  C   UNL d   1      -1.071  -4.365   1.482  0.00  0.00     0.057 C 
BRANCH  13  14
ATOM     14  C   UNL d   1      -2.281  -4.980   2.134  0.00  0.00    -0.044 A 
ATOM     15  C   UNL d   1      -2.393  -5.639   3.296  0.00  0.00    -0.005 A 
ATOM     16  C   UNL d   1      -1.490  -6.007   4.338  0.00  0.00     0.014 A 
ATOM     17  C   UNL d   1      -3.833  -5.956   3.418  0.00  0.00     0.039 A 
ATOM     18  C   UNL d   1      -1.940  -6.684   5.399  0.00  0.00     0.001 A 
ATOM     19  C   UNL d   1      -3.339  -7.022   5.537  0.00  0.00     0.002 A 
ATOM     20  C   UNL d   1      -4.274  -6.692   4.624  0.00  0.00     0.030 A 
ATOM     21  N   UNL d   1      -4.510  -5.520   2.423  0.00  0.00    -0.381 N 
ATOM     22  C   UNL d   1      -3.616  -4.844   1.450  0.00  0.00     0.108 A 
ATOM     23  H   UNL d   1      -5.515  -5.655   2.326  0.00  0.00     0.160 HD
ATOM     24  C   UNL d   1      -3.984  -3.382   1.279  0.00  0.00     0.037 C 
ENDBRANCH  13  14
ENDBRANCH  12  13
ENDBRANCH  10  12
ENDBRANCH   8  10
BRANCH   4  25
ATOM     25  C   UNL d   1       5.786  -1.673   0.196  0.00  0.00     0.280 C 
ATOM     26  N   UNL d   1       6.835  -1.759  -0.803  0.00  0.00    -0.357 N 
ATOM     27  C   UNL d   1       8.108  -1.630  -0.262  0.00  0.00     0.047 A 
ATOM     28  H   UNL d   1       6.640  -1.666  -1.784  0.00  0.00     0.162 HD
ATOM     29  C   UNL d   1       9.273  -1.974  -0.934  0.00  0.00     0.030 A 
ATOM     30  C   UNL d   1       8.176  -1.287   1.094  0.00  0.00     0.030 A 
ATOM     31  C   UNL d   1      10.499  -1.929  -0.260  0.00  0.00     0.002 A 
ATOM     32  C   UNL d   1      10.558  -1.529   1.081  0.00  0.00     0.002 A 
ATOM     33  C   UNL d   1       9.388  -1.203   1.769  0.00  0.00     0.021 A 
ATOM     34  S   UNL d   1       6.548  -1.043   1.751  0.00  0.00    -0.079 SA
ENDBRANCH   4  25
TORSDOF 5
