REMARK  7 active torsions:
REMARK  status: ('A' for Active; 'I' for Inactive)
REMARK    1  A    between atoms: C_2  and  N_3 
REMARK    2  A    between atoms: N_3  and  S_4 
REMARK    3  A    between atoms: S_4  and  C_7 
REMARK    4  A    between atoms: C_9  and  C_10 
REMARK       I    between atoms: C_10  and  N_12 
REMARK    5  A    between atoms: N_12  and  C_13 
REMARK    6  A    between atoms: C_17  and  N_18 
REMARK    7  A    between atoms: C_25  and  O_26 
ROOT
ATOM      1  C   UNL d   1       5.245  -1.543  -2.583  0.00  0.00     0.108 C 
ATOM      2  C   UNL d   1       4.958  -2.925  -2.720  0.00  0.00     0.044 C 
ATOM      3  C   UNL d   1       5.506  -3.720  -3.760  0.00  0.00     0.034 C 
ATOM      4  C   UNL d   1       6.185  -3.108  -4.795  0.00  0.00     0.020 C 
ATOM      5  C   UNL d   1       6.471  -1.751  -4.682  0.00  0.00     0.039 C 
ATOM      6  C   UNL d   1       6.042  -0.957  -3.585  0.00  0.00     0.091 C 
ENDROOT
BRANCH   3   7
ATOM      7  C   UNL d   1       5.501  -5.200  -3.595  0.00  0.00     0.256 C 
ATOM      8  O   UNL d   1       5.181  -5.613  -2.482  0.00  0.00    -0.267 OA
ATOM      9  N   UNL d   1       5.954  -6.029  -4.625  0.00  0.00    -0.322 N 
ATOM     10  H   UNL d   1       6.596  -5.662  -5.314  0.00  0.00     0.169 HD
BRANCH   9  11
ATOM     11  C   UNL d   1       5.804  -7.448  -4.595  0.00  0.00     0.043 A 
ATOM     12  C   UNL d   1       6.912  -8.240  -4.953  0.00  0.00     0.030 A 
ATOM     13  C   UNL d   1       6.797  -9.629  -5.013  0.00  0.00     0.005 A 
ATOM     14  C   UNL d   1       5.584 -10.238  -4.694  0.00  0.00     0.037 A 
ATOM     15  C   UNL d   1       4.449  -9.464  -4.370  0.00  0.00     0.111 A 
ATOM     16  C   UNL d   1       4.541  -8.052  -4.318  0.00  0.00    -0.002 A 
ATOM     17  C   UNL d   1       3.369  -7.149  -4.040  0.00  0.00     0.053 C 
BRANCH  15  18
ATOM     18  N   UNL d   1       3.185 -10.219  -4.161  0.00  0.00    -0.115 N 
ATOM     19  O   UNL d   1       3.247 -11.456  -4.206  0.00  0.00    -0.532 OA
ATOM     20  O   UNL d   1       2.124  -9.616  -3.985  0.00  0.00    -0.532 OA
ENDBRANCH  15  18
ENDBRANCH   9  11
ENDBRANCH   3   7
BRANCH   1  21
ATOM     21  S   UNL d   1       4.690  -0.874  -0.985  0.00  0.00     0.244 S 
ATOM     22  O   UNL d   1       5.027   0.520  -0.751  0.00  0.00    -0.206 OA
ATOM     23  O   UNL d   1       5.012  -1.831   0.036  0.00  0.00    -0.206 OA
BRANCH  21  24
ATOM     24  N   UNL d   1       2.992  -0.786  -1.146  0.00  0.00    -0.216 NA
ATOM     25  H   UNL d   1       2.738  -0.383  -2.049  0.00  0.00     0.139 HD
BRANCH  24  26
ATOM     26  C   UNL d   1       2.433   0.023  -0.021  0.00  0.00     0.100 C 
ATOM     27  C   UNL d   1       0.928   0.034  -0.068  0.00  0.00     0.021 C 
ENDBRANCH  24  26
ENDBRANCH  21  24
ENDBRANCH   1  21
BRANCH   6  28
ATOM     28  O   UNL d   1       6.533   0.308  -3.768  0.00  0.00    -0.354 OA
ATOM     29  C   UNL d   1       6.189   1.250  -2.790  0.00  0.00     0.210 C 
ENDBRANCH   6  28
TORSDOF 7
