@<TRIPOS>MOLECULE
*****
 58 62 0 0 0
SMALL
GASTEIGER

@<TRIPOS>ATOM
      1 C           0.9786    0.0912    0.0329 C.3     1  UNL1       -0.0362
      2 C           2.4714    0.1324    0.0336 C.ar    1  UNL1       -0.0073
      3 C           3.1531    1.2902    0.0320 C.ar    1  UNL1       -0.0540
      4 C           4.5873    1.3141    0.0334 C.ar    1  UNL1       -0.0447
      5 C           5.2646    0.1654    0.0341 C.ar    1  UNL1        0.0146
      6 N           4.6232   -1.0721    0.0364 N.ar    1  UNL1       -0.2672
      7 C           5.4120   -2.2074    0.0424 C.ar    1  UNL1        0.2721
      8 O           6.6491   -2.2233    0.0381 O.2     1  UNL1       -0.2663
      9 C           4.7181   -3.4965    0.0552 C.ar    1  UNL1        0.1328
     10 C           5.4582   -4.6725    0.0733 C.ar    1  UNL1       -0.0214
     11 C           4.7801   -5.8761    0.0421 C.ar    1  UNL1        0.1247
     12 C           5.4647   -7.2242    0.0791 C.2     1  UNL1        0.2521
     13 O           4.8239   -8.2673    0.1659 O.2     1  UNL1       -0.2699
     14 N           6.8197   -7.2481    0.0529 N.am    1  UNL1       -0.3070
     15 C           7.5510   -8.5025    0.0695 C.3     1  UNL1        0.0371
     16 C           9.0437   -8.3006    0.0588 C.ar    1  UNL1       -0.0303
     17 C           9.6361   -7.0275    0.1011 C.ar    1  UNL1       -0.0571
     18 C          10.9925   -6.8559   -0.1301 C.ar    1  UNL1       -0.0615
     19 C          11.8124   -7.9671   -0.2359 C.ar    1  UNL1       -0.0617
     20 C          11.2705   -9.2447   -0.1099 C.ar    1  UNL1       -0.0615
     21 C           9.8871   -9.4161   -0.0247 C.ar    1  UNL1       -0.0571
     22 C           3.3673   -5.8773   -0.0680 C.ar    1  UNL1        0.2826
     23 N           2.8237   -7.0839   -0.4810 N.pl3   1  UNL1       -0.3049
     24 N           2.6465   -4.7068    0.0237 N.ar    1  UNL1       -0.1565
     25 C           1.1167   -4.6565    0.0921 C.3     1  UNL1        0.1797
     26 C           0.3841   -5.9981    0.2017 C.ar    1  UNL1        0.0175
     27 C           0.6657   -6.8854    1.2688 C.ar    1  UNL1       -0.0499
     28 C           0.4691   -8.2665    1.0911 C.ar    1  UNL1       -0.0260
     29 C          -0.2002   -8.7355   -0.0348 C.ar    1  UNL1        0.1234
     30 F          -0.2883  -10.0537   -0.2526 F       1  UNL1       -0.2055
     31 C          -0.6820   -7.8487   -0.9907 C.ar    1  UNL1       -0.0260
     32 C          -0.3501   -6.4887   -0.9041 C.ar    1  UNL1       -0.0499
     33 C           3.3231   -3.5070    0.0553 C.ar    1  UNL1        0.3210
     34 N           2.5846   -2.3135    0.0506 N.ar    1  UNL1       -0.1677
     35 C           3.2262   -1.1734    0.0398 C.ar    1  UNL1        0.1497
     36 H           0.5491    1.0991    0.0321 H       1  UNL1        0.0279
     37 H           0.6100   -0.4250    0.9244 H       1  UNL1        0.0279
     38 H           0.6102   -0.4267   -0.8576 H       1  UNL1        0.0279
     39 H           2.6444    2.2514    0.0301 H       1  UNL1        0.0622
     40 H           5.1000    2.2732    0.0339 H       1  UNL1        0.0632
     41 H           6.3548    0.1680    0.0354 H       1  UNL1        0.0814
     42 H           6.5425   -4.6111    0.0761 H       1  UNL1        0.0638
     43 H           7.3320   -6.4004   -0.0733 H       1  UNL1        0.1493
     44 H           7.2458   -9.0689   -0.8223 H       1  UNL1        0.0512
     45 H           7.2399   -9.0759    0.9510 H       1  UNL1        0.0512
     46 H           9.0766   -6.1238    0.3044 H       1  UNL1        0.0621
     47 H          11.3976   -5.8517   -0.2117 H       1  UNL1        0.0618
     48 H          12.8770   -7.8319   -0.3977 H       1  UNL1        0.0618
     49 H          11.9298  -10.1082   -0.0960 H       1  UNL1        0.0618
     50 H           9.4792  -10.4260   -0.0267 H       1  UNL1        0.0621
     51 H           3.2517   -7.9050   -0.0183 H       1  UNL1        0.1478
     52 H           1.8688   -7.2723   -0.6906 H       1  UNL1        0.1478
     53 H           0.8017   -4.1344   -0.8208 H       1  UNL1        0.1086
     54 H           0.8432   -4.0447    0.9604 H       1  UNL1        0.1086
     55 H           1.2543   -6.5616    2.1260 H       1  UNL1        0.0623
     56 H           0.9458   -8.9874    1.7548 H       1  UNL1        0.0646
     57 H          -1.2325   -8.2402   -1.8434 H       1  UNL1        0.0646
     58 H          -0.5688   -5.8582   -1.7665 H       1  UNL1        0.0623
@<TRIPOS>UNITY_ATOM_ATTR
24 1
charge 1
@<TRIPOS>BOND
     1     1     2    1
     2     2     3   ar
     3     3     4   ar
     4     4     5   ar
     5     5     6   ar
     6     6     7   ar
     7     7     8    2
     8     7     9   ar
     9     9    10   ar
    10    10    11   ar
    11    11    12    1
    12    12    13    2
    13    12    14   am
    14    14    15    1
    15    15    16    1
    16    16    17   ar
    17    17    18   ar
    18    18    19   ar
    19    19    20   ar
    20    20    21   ar
    21    16    21   ar
    22    11    22   ar
    23    22    23    1
    24    22    24   ar
    25    24    25    1
    26    25    26    1
    27    26    27   ar
    28    27    28   ar
    29    28    29   ar
    30    29    30    1
    31    29    31   ar
    32    31    32   ar
    33    26    32   ar
    34    24    33   ar
    35     9    33   ar
    36    33    34   ar
    37    34    35   ar
    38     2    35   ar
    39     6    35   ar
    40     1    36    1
    41     1    37    1
    42     1    38    1
    43     3    39    1
    44     4    40    1
    45     5    41    1
    46    10    42    1
    47    14    43    1
    48    15    44    1
    49    15    45    1
    50    17    46    1
    51    18    47    1
    52    19    48    1
    53    20    49    1
    54    21    50    1
    55    23    51    1
    56    23    52    1
    57    25    53    1
    58    25    54    1
    59    27    55    1
    60    28    56    1
    61    31    57    1
    62    32    58    1
