@<TRIPOS>MOLECULE
*****
 39 41 0 0 0
SMALL
GASTEIGER

@<TRIPOS>ATOM
      1 O           1.1277    0.0365   -0.1539 O.2     1  UNL1       -0.2507
      2 C           2.3579    0.0745   -0.0848 C.2     1  UNL1        0.3231
      3 N           3.0684    0.6673    0.9131 N.am    1  UNL1       -0.1781
      4 O           2.3499    1.3950    1.8940 O.3     1  UNL1       -0.2740
      5 C           3.2771    2.0447    2.7616 C.3     1  UNL1        0.0983
      6 C           2.5885    2.8139    3.8580 C.ar    1  UNL1       -0.0197
      7 C           2.6819    4.2117    3.9109 C.ar    1  UNL1       -0.0563
      8 C           2.2432    4.9052    5.0393 C.ar    1  UNL1       -0.0614
      9 C           1.6228    4.2203    6.0820 C.ar    1  UNL1       -0.0617
     10 C           1.4624    2.8378    6.0086 C.ar    1  UNL1       -0.0614
     11 C           1.9460    2.1359    4.9031 C.ar    1  UNL1       -0.0563
     12 N           3.0919   -0.5408   -1.0626 N.am    1  UNL1       -0.2910
     13 C           4.4592   -1.0135   -0.9346 C.3     1  UNL1        0.0504
     14 C           4.4746   -2.2463    0.0017 C.3     1  UNL1       -0.0263
     15 C           4.4840   -3.5009   -0.8832 C.3     1  UNL1       -0.0253
     16 C           4.8572   -2.9706   -2.2256 C.ar    1  UNL1       -0.0396
     17 C           5.0973   -3.7203   -3.3628 C.ar    1  UNL1       -0.0230
     18 C           5.5783   -3.0636   -4.4867 C.ar    1  UNL1        0.1237
     19 F           5.9228   -3.7828   -5.5630 F       1  UNL1       -0.2055
     20 C           5.7467   -1.6759   -4.5010 C.ar    1  UNL1       -0.0261
     21 C           5.4329   -0.9166   -3.3655 C.ar    1  UNL1       -0.0538
     22 C           4.9664   -1.5784   -2.2327 C.ar    1  UNL1       -0.0238
     23 H           4.0707    0.7647    0.8882 H       1  UNL1        0.1841
     24 H           3.9194    2.7160    2.1774 H       1  UNL1        0.0634
     25 H           3.9279    1.2940    3.2297 H       1  UNL1        0.0634
     26 H           3.1212    4.7672    3.0855 H       1  UNL1        0.0621
     27 H           2.4032    5.9777    5.1132 H       1  UNL1        0.0618
     28 H           1.2607    4.7654    6.9496 H       1  UNL1        0.0618
     29 H           0.9834    2.3025    6.8243 H       1  UNL1        0.0618
     30 H           1.8399    1.0536    4.8677 H       1  UNL1        0.0621
     31 H           2.4969   -1.0563   -1.7016 H       1  UNL1        0.1509
     32 H           5.1026   -0.2005   -0.5831 H       1  UNL1        0.0549
     33 H           3.6039   -2.2844    0.6686 H       1  UNL1        0.0289
     34 H           5.3546   -2.2359    0.6576 H       1  UNL1        0.0289
     35 H           3.5054   -3.9854   -0.9135 H       1  UNL1        0.0314
     36 H           5.2428   -4.2089   -0.5334 H       1  UNL1        0.0314
     37 H           4.9243   -4.7894   -3.3793 H       1  UNL1        0.0649
     38 H           6.1071   -1.2017   -5.4099 H       1  UNL1        0.0646
     39 H           5.5657    0.1616   -3.3855 H       1  UNL1        0.0622
@<TRIPOS>BOND
     1     1     2    2
     2     2     3   am
     3     3     4    1
     4     4     5    1
     5     5     6    1
     6     6     7   ar
     7     7     8   ar
     8     8     9   ar
     9     9    10   ar
    10    10    11   ar
    11     6    11   ar
    12     2    12   am
    13    12    13    1
    14    13    14    1
    15    14    15    1
    16    15    16    1
    17    16    17   ar
    18    17    18   ar
    19    18    19    1
    20    18    20   ar
    21    20    21   ar
    22    21    22   ar
    23    16    22   ar
    24    13    22    1
    25     3    23    1
    26     5    24    1
    27     5    25    1
    28     7    26    1
    29     8    27    1
    30     9    28    1
    31    10    29    1
    32    11    30    1
    33    12    31    1
    34    13    32    1
    35    14    33    1
    36    14    34    1
    37    15    35    1
    38    15    36    1
    39    17    37    1
    40    20    38    1
    41    21    39    1
