REMARK  11 active torsions:
REMARK  status: ('A' for Active; 'I' for Inactive)
REMARK    1  A    between atoms: N_2  and  C_4 
REMARK    2  A    between atoms: C_7  and  C_8 
REMARK    3  A    between atoms: C_8  and  C_9 
REMARK    4  A    between atoms: C_8  and  N_20 
REMARK       I    between atoms: C_9  and  N_11 
REMARK    5  A    between atoms: N_11  and  C_12 
REMARK    6  A    between atoms: C_12  and  C_15 
REMARK    7  A    between atoms: C_15  and  C_16 
REMARK       I    between atoms: N_20  and  C_21 
REMARK    8  A    between atoms: N_20  and  C_31 
REMARK    9  A    between atoms: C_21  and  C_23 
REMARK   10  A    between atoms: C_24  and  O_25 
REMARK   11  A    between atoms: C_29  and  O_30 
ROOT
ATOM      1  C   UNL d   1       5.515   1.194   4.665  0.00  0.00     0.213 C 
ENDROOT
BRANCH   1   2
ATOM      2  C   UNL d   1       4.857   1.216   3.284  0.00  0.00    -0.026 C 
ATOM      3  C   UNL d   1       5.422   1.411   2.018  0.00  0.00     0.012 C 
ATOM      4  C   UNL d   1       4.588   1.390   0.871  0.00  0.00     0.030 C 
ATOM      5  C   UNL d   1       3.236   1.032   0.946  0.00  0.00     0.029 C 
ATOM      6  C   UNL d   1       2.701   1.143   2.204  0.00  0.00     0.030 C 
ATOM      7  C   UNL d   1       3.489   1.314   3.323  0.00  0.00     0.012 C 
BRANCH   5   8
ATOM      8  N   UNL d   1       2.489   0.520  -0.105  0.00  0.00    -0.390 N 
ATOM      9  C   UNL d   1       1.023   0.403  -0.075  0.00  0.00     0.149 C 
ATOM     10  C   UNL d   1       3.198  -0.172  -1.169  0.00  0.00     0.149 C 
ENDBRANCH   5   8
ENDBRANCH   1   2
BRANCH   1  11
ATOM     11  C   UNL d   1       5.532   2.715   4.921  0.00  0.00     0.245 C 
ATOM     12  O   UNL d   1       4.760   3.205   5.713  0.00  0.00    -0.271 OA
ATOM     13  N   UNL d   1       6.308   3.505   4.066  0.00  0.00    -0.351 N 
ATOM     14  H   UNL d   1       6.707   3.129   3.223  0.00  0.00     0.163 HD
BRANCH  13  15
ATOM     15  C   UNL d   1       6.253   4.958   4.226  0.00  0.00     0.026 C 
ATOM     16  C   UNL d   1       4.778   5.422   4.279  0.00  0.00     0.038 C 
ATOM     17  C   UNL d   1       7.008   5.185   5.540  0.00  0.00     0.038 C 
BRANCH  15  18
ATOM     18  C   UNL d   1       6.965   5.660   3.009  0.00  0.00     0.038 C 
BRANCH  18  19
ATOM     19  C   UNL d   1       7.099   7.225   3.038  0.00  0.00    -0.049 C 
ATOM     20  C   UNL d   1       5.745   7.952   3.044  0.00  0.00     0.014 C 
ATOM     21  C   UNL d   1       7.949   7.713   4.217  0.00  0.00     0.014 C 
ATOM     22  C   UNL d   1       7.819   7.712   1.770  0.00  0.00     0.014 C 
ENDBRANCH  18  19
ENDBRANCH  15  18
ENDBRANCH  13  15
ENDBRANCH   1  11
BRANCH   1  23
ATOM     23  N   UNL d   1       4.751   0.459   5.911  0.00  0.00    -0.322 N 
ATOM     24  C   UNL d   1       3.581  -0.424   5.856  0.00  0.00     0.261 C 
ATOM     25  O   UNL d   1       2.845  -0.649   6.824  0.00  0.00    -0.267 OA
BRANCH  24  26
ATOM     26  C   UNL d   1       2.993  -1.082   4.656  0.00  0.00     0.098 A 
ATOM     27  C   UNL d   1       1.592  -0.915   4.385  0.00  0.00     0.084 A 
ATOM     28  C   UNL d   1       1.028  -1.359   3.180  0.00  0.00     0.038 A 
ATOM     29  C   UNL d   1       1.873  -1.877   2.194  0.00  0.00     0.005 A 
ATOM     30  C   UNL d   1       3.250  -1.944   2.409  0.00  0.00     0.038 A 
ATOM     31  C   UNL d   1       3.798  -1.628   3.655  0.00  0.00     0.084 A 
BRANCH  27  32
ATOM     32  O   UNL d   1       0.777  -0.029   5.073  0.00  0.00    -0.360 OA
ATOM     33  H   UNL d   1       1.266   0.365   5.823  0.00  0.00     0.217 HD
ENDBRANCH  27  32
BRANCH  31  34
ATOM     34  O   UNL d   1       5.163  -1.609   3.765  0.00  0.00    -0.360 OA
ATOM     35  H   UNL d   1       5.491  -1.272   2.910  0.00  0.00     0.217 HD
ENDBRANCH  31  34
ENDBRANCH  24  26
BRANCH  23  36
ATOM     36  C   UNL d   1       5.365   0.689   7.337  0.00  0.00     0.026 C 
ATOM     37  C   UNL d   1       6.791   0.113   7.361  0.00  0.00     0.037 C 
ATOM     38  C   UNL d   1       5.494   2.151   7.830  0.00  0.00     0.037 C 
ATOM     39  C   UNL d   1       4.577   0.027   8.489  0.00  0.00     0.037 C 
ENDBRANCH  23  36
ENDBRANCH   1  23
TORSDOF 11
