@<TRIPOS>MOLECULE
*****
 77 79 0 0 0
SMALL
GASTEIGER

@<TRIPOS>ATOM
      1 C           1.0481    0.1884    0.1450 C.3     1  UNL1       -0.0307
      2 C           2.5475    0.4472    0.2830 C.3     1  UNL1        0.0870
      3 O           3.0720    0.8233   -0.9913 O.3     1  UNL1       -0.4885
      4 C           4.4012    0.6337   -1.2728 C.ar    1  UNL1        0.1632
      5 C           4.9776    1.6904   -2.0299 C.ar    1  UNL1       -0.0076
      6 C           6.3104    1.6410   -2.4763 C.ar    1  UNL1       -0.0018
      7 C           6.8671    2.6686   -3.4247 C.2     1  UNL1        0.0529
      8 N           8.0837    2.5746   -3.8702 N.2     1  UNL1       -0.1876
      9 N           8.5592    3.4898   -4.7870 N.am    1  UNL1       -0.2042
     10 C           9.8737    3.3273   -5.2520 C.2     1  UNL1        0.2698
     11 O          10.6154    2.4219   -4.8658 O.2     1  UNL1       -0.2703
     12 C          10.3510    4.3819   -6.2672 C.3     1  UNL1        0.1668
     13 O          11.6699    4.0425   -6.7124 O.3     1  UNL1       -0.4827
     14 C          12.3012    4.9678   -7.4892 C.ar    1  UNL1        0.1212
     15 C          13.1090    4.4741   -8.5078 C.ar    1  UNL1       -0.0196
     16 C          13.8303    5.3556   -9.2986 C.ar    1  UNL1       -0.0546
     17 C          13.6985    6.7502   -9.1473 C.ar    1  UNL1       -0.0415
     18 C          14.3496    7.6670  -10.1938 C.3     1  UNL1       -0.0094
     19 C          15.8593    7.3714  -10.1536 C.3     1  UNL1       -0.0558
     20 C          13.7591    7.2182  -11.5501 C.3     1  UNL1       -0.0558
     21 C          14.0413    9.1880   -9.9210 C.3     1  UNL1       -0.0389
     22 C          14.5922   10.2858  -10.8790 C.3     1  UNL1       -0.0369
     23 C          16.1229   10.3163  -10.9084 C.3     1  UNL1       -0.0600
     24 C          14.0349   10.1609  -12.3006 C.3     1  UNL1       -0.0600
     25 C          14.1468   11.6676  -10.3664 C.3     1  UNL1       -0.0600
     26 C          12.9273    7.2250   -8.0847 C.ar    1  UNL1       -0.0546
     27 C          12.2472    6.3384   -7.2552 C.ar    1  UNL1       -0.0196
     28 C           7.1010    0.5582   -2.0855 C.ar    1  UNL1       -0.0494
     29 C           6.5355   -0.5157   -1.3724 C.ar    1  UNL1       -0.0150
     30 C           5.1778   -0.5038   -0.9979 C.ar    1  UNL1        0.1734
     31 O           4.7222   -1.6468   -0.2782 O.3     1  UNL1       -0.4186
     32 C           3.4754   -2.1949   -0.5611 C.2     1  UNL1        0.3445
     33 O           2.7976   -1.9605   -1.5663 O.2     1  UNL1       -0.2445
     34 C           2.9059   -2.9657    0.5945 C.ar    1  UNL1        0.0594
     35 C           1.5440   -3.3172    0.5245 C.ar    1  UNL1       -0.0478
     36 C           0.9320   -4.0520    1.5404 C.ar    1  UNL1       -0.0610
     37 C           1.6908   -4.4897    2.6193 C.ar    1  UNL1       -0.0617
     38 C           3.0191   -4.0763    2.7471 C.ar    1  UNL1       -0.0610
     39 C           3.6196   -3.2838    1.7565 C.ar    1  UNL1       -0.0478
     40 H           0.6457   -0.2706    1.0543 H       1  UNL1        0.0262
     41 H           0.8156   -0.4815   -0.6926 H       1  UNL1        0.0262
     42 H           0.5106    1.1195   -0.0503 H       1  UNL1        0.0262
     43 H           2.9932   -0.4347    0.7216 H       1  UNL1        0.0694
     44 H           2.7657    1.2307    1.0102 H       1  UNL1        0.0694
     45 H           4.3569    2.5526   -2.2630 H       1  UNL1        0.0662
     46 H           6.1870    3.4751   -3.7508 H       1  UNL1        0.0851
     47 H           7.9542    4.2319   -5.1192 H       1  UNL1        0.1773
     48 H          10.3257    5.3526   -5.7627 H       1  UNL1        0.0795
     49 H           9.6872    4.3920   -7.1384 H       1  UNL1        0.0795
     50 H          13.1764    3.4103   -8.7162 H       1  UNL1        0.0654
     51 H          14.4788    4.9398  -10.0688 H       1  UNL1        0.0622
     52 H          16.0956    6.3079  -10.2240 H       1  UNL1        0.0238
     53 H          16.3126    7.7546   -9.2321 H       1  UNL1        0.0238
     54 H          16.3804    7.7692  -11.0156 H       1  UNL1        0.0238
     55 H          13.8356    6.1426  -11.7246 H       1  UNL1        0.0238
     56 H          14.3075    7.6153  -12.3945 H       1  UNL1        0.0238
     57 H          12.6994    7.4909  -11.6314 H       1  UNL1        0.0238
     58 H          14.3944    9.4352   -8.9056 H       1  UNL1        0.0279
     59 H          12.9461    9.3168   -9.8733 H       1  UNL1        0.0279
     60 H          16.5442    9.4897  -11.4695 H       1  UNL1        0.0235
     61 H          16.5367   10.3151   -9.8926 H       1  UNL1        0.0235
     62 H          16.4971   11.1935  -11.4392 H       1  UNL1        0.0235
     63 H          14.4727    9.3347  -12.8496 H       1  UNL1        0.0235
     64 H          14.2943   11.0287  -12.9102 H       1  UNL1        0.0235
     65 H          12.9436   10.0518  -12.2896 H       1  UNL1        0.0235
     66 H          14.5323   11.8673   -9.3617 H       1  UNL1        0.0235
     67 H          13.0562   11.7583  -10.3484 H       1  UNL1        0.0235
     68 H          14.5345   12.4480  -11.0327 H       1  UNL1        0.0235
     69 H          12.8258    8.2843   -7.8708 H       1  UNL1        0.0622
     70 H          11.6937    6.7557   -6.4247 H       1  UNL1        0.0654
     71 H           8.1571    0.5340   -2.3569 H       1  UNL1        0.0625
     72 H           7.1683   -1.3699   -1.1421 H       1  UNL1        0.0656
     73 H           0.9440   -3.0103   -0.3311 H       1  UNL1        0.0626
     74 H          -0.1264   -4.2957    1.4764 H       1  UNL1        0.0618
     75 H           1.2446   -5.1503    3.3597 H       1  UNL1        0.0618
     76 H           3.5884   -4.3831    3.6224 H       1  UNL1        0.0618
     77 H           4.6375   -2.9352    1.9085 H       1  UNL1        0.0626
@<TRIPOS>BOND
     1     1     2    1
     2     2     3    1
     3     3     4    1
     4     4     5   ar
     5     5     6   ar
     6     6     7    1
     7     7     8    2
     8     8     9    1
     9     9    10   am
    10    10    11    2
    11    10    12    1
    12    12    13    1
    13    13    14    1
    14    14    15   ar
    15    15    16   ar
    16    16    17   ar
    17    17    18    1
    18    18    19    1
    19    18    20    1
    20    18    21    1
    21    21    22    1
    22    22    23    1
    23    22    24    1
    24    22    25    1
    25    17    26   ar
    26    26    27   ar
    27    14    27   ar
    28     6    28   ar
    29    28    29   ar
    30    29    30   ar
    31     4    30   ar
    32    30    31    1
    33    31    32    1
    34    32    33    2
    35    32    34    1
    36    34    35   ar
    37    35    36   ar
    38    36    37   ar
    39    37    38   ar
    40    38    39   ar
    41    34    39   ar
    42     1    40    1
    43     1    41    1
    44     1    42    1
    45     2    43    1
    46     2    44    1
    47     5    45    1
    48     7    46    1
    49     9    47    1
    50    12    48    1
    51    12    49    1
    52    15    50    1
    53    16    51    1
    54    19    52    1
    55    19    53    1
    56    19    54    1
    57    20    55    1
    58    20    56    1
    59    20    57    1
    60    21    58    1
    61    21    59    1
    62    23    60    1
    63    23    61    1
    64    23    62    1
    65    24    63    1
    66    24    64    1
    67    24    65    1
    68    25    66    1
    69    25    67    1
    70    25    68    1
    71    26    69    1
    72    27    70    1
    73    28    71    1
    74    29    72    1
    75    35    73    1
    76    36    74    1
    77    37    75    1
    78    38    76    1
    79    39    77    1
