@<TRIPOS>MOLECULE
*****
 58 61 0 0 0
SMALL
GASTEIGER

@<TRIPOS>ATOM
      1 C           0.9183    0.0100   -0.0520 C.3     1  UNL1        0.0788
      2 O           2.3334    0.0825   -0.1613 O.3     1  UNL1       -0.4951
      3 C           2.9711    0.9924    0.6316 C.ar    1  UNL1        0.1219
      4 C           4.1751    1.4806    0.1230 C.ar    1  UNL1       -0.0198
      5 C           5.0104    2.2418    0.9294 C.ar    1  UNL1       -0.0565
      6 C           4.6153    2.5506    2.2304 C.ar    1  UNL1       -0.0389
      7 C           3.3511    2.1912    2.7135 C.ar    1  UNL1        0.0549
      8 N           2.9197    2.6036    3.9541 N.pl3   1  UNL1       -0.2015
      9 N           2.7751    1.6939    5.0002 N.3     1  UNL1       -0.1797
     10 N           3.0375    2.4416    6.1793 N.4     1  UNL1        0.4192
     11 N           2.5908    3.8352    5.9185 N.3     1  UNL1       -0.2341
     12 C           2.5890    3.9478    4.4128 C.3     1  UNL1        0.1757
     13 S           3.7120    5.3327    3.9346 S.3     1  UNL1       -0.1079
     14 C           3.5759    5.5202    2.0276 C.3     1  UNL1        0.0733
     15 C           4.5050    6.6766    1.4520 C.2     1  UNL1        0.2230
     16 O           5.1266    7.4375    2.2570 O.2     1  UNL1       -0.2749
     17 N           4.6336    6.8417    0.0436 N.am    1  UNL1       -0.3143
     18 C           5.4555    7.9904   -0.7316 C.3     1  UNL1        0.0157
     19 C           5.2829    8.1010   -2.5259 C.3     1  UNL1       -0.0101
     20 C           6.1103    9.1778   -3.7270 C.ar    1  UNL1       -0.0209
     21 C           7.3348    8.5425   -3.8379 C.ar    1  UNL1        0.0060
     22 N           8.0888    9.6913   -3.8204 N.ar    1  UNL1       -0.3603
     23 C           7.9327   10.1404   -5.0997 C.ar    1  UNL1        0.0502
     24 C           8.9886   10.5836   -5.9372 C.ar    1  UNL1        0.0040
     25 C           8.8589   10.8589   -7.2794 C.ar    1  UNL1        0.1221
     26 O          10.0297   11.2731   -7.8525 O.3     1  UNL1       -0.4950
     27 C          10.1580   11.7889   -9.1754 C.3     1  UNL1        0.0788
     28 C           7.5848   10.5995   -7.7517 C.ar    1  UNL1       -0.0193
     29 C           6.3997   10.1383   -6.8121 C.ar    1  UNL1       -0.0489
     30 C           6.5543    9.8816   -5.3100 C.ar    1  UNL1        0.0031
     31 C           2.5538    1.3682    1.9117 C.ar    1  UNL1        0.0026
     32 H           0.5871   -0.8842   -0.5878 H       1  UNL1        0.0660
     33 H           0.4764    0.8878   -0.5304 H       1  UNL1        0.0660
     34 H           0.5591   -0.0930    0.9752 H       1  UNL1        0.0660
     35 H           4.4715    1.2530   -0.8993 H       1  UNL1        0.0654
     36 H           5.9618    2.6061    0.5485 H       1  UNL1        0.0619
     37 H           5.2838    3.1673    2.8291 H       1  UNL1        0.0636
     38 H           3.3336    0.8367    4.8756 H       1  UNL1        0.1991
     39 H           4.0586    2.4205    6.3741 H       1  UNL1        0.2445
     40 H           2.5633    2.0324    7.0093 H       1  UNL1        0.2445
     41 H           3.2586    4.5292    6.2657 H       1  UNL1        0.1771
     42 H           1.5559    4.1991    4.1422 H       1  UNL1        0.0851
     43 H           2.5270    5.6554    1.7541 H       1  UNL1        0.0472
     44 H           3.9362    4.6165    1.5660 H       1  UNL1        0.0472
     45 H           4.3006    6.0647   -0.5189 H       1  UNL1        0.1487
     46 H           6.4983    7.8149   -0.4026 H       1  UNL1        0.0465
     47 H           5.1179    8.9068   -0.2350 H       1  UNL1        0.0465
     48 H           4.2337    7.9655   -2.7471 H       1  UNL1        0.0329
     49 H           5.8191    7.1506   -2.7319 H       1  UNL1        0.0329
     50 H           7.4100    7.7690   -4.6154 H       1  UNL1        0.0810
     51 H           8.0002   10.3986   -3.1100 H       1  UNL1        0.1653
     52 H           9.9823   10.6004   -5.5003 H       1  UNL1        0.0675
     53 H          11.1642   12.2368   -9.2896 H       1  UNL1        0.0660
     54 H           9.4436   12.5875   -9.3845 H       1  UNL1        0.0660
     55 H          10.1015   10.9855   -9.9130 H       1  UNL1        0.0660
     56 H           7.4652   10.6814   -8.8440 H       1  UNL1        0.0654
     57 H           5.4876    9.9934   -7.4040 H       1  UNL1        0.0625
     58 H           1.6067    1.0230    2.3100 H       1  UNL1        0.0673
@<TRIPOS>UNITY_ATOM_ATTR
10 1
charge 1
@<TRIPOS>BOND
     1     1     2    1
     2     2     3    1
     3     3     4   ar
     4     4     5   ar
     5     5     6   ar
     6     6     7   ar
     7     7     8    1
     8     8     9    1
     9     9    10    1
    10    10    11    1
    11    11    12    1
    12     8    12    1
    13    13    14    1
    14    14    15    1
    15    15    16    2
    16    15    17   am
    17    17    18    1
    18    18    19    1
    19    19    20    1
    20    20    21   ar
    21    21    22   ar
    22    22    23   ar
    23    23    24   ar
    24    24    25   ar
    25    25    26    1
    26    26    27    1
    27    25    28   ar
    28    28    29   ar
    29    29    30   ar
    30    20    30   ar
    31    23    30   ar
    32     7    31   ar
    33     3    31   ar
    34    12    13    1
    35     1    32    1
    36     1    33    1
    37     1    34    1
    38     4    35    1
    39     5    36    1
    40     6    37    1
    41     9    38    1
    42    10    39    1
    43    10    40    1
    44    11    41    1
    45    12    42    1
    46    14    43    1
    47    14    44    1
    48    17    45    1
    49    18    46    1
    50    18    47    1
    51    19    48    1
    52    19    49    1
    53    21    50    1
    54    22    51    1
    55    24    52    1
    56    27    53    1
    57    27    54    1
    58    27    55    1
    59    28    56    1
    60    29    57    1
    61    31    58    1
