@<TRIPOS>MOLECULE
*****
 72 74 0 0 0
SMALL
GASTEIGER

@<TRIPOS>ATOM
      1 C           1.0496   -0.3673    0.0850 C.3     1  UNL1       -0.0245
      2 C           2.5475   -0.1358    0.1057 C.3     1  UNL1       -0.0348
      3 N           2.9956    1.0739   -0.7105 N.4     1  UNL1        0.2359
      4 C           2.5028    2.4179   -0.1917 C.3     1  UNL1       -0.0348
      5 C           1.0071    2.6148   -0.2762 C.3     1  UNL1       -0.0245
      6 C           4.5392    1.0645   -0.7744 C.3     1  UNL1       -0.0160
      7 C           5.1112    2.1839   -1.6531 C.3     1  UNL1        0.0520
      8 N           6.5540    2.2403   -1.6919 N.am    1  UNL1       -0.3063
      9 C           7.1582    3.2862   -2.3715 C.2     1  UNL1        0.2442
     10 O           6.5037    4.1768   -2.9320 O.2     1  UNL1       -0.2702
     11 C           8.6263    3.2774   -2.4842 C.ar    1  UNL1        0.0368
     12 C           9.4209    4.4315   -2.5467 C.ar    1  UNL1       -0.0479
     13 C          10.8227    4.3481   -2.8526 C.ar    1  UNL1       -0.0398
     14 C          11.4470    3.0954   -3.0467 C.ar    1  UNL1        0.0326
     15 N          12.9022    2.8852   -3.1573 N.am    1  UNL1       -0.2966
     16 C          13.5978    1.6155   -3.1482 C.2     1  UNL1        0.1411
     17 S          12.9206    0.0813   -2.9089 S.2     1  UNL1       -0.0182
     18 N          15.0007    1.6883   -3.3426 N.am    1  UNL1       -0.2635
     19 C          15.9000    0.6118   -3.0777 C.2     1  UNL1        0.2531
     20 O          15.5890   -0.5753   -2.9711 O.2     1  UNL1       -0.2697
     21 C          17.3593    0.7979   -2.9137 C.ar    1  UNL1        0.0786
     22 C          18.1006   -0.1161   -3.7080 C.ar    1  UNL1       -0.0461
     23 C          19.4655   -0.3078   -3.5214 C.ar    1  UNL1       -0.0608
     24 C          20.1300    0.4632   -2.5810 C.ar    1  UNL1       -0.0583
     25 C          19.4114    1.3429   -1.7634 C.ar    1  UNL1       -0.0192
     26 C          18.0178    1.4950   -1.8783 C.ar    1  UNL1        0.1326
     27 O          17.5103    2.2937   -0.8680 O.3     1  UNL1       -0.4909
     28 C          16.1123    2.4843   -0.9166 C.3     1  UNL1        0.0936
     29 C          15.5126    3.5101    0.0194 C.3     1  UNL1        0.0066
     30 C          14.0021    3.5915   -0.1043 C.ar    1  UNL1       -0.0442
     31 C          13.3663    4.8345   -0.2133 C.ar    1  UNL1       -0.0585
     32 C          11.9812    4.9245   -0.0752 C.ar    1  UNL1       -0.0615
     33 C          11.2123    3.7666    0.0601 C.ar    1  UNL1       -0.0617
     34 C          11.8190    2.5187    0.0106 C.ar    1  UNL1       -0.0615
     35 C          13.2063    2.4345   -0.0376 C.ar    1  UNL1       -0.0585
     36 C          10.5710    2.0151   -2.9994 C.ar    1  UNL1       -0.0398
     37 C           9.2247    2.0612   -2.6855 C.ar    1  UNL1       -0.0479
     38 H           0.8022   -1.3463    0.5023 H       1  UNL1        0.0281
     39 H           0.6353   -0.2924   -0.9248 H       1  UNL1        0.0281
     40 H           0.5257    0.3152    0.7484 H       1  UNL1        0.0281
     41 H           3.0376   -1.0100   -0.3374 H       1  UNL1        0.0812
     42 H           2.9166    0.0081    1.1256 H       1  UNL1        0.0812
     43 H           2.6571    0.9488   -1.6767 H       1  UNL1        0.2034
     44 H           2.9288    3.1861   -0.8367 H       1  UNL1        0.0812
     45 H           2.8872    2.5344    0.8251 H       1  UNL1        0.0812
     46 H           0.6093    2.2943   -1.2435 H       1  UNL1        0.0281
     47 H           0.7621    3.6690   -0.1240 H       1  UNL1        0.0281
     48 H           0.4806    2.1186    0.5323 H       1  UNL1        0.0281
     49 H           4.8432    0.0865   -1.1673 H       1  UNL1        0.0830
     50 H           4.9011    1.1551    0.2565 H       1  UNL1        0.0830
     51 H           4.8072    3.1660   -1.2854 H       1  UNL1        0.0515
     52 H           4.7409    2.0844   -2.6806 H       1  UNL1        0.0515
     53 H           7.1273    1.5850   -1.1665 H       1  UNL1        0.1492
     54 H           8.9655    5.3869   -2.2808 H       1  UNL1        0.0626
     55 H          11.3882    5.2800   -2.8252 H       1  UNL1        0.0636
     56 H          13.4330    3.7203   -2.9091 H       1  UNL1        0.1538
     57 H          15.4092    2.5875   -3.5555 H       1  UNL1        0.1568
     58 H          17.5854   -0.7468   -4.4364 H       1  UNL1        0.0626
     59 H          19.9956   -1.0703   -4.0883 H       1  UNL1        0.0618
     60 H          21.2059    0.3618   -2.4628 H       1  UNL1        0.0619
     61 H          19.9469    1.8895   -0.9898 H       1  UNL1        0.0654
     62 H          15.6258    1.5134   -0.7853 H       1  UNL1        0.0700
     63 H          15.9388    2.9652   -1.8668 H       1  UNL1        0.0700
     64 H          15.9558    4.4794   -0.2383 H       1  UNL1        0.0346
     65 H          15.7663    3.2927    1.0573 H       1  UNL1        0.0346
     66 H          13.9370    5.7394   -0.4120 H       1  UNL1        0.0620
     67 H          11.4859    5.8897   -0.1532 H       1  UNL1        0.0618
     68 H          10.1288    3.8325    0.0416 H       1  UNL1        0.0618
     69 H          11.2209    1.6146   -0.0861 H       1  UNL1        0.0618
     70 H          13.6427    1.4397   -0.0927 H       1  UNL1        0.0620
     71 H          10.8687    1.0085   -3.1647 H       1  UNL1        0.0636
     72 H           8.6994    1.1140   -2.6509 H       1  UNL1        0.0626
@<TRIPOS>UNITY_ATOM_ATTR
3 1
charge 1
@<TRIPOS>BOND
     1     1     2    1
     2     2     3    1
     3     3     4    1
     4     4     5    1
     5     3     6    1
     6     6     7    1
     7     7     8    1
     8     8     9   am
     9     9    10    2
    10     9    11    1
    11    11    12   ar
    12    12    13   ar
    13    13    14   ar
    14    14    15    1
    15    15    16    1
    16    16    17    2
    17    16    18    1
    18    18    19   am
    19    19    20    2
    20    19    21    1
    21    21    22   ar
    22    22    23   ar
    23    23    24   ar
    24    24    25   ar
    25    25    26   ar
    26    21    26   ar
    27    26    27    1
    28    27    28    1
    29    28    29    1
    30    29    30    1
    31    30    31   ar
    32    31    32   ar
    33    32    33   ar
    34    33    34   ar
    35    34    35   ar
    36    30    35   ar
    37    14    36   ar
    38    36    37   ar
    39    11    37   ar
    40     1    38    1
    41     1    39    1
    42     1    40    1
    43     2    41    1
    44     2    42    1
    45     3    43    1
    46     4    44    1
    47     4    45    1
    48     5    46    1
    49     5    47    1
    50     5    48    1
    51     6    49    1
    52     6    50    1
    53     7    51    1
    54     7    52    1
    55     8    53    1
    56    12    54    1
    57    13    55    1
    58    15    56    1
    59    18    57    1
    60    22    58    1
    61    23    59    1
    62    24    60    1
    63    25    61    1
    64    28    62    1
    65    28    63    1
    66    29    64    1
    67    29    65    1
    68    31    66    1
    69    32    67    1
    70    33    68    1
    71    34    69    1
    72    35    70    1
    73    36    71    1
    74    37    72    1
