REMARK  9 active torsions:
REMARK  status: ('A' for Active; 'I' for Inactive)
REMARK    1  A    between atoms: C_5  and  S_6 
REMARK    2  A    between atoms: S_6  and  N_9 
REMARK    3  A    between atoms: N_9  and  C_10 
REMARK    4  A    between atoms: C_10  and  C_11 
REMARK    5  A    between atoms: C_17  and  C_18 
REMARK    6  A    between atoms: C_18  and  O_20 
REMARK    7  A    between atoms: O_20  and  C_21 
REMARK    8  A    between atoms: C_21  and  C_22 
REMARK       I    between atoms: C_22  and  N_24 
REMARK       I    between atoms: N_24  and  C_25 
REMARK       I    between atoms: C_25  and  N_27 
REMARK    9  A    between atoms: N_27  and  C_28 
ROOT
ATOM      1  C   UNL d   1       1.024   2.636  -0.001  0.00  0.00     0.294 C 
ATOM      2  O   UNL d   1       0.394   3.691  -0.015  0.00  0.00    -0.259 OA
ENDROOT
BRANCH   1   3
ATOM      3  C   UNL d   1       0.334   1.278   0.006  0.00  0.00     0.046 A 
ATOM      4  C   UNL d   1      -1.087   1.271   0.006  0.00  0.00     0.042 A 
ATOM      5  C   UNL d   1      -1.809   0.065  -0.005  0.00  0.00     0.075 A 
ATOM      6  C   UNL d   1      -1.130  -1.157  -0.001  0.00  0.00     0.025 A 
ATOM      7  C   UNL d   1       0.266  -1.168   0.004  0.00  0.00     0.009 A 
ATOM      8  C   UNL d   1       1.010   0.034   0.002  0.00  0.00    -0.046 A 
ATOM      9  C   UNL d   1       2.511  -0.070  -0.013  0.00  0.00     0.049 C 
BRANCH   5  10
ATOM     10  S   UNL d   1      -3.589   0.007  -0.055  0.00  0.00     0.241 S 
ATOM     11  O   UNL d   1      -3.961  -0.560  -1.330  0.00  0.00    -0.206 OA
ATOM     12  O   UNL d   1      -4.038  -0.585   1.190  0.00  0.00    -0.206 OA
BRANCH  10  13
ATOM     13  N   UNL d   1      -4.136   1.618  -0.080  0.00  0.00    -0.209 NA
ATOM     14  H   UNL d   1      -3.784   2.111  -0.901  0.00  0.00     0.140 HD
BRANCH  13  15
ATOM     15  C   UNL d   1      -5.619   1.668  -0.074  0.00  0.00     0.169 C 
BRANCH  15  16
ATOM     16  C   UNL d   1      -6.187   3.050  -0.103  0.00  0.00     0.066 A 
ATOM     17  C   UNL d   1      -7.507   3.454  -0.165  0.00  0.00     0.036 A 
ATOM     18  C   UNL d   1      -7.506   4.865  -0.168  0.00  0.00     0.027 A 
ATOM     19  C   UNL d   1      -6.184   5.241  -0.108  0.00  0.00     0.142 A 
ATOM     20  O   UNL d   1      -5.371   4.146  -0.078  0.00  0.00    -0.326 OA
ENDBRANCH  15  16
ENDBRANCH  13  15
ENDBRANCH  10  13
ENDBRANCH   5  10
ENDBRANCH   1   3
BRANCH   1  21
ATOM     21  O   UNL d   1       2.376   2.577   0.004  0.00  0.00    -0.308 OA
BRANCH  21  22
ATOM     22  C   UNL d   1       3.164   3.805  -0.005  0.00  0.00     0.282 C 
BRANCH  22  23
ATOM     23  C   UNL d   1       4.675   3.456  -0.007  0.00  0.00     0.249 C 
ATOM     24  O   UNL d   1       4.997   2.266   0.032  0.00  0.00    -0.271 OA
ATOM     25  N   UNL d   1       5.601   4.516  -0.026  0.00  0.00    -0.277 N 
ATOM     26  C   UNL d   1       6.955   4.260  -0.143  0.00  0.00     0.323 C 
ATOM     27  H   UNL d   1       5.286   5.471  -0.006  0.00  0.00     0.173 HD
ATOM     28  O   UNL d   1       7.376   3.123  -0.325  0.00  0.00    -0.247 OA
ATOM     29  N   UNL d   1       7.832   5.332   0.035  0.00  0.00    -0.338 N 
ATOM     30  H   UNL d   1       7.504   6.280  -0.065  0.00  0.00     0.164 HD
BRANCH  29  31
ATOM     31  C   UNL d   1       9.332   5.135   0.028  0.00  0.00     0.089 C 
ATOM     32  C   UNL d   1      10.091   6.323   0.684  0.00  0.00     0.026 C 
ATOM     33  C   UNL d   1      11.614   6.099   0.784  0.00  0.00     0.002 C 
ATOM     34  C   UNL d   1      11.976   4.781   1.462  0.00  0.00     0.001 C 
ATOM     35  C   UNL d   1      11.276   3.623   0.781  0.00  0.00     0.006 C 
ATOM     36  C   UNL d   1       9.760   3.819   0.737  0.00  0.00     0.004 C 
ATOM     37  C   UNL d   1       9.149   3.752   2.146  0.00  0.00     0.012 C 
ENDBRANCH  29  31
ENDBRANCH  22  23
ENDBRANCH  21  22
ENDBRANCH   1  21
TORSDOF 9
