@<TRIPOS>MOLECULE
*****
 43 44 0 0 0
SMALL
GASTEIGER

@<TRIPOS>ATOM
      1 C           1.8501    1.4780   -0.0168 C.3     1  UNL1       -0.0393
      2 C           0.5650    0.6846   -0.0075 C.ar    1  UNL1       -0.0439
      3 C          -0.6382    1.4119    0.0130 C.ar    1  UNL1       -0.0321
      4 C          -1.8446    0.7357    0.0164 C.ar    1  UNL1        0.1070
      5 S          -3.3900    1.6041    0.1238 S.O2    1  UNL1        0.0560
      6 N          -4.1624    1.1285   -1.2774 N.3     1  UNL1       -0.2035
      7 O          -4.1305    1.0502    1.2358 O.2     1  UNL1       -0.1533
      8 O          -3.1246    3.0150   -0.0105 O.2     1  UNL1       -0.1533
      9 C          -1.8648   -0.6552   -0.0138 C.ar    1  UNL1       -0.0138
     10 C          -0.6943   -1.4316   -0.0216 C.ar    1  UNL1        0.0385
     11 N          -0.7834   -2.8654   -0.0290 N.am    1  UNL1       -0.2824
     12 C          -1.9745   -3.5976   -0.0506 C.2     1  UNL1        0.2548
     13 O          -3.0997   -3.1000   -0.0827 O.2     1  UNL1       -0.2717
     14 C          -1.8398   -5.1256   -0.0418 C.3     1  UNL1        0.1655
     15 O          -3.1875   -5.6273   -0.1121 O.3     1  UNL1       -0.4827
     16 C          -3.3738   -6.9729   -0.0903 C.ar    1  UNL1        0.1244
     17 C          -2.7052   -7.8320    0.7755 C.ar    1  UNL1       -0.0133
     18 C          -2.9850   -9.2037    0.7529 C.ar    1  UNL1        0.0220
     19 C          -3.9480   -9.7109   -0.1364 C.ar    1  UNL1        0.3081
     20 N          -4.2029  -11.1507   -0.1816 N.pl3   1  UNL1        0.0826
     21 O          -3.5406  -11.8663    0.5852 O.2     1  UNL1        0.0415
     22 O          -5.0434  -11.5847   -0.9783 O.co2   1  UNL1       -0.5760
     23 C          -4.6450   -8.8398   -0.9689 C.ar    1  UNL1        0.2034
     24 F          -5.5820   -9.2649   -1.8271 F       1  UNL1       -0.1983
     25 C          -4.3708   -7.4726   -0.9333 C.ar    1  UNL1        0.0221
     26 C           0.5520   -0.7494   -0.0090 C.ar    1  UNL1       -0.0262
     27 C           1.8857   -1.4629    0.0199 C.3     1  UNL1       -0.0377
     28 H           1.6539    2.5570   -0.0266 H       1  UNL1        0.0278
     29 H           2.4324    1.2497   -0.9144 H       1  UNL1        0.0278
     30 H           2.4420    1.2641    0.8777 H       1  UNL1        0.0278
     31 H          -0.6321    2.5000    0.0443 H       1  UNL1        0.0640
     32 H          -4.5595    0.1921   -1.2738 H       1  UNL1        0.1442
     33 H          -3.8131    1.5321   -2.1403 H       1  UNL1        0.1442
     34 H          -2.8506   -1.0969   -0.0048 H       1  UNL1        0.0656
     35 H           0.0837   -3.3840   -0.0165 H       1  UNL1        0.1549
     36 H          -1.3395   -5.4307    0.8812 H       1  UNL1        0.0795
     37 H          -1.2862   -5.4471   -0.9296 H       1  UNL1        0.0795
     38 H          -1.9910   -7.4515    1.4989 H       1  UNL1        0.0656
     39 H          -2.4482   -9.8578    1.4375 H       1  UNL1        0.0687
     40 H          -4.9385   -6.8042   -1.5767 H       1  UNL1        0.0685
     41 H           1.8041   -2.5498    0.0305 H       1  UNL1        0.0278
     42 H           2.4447   -1.1856    0.9213 H       1  UNL1        0.0278
     43 H           2.4788   -1.2004   -0.8630 H       1  UNL1        0.0278
@<TRIPOS>UNITY_ATOM_ATTR
20 1
charge 1
22 1
charge -1
@<TRIPOS>BOND
     1     1     2    1
     2     2     3   ar
     3     3     4   ar
     4     4     5    1
     5     5     6    1
     6     5     7    2
     7     5     8    2
     8     4     9   ar
     9     9    10   ar
    10    10    11    1
    11    11    12   am
    12    12    13    2
    13    12    14    1
    14    14    15    1
    15    15    16    1
    16    16    17   ar
    17    17    18   ar
    18    18    19   ar
    19    19    20    1
    20    20    21    2
    21    20    22    1
    22    19    23   ar
    23    23    24    1
    24    23    25   ar
    25    16    25   ar
    26    10    26   ar
    27     2    26   ar
    28    26    27    1
    29     1    28    1
    30     1    29    1
    31     1    30    1
    32     3    31    1
    33     6    32    1
    34     6    33    1
    35     9    34    1
    36    11    35    1
    37    14    36    1
    38    14    37    1
    39    17    38    1
    40    18    39    1
    41    25    40    1
    42    27    41    1
    43    27    42    1
    44    27    43    1
