@<TRIPOS>MOLECULE
*****
 56 58 0 0 0
SMALL
GASTEIGER

@<TRIPOS>ATOM
      1 C           1.0595    0.0157    0.0457 C.3     1  UNL1        0.0788
      2 O           2.4719    0.1492    0.1224 O.3     1  UNL1       -0.4951
      3 C           3.1077   -0.9463    0.6315 C.ar    1  UNL1        0.1201
      4 C           4.3117   -0.7118    1.2945 C.ar    1  UNL1       -0.0194
      5 C           5.1322   -1.7982    1.6254 C.ar    1  UNL1       -0.0511
      6 C           4.7023   -3.1186    1.3406 C.ar    1  UNL1       -0.0246
      7 C           5.5623   -4.3147    1.4119 C.2     1  UNL1       -0.0497
      8 C           5.2142   -5.6454    1.3934 C.2     1  UNL1        0.0011
      9 C           6.2723   -6.7582    1.4706 C.2     1  UNL1        0.2424
     10 O           7.4172   -6.4316    1.1608 O.2     1  UNL1       -0.2704
     11 N           5.9422   -8.0761    1.9521 N.am    1  UNL1       -0.2640
     12 C           6.8698   -9.1241    2.4202 C.2     1  UNL1        0.1411
     13 S           8.5570   -9.0222    2.4560 S.2     1  UNL1       -0.0182
     14 N           6.1908  -10.2646    2.9693 N.am    1  UNL1       -0.2960
     15 C           6.9066  -11.3564    3.6578 C.ar    1  UNL1        0.0448
     16 C           7.0449  -12.5994    2.9882 C.ar    1  UNL1       -0.0398
     17 C           7.6601  -13.7135    3.5975 C.ar    1  UNL1       -0.0600
     18 C           8.2054  -13.5996    4.8687 C.ar    1  UNL1       -0.0609
     19 C           8.1002  -12.3827    5.5423 C.ar    1  UNL1       -0.0478
     20 C           7.4467  -11.2555    4.9706 C.ar    1  UNL1        0.0578
     21 C           7.3871  -10.0428    5.8544 C.2     1  UNL1        0.2459
     22 O           8.0569  -10.0073    6.9082 O.2     1  UNL1       -0.2701
     23 N           6.5996   -8.9860    5.4807 N.am    1  UNL1       -0.3088
     24 C           6.7490   -7.6711    6.1040 C.3     1  UNL1        0.0382
     25 C           6.2707   -6.5209    5.2359 C.3     1  UNL1        0.0742
     26 C           7.3569   -6.2544    4.2391 C.3     1  UNL1       -0.0231
     27 C           6.9828   -4.9004    3.8121 C.3     1  UNL1       -0.0271
     28 C           6.6487   -4.1994    5.0670 C.3     1  UNL1        0.0482
     29 O           6.0955   -5.2458    5.9070 O.3     1  UNL1       -0.3750
     30 C           3.4530   -3.3184    0.7843 C.ar    1  UNL1       -0.0511
     31 C           2.6710   -2.2491    0.4104 C.ar    1  UNL1       -0.0194
     32 H           0.6768    0.8906   -0.4803 H       1  UNL1        0.0660
     33 H           0.6487   -0.0084    1.0586 H       1  UNL1        0.0660
     34 H           0.7272   -0.8574   -0.5250 H       1  UNL1        0.0660
     35 H           4.6214    0.3130    1.5024 H       1  UNL1        0.0654
     36 H           6.1173   -1.5760    2.0395 H       1  UNL1        0.0625
     37 H           6.5894   -3.9810    1.5594 H       1  UNL1        0.0625
     38 H           4.1785   -5.9449    1.3589 H       1  UNL1        0.0670
     39 H           4.9616   -8.2487    2.1323 H       1  UNL1        0.1568
     40 H           5.4598  -10.6227    2.3605 H       1  UNL1        0.1539
     41 H           6.7440  -12.7154    1.9491 H       1  UNL1        0.0636
     42 H           7.7268  -14.6712    3.0797 H       1  UNL1        0.0618
     43 H           8.7166  -14.4437    5.3332 H       1  UNL1        0.0618
     44 H           8.5306  -12.3173    6.5440 H       1  UNL1        0.0626
     45 H           6.1601   -9.0639    4.5747 H       1  UNL1        0.1491
     46 H           7.8183   -7.5224    6.2936 H       1  UNL1        0.0487
     47 H           6.2303   -7.6700    7.0591 H       1  UNL1        0.0487
     48 H           5.3163   -6.7762    4.7351 H       1  UNL1        0.0611
     49 H           7.2938   -6.9824    3.4731 H       1  UNL1        0.0291
     50 H           8.3828   -6.2805    4.6019 H       1  UNL1        0.0291
     51 H           5.9930   -5.0016    3.3995 H       1  UNL1        0.0288
     52 H           7.7020   -4.4408    3.1360 H       1  UNL1        0.0288
     53 H           5.9061   -3.4174    4.8583 H       1  UNL1        0.0560
     54 H           7.5525   -3.7699    5.4951 H       1  UNL1        0.0560
     55 H           3.1124   -4.3124    0.5321 H       1  UNL1        0.0625
     56 H           1.7653   -2.4997   -0.1226 H       1  UNL1        0.0654
@<TRIPOS>BOND
     1     1     2    1
     2     2     3    1
     3     3     4   ar
     4     4     5   ar
     5     5     6   ar
     6     6     7    1
     7     7     8    2
     8     8     9    1
     9     9    10    2
    10     9    11   am
    11    11    12    1
    12    12    13    2
    13    12    14    1
    14    14    15    1
    15    15    16   ar
    16    16    17   ar
    17    17    18   ar
    18    18    19   ar
    19    19    20   ar
    20    15    20   ar
    21    20    21    1
    22    21    22    2
    23    21    23   am
    24    23    24    1
    25    24    25    1
    26    25    26    1
    27    26    27    1
    28    27    28    1
    29    28    29    1
    30    25    29    1
    31     6    30   ar
    32    30    31   ar
    33     3    31   ar
    34     1    32    1
    35     1    33    1
    36     1    34    1
    37     4    35    1
    38     5    36    1
    39     7    37    1
    40     8    38    1
    41    11    39    1
    42    14    40    1
    43    16    41    1
    44    17    42    1
    45    18    43    1
    46    19    44    1
    47    23    45    1
    48    24    46    1
    49    24    47    1
    50    25    48    1
    51    26    49    1
    52    26    50    1
    53    27    51    1
    54    27    52    1
    55    28    53    1
    56    28    54    1
    57    30    55    1
    58    31    56    1
