REMARK  10 active torsions:
REMARK  status: ('A' for Active; 'I' for Inactive)
REMARK    1  A    between atoms: C_2  and  C_3 
REMARK       I    between atoms: C_2  and  N_16 
REMARK    2  A    between atoms: C_3  and  C_4 
REMARK    3  A    between atoms: C_4  and  C_5 
REMARK    4  A    between atoms: C_5  and  N_6 
REMARK    5  A    between atoms: N_6  and  C_7 
REMARK    6  A    between atoms: C_10  and  N_11 
REMARK    7  A    between atoms: N_16  and  C_17 
REMARK    8  A    between atoms: C_17  and  C_18 
REMARK    9  A    between atoms: C_18  and  C_19 
REMARK   10  A    between atoms: N_24  and  C_25 
ROOT
ATOM      1  O   UNL d   1       1.064  -0.140   0.190  0.00  0.00    -0.274 OA
ATOM      2  C   UNL d   1       2.294  -0.086   0.113  0.00  0.00     0.217 C 
ATOM      3  N   UNL d   1       3.046  -0.904   0.909  0.00  0.00    -0.361 N 
ATOM      4  H   UNL d   1       2.489  -1.494   1.517  0.00  0.00     0.162 HD
ENDROOT
BRANCH   2   5
ATOM      5  C   UNL d   1       3.020   0.854  -0.829  0.00  0.00     0.104 C 
BRANCH   5   6
ATOM      6  C   UNL d   1       2.047   1.698  -1.660  0.00  0.00     0.029 C 
BRANCH   6   7
ATOM      7  C   UNL d   1       2.808   2.632  -2.592  0.00  0.00     0.120 C 
BRANCH   7   8
ATOM      8  N   UNL d   1       1.913   3.532  -3.304  0.00  0.00    -0.390 N 
ATOM      9  H   UNL d   1       0.912   3.360  -3.276  0.00  0.00     0.159 HD
BRANCH   8  10
ATOM     10  C   UNL d   1       2.397   4.329  -4.331  0.00  0.00     0.028 A 
ATOM     11  C   UNL d   1       1.904   5.631  -4.496  0.00  0.00     0.031 A 
ATOM     12  C   UNL d   1       2.419   6.483  -5.484  0.00  0.00     0.038 A 
ATOM     13  C   UNL d   1       3.476   6.042  -6.288  0.00  0.00     0.103 A 
ATOM     14  C   UNL d   1       3.953   4.737  -6.169  0.00  0.00     0.038 A 
ATOM     15  C   UNL d   1       3.406   3.894  -5.200  0.00  0.00     0.031 A 
BRANCH  13  16
ATOM     16  N   UNL d   1       4.140   6.969  -7.214  0.00  0.00    -0.116 N 
ATOM     17  O   UNL d   1       3.715   8.131  -7.273  0.00  0.00    -0.532 OA
ATOM     18  O   UNL d   1       5.106   6.540  -7.864  0.00  0.00    -0.532 OA
ENDBRANCH  13  16
ENDBRANCH   8  10
ENDBRANCH   7   8
ENDBRANCH   6   7
ENDBRANCH   5   6
ENDBRANCH   2   5
BRANCH   3  19
ATOM     19  C   UNL d   1       4.497  -0.999   0.936  0.00  0.00     0.130 C 
BRANCH  19  20
ATOM     20  C   UNL d   1       5.003  -2.115   1.845  0.00  0.00     0.100 C 
BRANCH  20  21
ATOM     21  C   UNL d   1       6.502  -2.034   1.942  0.00  0.00     0.130 A 
ATOM     22  N   UNL d   1       7.258  -2.622   1.054  0.00  0.00    -0.159 NA
ATOM     23  N   UNL d   1       8.528  -2.337   1.450  0.00  0.00    -0.251 N 
ATOM     24  C   UNL d   1       8.514  -1.564   2.601  0.00  0.00     0.196 A 
ATOM     25  H   UNL d   1       9.345  -2.686   0.960  0.00  0.00     0.191 HD
ATOM     26  S   UNL d   1       9.892  -1.067   3.380  0.00  0.00    -0.039 SA
ATOM     27  N   UNL d   1       7.176  -1.344   2.897  0.00  0.00    -0.304 N 
BRANCH  27  28
ATOM     28  C   UNL d   1       6.689  -0.587   4.019  0.00  0.00     0.094 A 
ATOM     29  C   UNL d   1       5.274  -0.126   4.239  0.00  0.00     0.028 A 
ATOM     30  C   UNL d   1       5.832  -1.256   5.065  0.00  0.00     0.028 A 
ENDBRANCH  27  28
ENDBRANCH  20  21
ENDBRANCH  19  20
ENDBRANCH   3  19
TORSDOF 10
