@<TRIPOS>MOLECULE
*****
 50 52 0 0 0
SMALL
GASTEIGER

@<TRIPOS>ATOM
      1 O           1.0431    0.0725    0.0241 O.2     1  UNL1       -0.2743
      2 C           2.2718    0.0062   -0.0091 C.2     1  UNL1        0.2291
      3 C           3.0081   -1.1523   -0.6626 C.3     1  UNL1        0.0257
      4 C           2.0307   -2.1640   -1.2539 C.3     1  UNL1       -0.0408
      5 C           2.7470   -3.3239   -1.9498 C.3     1  UNL1       -0.0272
      6 C           1.7924   -4.3630   -2.4913 C.ar    1  UNL1       -0.0473
      7 C           0.5365   -4.0236   -3.0165 C.ar    1  UNL1       -0.0586
      8 C          -0.3726   -5.0142   -3.3822 C.ar    1  UNL1       -0.0615
      9 C           0.0015   -6.3528   -3.3287 C.ar    1  UNL1       -0.0617
     10 C           1.2715   -6.7025   -2.8746 C.ar    1  UNL1       -0.0615
     11 C           2.1609   -5.7139   -2.4537 C.ar    1  UNL1       -0.0586
     12 N           3.0291    1.0033    0.5574 N.am    1  UNL1       -0.2342
     13 N           4.4281    1.0346    0.6053 N.am    1  UNL1       -0.2304
     14 C           5.0459    2.0852    1.2759 C.2     1  UNL1        0.2602
     15 O           4.4344    2.9829    1.8460 O.2     1  UNL1       -0.2687
     16 C           6.5363    2.0994    1.2522 C.ar    1  UNL1        0.0399
     17 C           7.2866    2.5280    2.3442 C.ar    1  UNL1       -0.0495
     18 C           8.6757    2.6666    2.2162 C.ar    1  UNL1       -0.0593
     19 C           9.3221    2.3415    1.0090 C.ar    1  UNL1       -0.0404
     20 C           8.5722    1.9142   -0.0943 C.ar    1  UNL1        0.0345
     21 N           9.2033    1.6464   -1.3402 N.am    1  UNL1       -0.2790
     22 C           8.5371    1.3260   -2.5271 C.2     1  UNL1        0.2835
     23 O           7.3105    1.2251   -2.6381 O.2     1  UNL1       -0.2665
     24 C           9.3697    1.0889   -3.6775 C.ar    1  UNL1        0.1893
     25 C          10.5258    0.3554   -3.8549 C.ar    1  UNL1       -0.0113
     26 C          10.8140    0.3876   -5.2419 C.ar    1  UNL1       -0.0231
     27 C           9.8219    1.1372   -5.8276 C.ar    1  UNL1        0.0928
     28 O           8.9365    1.5556   -4.8909 O.2     1  UNL1       -0.4583
     29 C           7.1873    1.7966    0.0584 C.ar    1  UNL1       -0.0283
     30 H           3.6367   -1.6435    0.0872 H       1  UNL1        0.0359
     31 H           3.6430   -0.7574   -1.4632 H       1  UNL1        0.0359
     32 H           1.3812   -1.6397   -1.9641 H       1  UNL1        0.0273
     33 H           1.3768   -2.5597   -0.4645 H       1  UNL1        0.0273
     34 H           3.4059   -3.8035   -1.2131 H       1  UNL1        0.0313
     35 H           3.3835   -2.9582   -2.7638 H       1  UNL1        0.0313
     36 H           0.2308   -2.9861   -3.1249 H       1  UNL1        0.0620
     37 H          -1.3755   -4.7356   -3.6944 H       1  UNL1        0.0618
     38 H          -0.6970   -7.1218   -3.6442 H       1  UNL1        0.0618
     39 H           1.5630   -7.7476   -2.8261 H       1  UNL1        0.0618
     40 H           3.1387   -6.0048   -2.0769 H       1  UNL1        0.0620
     41 H           2.5364    1.7846    0.9909 H       1  UNL1        0.1728
     42 H           4.9546    0.2983    0.1487 H       1  UNL1        0.1731
     43 H           6.7950    2.7655    3.2850 H       1  UNL1        0.0625
     44 H           9.2510    3.0576    3.0550 H       1  UNL1        0.0618
     45 H          10.4041    2.4528    0.9592 H       1  UNL1        0.0636
     46 H          10.2066    1.7875   -1.3927 H       1  UNL1        0.1552
     47 H          11.0489   -0.1900   -3.0840 H       1  UNL1        0.0657
     48 H          11.6298   -0.0966   -5.7583 H       1  UNL1        0.0649
     49 H           9.6030    1.4346   -6.8448 H       1  UNL1        0.1029
     50 H           6.5550    1.5198   -0.7697 H       1  UNL1        0.0644
@<TRIPOS>BOND
     1     1     2    2
     2     2     3    1
     3     3     4    1
     4     4     5    1
     5     5     6    1
     6     6     7   ar
     7     7     8   ar
     8     8     9   ar
     9     9    10   ar
    10    10    11   ar
    11     6    11   ar
    12     2    12   am
    13    12    13    1
    14    13    14   am
    15    14    15    2
    16    14    16    1
    17    16    17   ar
    18    17    18   ar
    19    18    19   ar
    20    19    20   ar
    21    20    21    1
    22    21    22   am
    23    22    23    2
    24    22    24    1
    25    24    25   ar
    26    25    26   ar
    27    26    27   ar
    28    27    28   ar
    29    24    28   ar
    30    20    29   ar
    31    16    29   ar
    32     3    30    1
    33     3    31    1
    34     4    32    1
    35     4    33    1
    36     5    34    1
    37     5    35    1
    38     7    36    1
    39     8    37    1
    40     9    38    1
    41    10    39    1
    42    11    40    1
    43    12    41    1
    44    13    42    1
    45    17    43    1
    46    18    44    1
    47    19    45    1
    48    21    46    1
    49    25    47    1
    50    26    48    1
    51    27    49    1
    52    29    50    1
