@<TRIPOS>MOLECULE
*****
 34 34 0 0 0
SMALL
GASTEIGER

@<TRIPOS>ATOM
      1 C           2.4802   -0.3999   -0.0056 C.3     1  UNL1       -0.0379
      2 C           1.0198   -0.1208    0.0001 C.ar    1  UNL1       -0.0290
      3 C           0.2186   -1.2754    0.0028 C.ar    1  UNL1       -0.0571
      4 C          -1.1521   -1.1863   -0.0113 C.ar    1  UNL1       -0.0611
      5 C          -1.7314    0.0741   -0.0238 C.ar    1  UNL1       -0.0565
      6 C          -0.9597    1.2844    0.0070 C.ar    1  UNL1       -0.0233
      7 C          -1.8407    2.5513    0.0356 C.3     1  UNL1       -0.0198
      8 C          -2.7582    2.5884    1.2726 C.3     1  UNL1       -0.0586
      9 C          -1.1025    3.8757    0.0052 C.3     1  UNL1       -0.0586
     10 C           0.4786    1.1902    0.0018 C.ar    1  UNL1        0.0402
     11 N           1.3440    2.3510    0.0008 N.am    1  UNL1       -0.2772
     12 C           2.7181    2.5214   -0.0115 C.2     1  UNL1        0.3044
     13 O           3.6578    1.7281   -0.0336 O.2     1  UNL1       -0.2648
     14 C           3.2318    3.9613   -0.0089 C.2     1  UNL1        0.3125
     15 O           2.4822    4.9243   -0.0185 O.2     1  UNL1       -0.2639
     16 N           4.6238    3.9481   -0.0141 N.am    1  UNL1       -0.2458
     17 N           5.4072    5.0982    0.0196 N.3     1  UNL1       -0.2540
     18 H           2.7592   -1.4512   -0.0034 H       1  UNL1        0.0278
     19 H           2.8876    0.0142    0.9223 H       1  UNL1        0.0278
     20 H           2.8743    0.0044   -0.9437 H       1  UNL1        0.0278
     21 H           0.6921   -2.2551    0.0103 H       1  UNL1        0.0621
     22 H          -1.7515   -2.0924   -0.0108 H       1  UNL1        0.0618
     23 H          -2.8219    0.1040   -0.0484 H       1  UNL1        0.0621
     24 H          -2.4814    2.5251   -0.8602 H       1  UNL1        0.0344
     25 H          -2.1681    2.5183    2.1926 H       1  UNL1        0.0235
     26 H          -3.4922    1.7769    1.2807 H       1  UNL1        0.0235
     27 H          -3.3250    3.5269    1.3056 H       1  UNL1        0.0235
     28 H          -0.4848    3.9575    0.9086 H       1  UNL1        0.0235
     29 H          -1.7582    4.7470    0.0135 H       1  UNL1        0.0235
     30 H          -0.5100    3.9438   -0.9133 H       1  UNL1        0.0235
     31 H           0.9204    3.2590    0.0028 H       1  UNL1        0.1553
     32 H           5.0530    3.0137    0.0304 H       1  UNL1        0.1692
     33 H           4.7786    5.9050   -0.0241 H       1  UNL1        0.1405
     34 H           5.9609    5.1253   -0.8400 H       1  UNL1        0.1405
@<TRIPOS>BOND
     1     1     2    1
     2     2     3   ar
     3     3     4   ar
     4     4     5   ar
     5     5     6   ar
     6     6     7    1
     7     7     8    1
     8     7     9    1
     9     6    10   ar
    10     2    10   ar
    11    10    11    1
    12    11    12   am
    13    12    13    2
    14    12    14    1
    15    14    15    2
    16    14    16   am
    17    16    17    1
    18     1    18    1
    19     1    19    1
    20     1    20    1
    21     3    21    1
    22     4    22    1
    23     5    23    1
    24     7    24    1
    25     8    25    1
    26     8    26    1
    27     8    27    1
    28     9    28    1
    29     9    29    1
    30     9    30    1
    31    11    31    1
    32    16    32    1
    33    17    33    1
    34    17    34    1
