@<TRIPOS>MOLECULE
*****
 48 50 0 0 0
SMALL
GASTEIGER

@<TRIPOS>ATOM
      1 C           1.0432    0.5089    0.0328 C.3     1  UNL1        0.0790
      2 O           2.3977    0.0737   -0.0263 O.3     1  UNL1       -0.4915
      3 C           2.9358   -0.8379    0.8531 C.ar    1  UNL1        0.1615
      4 C           4.1673   -0.4009    1.3997 C.ar    1  UNL1       -0.0160
      5 C           5.0601   -1.2723    2.0560 C.ar    1  UNL1       -0.0548
      6 C           4.7094   -2.6014    2.2653 C.ar    1  UNL1       -0.0424
      7 C           5.5917   -3.5397    3.0723 C.3     1  UNL1       -0.0133
      8 C           4.9596   -4.9324    3.2113 C.3     1  UNL1        0.0214
      9 N           5.7422   -5.8709    4.0377 N.3     1  UNL1       -0.1896
     10 S           4.9500   -7.4346    4.1064 S.O2    1  UNL1        0.0585
     11 O           3.7582   -7.2233    4.8712 O.2     1  UNL1       -0.1530
     12 O           4.9324   -7.9603    2.7417 O.2     1  UNL1       -0.1530
     13 C           6.0586   -8.4339    5.0590 C.ar    1  UNL1        0.1071
     14 C           6.0184   -9.8349    5.2327 C.ar    1  UNL1       -0.0342
     15 C           6.7971  -10.4744    6.2991 C.ar    1  UNL1       -0.0447
     16 C           7.6196   -9.6512    7.1233 C.ar    1  UNL1        0.0289
     17 C           7.4482   -8.3005    6.9270 C.ar    1  UNL1        0.0426
     18 C           6.8706   -7.6943    5.8614 C.ar    1  UNL1       -0.0134
     19 N           7.3240   -7.5568    8.1139 N.pl3   1  UNL1       -0.3421
     20 C           8.4345   -6.6885    8.3055 C.3     1  UNL1        0.0185
     21 C           9.2333   -7.5634    9.2662 C.3     1  UNL1        0.0139
     22 S           8.8599   -9.6808    8.7148 S.3     1  UNL1       -0.1218
     23 C           3.4835   -3.0232    1.7377 C.ar    1  UNL1       -0.0131
     24 C           2.5947   -2.1848    1.0458 C.ar    1  UNL1        0.1617
     25 O           1.5303   -2.9534    0.6475 O.3     1  UNL1       -0.4914
     26 C           0.4942   -2.2595    0.0279 C.3     1  UNL1        0.0790
     27 H           0.9449    1.4404   -0.5295 H       1  UNL1        0.0660
     28 H           0.6722    0.6298    1.0532 H       1  UNL1        0.0660
     29 H           0.3670   -0.1110   -0.5531 H       1  UNL1        0.0660
     30 H           4.4591    0.6431    1.2935 H       1  UNL1        0.0655
     31 H           6.0332   -0.9053    2.3783 H       1  UNL1        0.0621
     32 H           5.7300   -3.0997    4.0698 H       1  UNL1        0.0326
     33 H           6.5838   -3.6171    2.6113 H       1  UNL1        0.0326
     34 H           4.8436   -5.3763    2.2199 H       1  UNL1        0.0444
     35 H           3.9828   -4.8188    3.6991 H       1  UNL1        0.0444
     36 H           5.7828   -5.4803    4.9834 H       1  UNL1        0.1480
     37 H           5.3796  -10.4096    4.5531 H       1  UNL1        0.0637
     38 H           6.6154  -11.5470    6.4334 H       1  UNL1        0.0630
     39 H           6.8561   -6.6240    5.9330 H       1  UNL1        0.0656
     40 H           7.5175   -8.3467    8.7626 H       1  UNL1        0.1461
     41 H           7.9297   -5.8028    8.7053 H       1  UNL1        0.0469
     42 H           9.0145   -6.3641    7.4266 H       1  UNL1        0.0469
     43 H           8.7827   -7.3797   10.2652 H       1  UNL1        0.0395
     44 H          10.2912   -7.2817    9.3241 H       1  UNL1        0.0395
     45 H           3.1678   -4.0625    1.8174 H       1  UNL1        0.0658
     46 H          -0.3517   -2.8861   -0.2520 H       1  UNL1        0.0660
     47 H           0.8988   -1.8637   -0.9072 H       1  UNL1        0.0660
     48 H           0.0947   -1.5496    0.7586 H       1  UNL1        0.0660
@<TRIPOS>BOND
     1     1     2    1
     2     2     3    1
     3     3     4   ar
     4     4     5   ar
     5     5     6   ar
     6     6     7    1
     7     7     8    1
     8     8     9    1
     9     9    10    1
    10    10    11    2
    11    10    12    2
    12    10    13    1
    13    13    14   ar
    14    14    15   ar
    15    15    16   ar
    16    16    17   ar
    17    17    18   ar
    18    13    18   ar
    19    17    19    1
    20    19    20    1
    21    20    21    1
    22    21    22    1
    23    16    22    1
    24     6    23   ar
    25    23    24   ar
    26     3    24   ar
    27    24    25    1
    28    25    26    1
    29     1    27    1
    30     1    28    1
    31     1    29    1
    32     4    30    1
    33     5    31    1
    34     7    32    1
    35     7    33    1
    36     8    34    1
    37     8    35    1
    38     9    36    1
    39    14    37    1
    40    15    38    1
    41    18    39    1
    42    19    40    1
    43    20    41    1
    44    20    42    1
    45    21    43    1
    46    21    44    1
    47    23    45    1
    48    26    46    1
    49    26    47    1
    50    26    48    1
