@<TRIPOS>MOLECULE
*****
 63 64 0 0 0
SMALL
GASTEIGER

@<TRIPOS>ATOM
      1 C           1.0129   -0.0571   -0.1505 C.3     1  UNL1       -0.0651
      2 C           2.5376   -0.1677   -0.2414 C.3     1  UNL1       -0.0511
      3 C           3.1069    1.2256   -0.3040 C.3     1  UNL1       -0.0128
      4 C           4.6145    1.3627   -0.1718 C.3     1  UNL1       -0.0315
      5 N           5.0407    2.8303   -0.0768 N.4     1  UNL1        0.2407
      6 C           4.5306    3.5262    1.1942 C.3     1  UNL1       -0.0315
      7 C           3.0433    3.8027    1.1502 C.3     1  UNL1       -0.0128
      8 C           2.5135    4.5609    2.3375 C.3     1  UNL1       -0.0511
      9 C           0.9907    4.4547    2.2980 C.3     1  UNL1       -0.0651
     10 C           6.5953    2.9676   -0.1790 C.3     1  UNL1        0.0274
     11 C           7.0233    4.4092   -0.2929 C.ar    1  UNL1        0.1503
     12 C           6.2733    5.5656   -0.3415 C.ar    1  UNL1       -0.0146
     13 C           7.1574    6.6468   -0.2697 C.ar    1  UNL1       -0.0108
     14 C           8.4394    6.1439   -0.3691 C.ar    1  UNL1        0.1912
     15 C           9.7292    6.8520   -0.5005 C.2     1  UNL1        0.2954
     16 O          10.8089    6.3039   -0.6246 O.2     1  UNL1       -0.2653
     17 N           9.6050    8.2491   -0.4928 N.am    1  UNL1       -0.2286
     18 N          10.7169    9.1495   -0.6348 N.am    1  UNL1       -0.2453
     19 C          10.4579   10.5302   -0.6802 C.2     1  UNL1        0.1510
     20 S           8.8530   11.0787   -0.6074 S.2     1  UNL1       -0.0171
     21 N          11.5993   11.3405   -0.8240 N.am    1  UNL1       -0.2957
     22 C          11.6048   12.7751   -0.7652 C.ar    1  UNL1        0.0336
     23 C          12.3451   13.5645   -1.6522 C.ar    1  UNL1       -0.0404
     24 C          12.2975   14.9684   -1.5490 C.ar    1  UNL1       -0.0590
     25 C          11.4898   15.5859   -0.5856 C.ar    1  UNL1       -0.0482
     26 C          10.7861   14.8122    0.3385 C.ar    1  UNL1        0.0094
     27 S           9.8226   15.6371    1.6019 S.3     1  UNL1       -0.1285
     28 C           9.1408   14.2595    2.5803 C.3     1  UNL1       -0.0135
     29 C          10.8840   13.4223    0.2442 C.ar    1  UNL1       -0.0271
     30 O           8.3605    4.7478   -0.3427 O.2     1  UNL1       -0.4497
     31 H           0.5664   -1.0492   -0.0848 H       1  UNL1        0.0230
     32 H           0.6071    0.4697   -1.0204 H       1  UNL1        0.0230
     33 H           0.6976    0.5086    0.7397 H       1  UNL1        0.0230
     34 H           2.8620   -0.7547   -1.0966 H       1  UNL1        0.0264
     35 H           2.9003   -0.6377    0.6828 H       1  UNL1        0.0264
     36 H           2.6754    1.5345    0.6172 H       1  UNL1        0.0317
     37 H           2.6921    1.8422   -1.1118 H       1  UNL1        0.0317
     38 H           5.0998    0.9319   -1.0501 H       1  UNL1        0.0814
     39 H           4.9751    0.8803    0.7407 H       1  UNL1        0.0814
     40 H           4.6828    3.3093   -0.9151 H       1  UNL1        0.2038
     41 H           5.0173    4.4882    1.3140 H       1  UNL1        0.0814
     42 H           4.8422    2.9143    2.0419 H       1  UNL1        0.0814
     43 H           2.5086    2.9024    1.3521 H       1  UNL1        0.0317
     44 H           2.7040    4.1980    0.1841 H       1  UNL1        0.0317
     45 H           2.8628    5.5922    2.3298 H       1  UNL1        0.0264
     46 H           2.8781    4.0616    3.2441 H       1  UNL1        0.0264
     47 H           0.5961    4.8941    1.3758 H       1  UNL1        0.0230
     48 H           0.5543    4.9517    3.1622 H       1  UNL1        0.0230
     49 H           0.6630    3.4039    2.3149 H       1  UNL1        0.0230
     50 H           6.8996    2.3980   -1.0650 H       1  UNL1        0.0898
     51 H           6.9927    2.4742    0.7164 H       1  UNL1        0.0898
     52 H           5.1971    5.6492   -0.3420 H       1  UNL1        0.0654
     53 H           6.8604    7.6832   -0.2112 H       1  UNL1        0.0657
     54 H           8.7070    8.7195   -0.4182 H       1  UNL1        0.1732
     55 H          11.6333    8.7214   -0.7416 H       1  UNL1        0.1718
     56 H          12.4713   10.9158   -1.1196 H       1  UNL1        0.1539
     57 H          12.9079   13.1317   -2.4755 H       1  UNL1        0.0636
     58 H          12.8793   15.5959   -2.2241 H       1  UNL1        0.0618
     59 H          11.4223   16.6733   -0.5582 H       1  UNL1        0.0629
     60 H           8.5542   14.6665    3.4076 H       1  UNL1        0.0344
     61 H           9.9376   13.6429    3.0090 H       1  UNL1        0.0344
     62 H           8.4779   13.6363    1.9721 H       1  UNL1        0.0344
     63 H          10.4010   12.8048    0.9868 H       1  UNL1        0.0647
@<TRIPOS>UNITY_ATOM_ATTR
5 1
charge 1
@<TRIPOS>BOND
     1     1     2    1
     2     2     3    1
     3     3     4    1
     4     4     5    1
     5     5     6    1
     6     6     7    1
     7     7     8    1
     8     8     9    1
     9     5    10    1
    10    10    11    1
    11    11    12   ar
    12    12    13   ar
    13    13    14   ar
    14    14    15    1
    15    15    16    2
    16    15    17   am
    17    17    18    1
    18    18    19    1
    19    19    20    2
    20    19    21    1
    21    21    22    1
    22    22    23   ar
    23    23    24   ar
    24    24    25   ar
    25    25    26   ar
    26    26    27    1
    27    27    28    1
    28    26    29   ar
    29    22    29   ar
    30    14    30   ar
    31    11    30   ar
    32     1    31    1
    33     1    32    1
    34     1    33    1
    35     2    34    1
    36     2    35    1
    37     3    36    1
    38     3    37    1
    39     4    38    1
    40     4    39    1
    41     5    40    1
    42     6    41    1
    43     6    42    1
    44     7    43    1
    45     7    44    1
    46     8    45    1
    47     8    46    1
    48     9    47    1
    49     9    48    1
    50     9    49    1
    51    10    50    1
    52    10    51    1
    53    12    52    1
    54    13    53    1
    55    17    54    1
    56    18    55    1
    57    21    56    1
    58    23    57    1
    59    24    58    1
    60    25    59    1
    61    28    60    1
    62    28    61    1
    63    28    62    1
    64    29    63    1
