@<TRIPOS>MOLECULE
*****
 56 59 0 0 0
SMALL
GASTEIGER

@<TRIPOS>ATOM
      1 O           0.8353   -0.2752   -6.7202 O.2     1  UNL1       -0.2758
      2 C           0.2265   -0.2810   -5.6486 C.2     1  UNL1        0.2131
      3 C           0.7480   -0.8818   -4.3589 C.3     1  UNL1        0.0262
      4 C           2.1442   -1.4355   -4.5439 C.3     1  UNL1       -0.0187
      5 C           2.7184   -2.0467   -3.2545 C.3     1  UNL1        0.0700
      6 N           2.6291   -3.5176   -3.2630 N.3     1  UNL1       -0.2422
      7 N           3.8931   -4.1165   -3.7559 N.3     1  UNL1       -0.2341
      8 C           4.9020   -3.0801   -4.0746 C.3     1  UNL1        0.1456
      9 C           4.8663   -2.7024   -5.5830 C.2     1  UNL1        0.2457
     10 O           4.5363   -1.5803   -5.9703 O.2     1  UNL1       -0.2728
     11 N           5.1976   -3.7140   -6.4789 N.am    1  UNL1       -0.2835
     12 C           5.2050   -3.4890   -7.8775 C.ar    1  UNL1        0.0335
     13 C           4.8171   -4.5073   -8.7493 C.ar    1  UNL1       -0.0405
     14 C           4.8591   -4.2936  -10.1334 C.ar    1  UNL1       -0.0600
     15 C           5.2558   -3.0579  -10.6477 C.ar    1  UNL1       -0.0616
     16 C           5.6421   -2.0416   -9.7834 C.ar    1  UNL1       -0.0600
     17 C           5.6186   -2.2603   -8.4085 C.ar    1  UNL1       -0.0405
     18 S           4.4650   -1.6563   -3.0480 S.3     1  UNL1       -0.1116
     19 N          -1.0138    0.2765   -5.5952 N.am    1  UNL1       -0.3150
     20 C          -1.8337    0.3303   -4.4151 C.3     1  UNL1        0.0155
     21 C          -3.1561    0.9912   -4.6969 C.3     1  UNL1       -0.0092
     22 C          -4.0930    1.0567   -3.5396 C.2     1  UNL1        0.0092
     23 C          -5.2539    1.6994   -3.6491 C.ar    1  UNL1        0.0523
     24 C          -5.8168    2.4244   -4.7314 C.ar    1  UNL1       -0.0298
     25 C          -6.8895    3.1826   -4.4820 C.ar    1  UNL1        0.0419
     26 CL         -7.4149    4.3109   -5.6673 Cl      1  UNL1       -0.0835
     27 C          -7.5710    3.1199   -3.1945 C.ar    1  UNL1       -0.0372
     28 C          -7.1414    2.3761   -2.1504 C.ar    1  UNL1        0.0112
     29 C          -5.8869    1.6183   -2.3306 C.ar    1  UNL1        0.2086
     30 N          -5.2055    0.9001   -1.5211 N.2     1  UNL1       -0.2369
     31 C          -3.9081    0.5142   -2.1497 C.3     1  UNL1        0.1661
     32 H           0.0691   -1.6734   -4.0277 H       1  UNL1        0.0359
     33 H           0.7806   -0.0919   -3.5994 H       1  UNL1        0.0359
     34 H           2.7560   -0.5960   -4.8917 H       1  UNL1        0.0293
     35 H           2.1138   -2.1772   -5.3551 H       1  UNL1        0.0293
     36 H           2.1800   -1.6546   -2.3855 H       1  UNL1        0.0589
     37 H           1.8143   -3.8326   -3.7915 H       1  UNL1        0.1418
     38 H           3.7597   -4.7661   -4.5285 H       1  UNL1        0.1424
     39 H           5.9129   -3.4137   -3.8269 H       1  UNL1        0.0686
     40 H           5.3674   -4.6565   -6.1534 H       1  UNL1        0.1549
     41 H           4.4161   -5.4451   -8.3765 H       1  UNL1        0.0636
     42 H           4.5774   -5.0890  -10.8186 H       1  UNL1        0.0618
     43 H           5.2608   -2.8824  -11.7202 H       1  UNL1        0.0618
     44 H           5.9714   -1.0796  -10.1669 H       1  UNL1        0.0618
     45 H           5.9531   -1.4538   -7.7607 H       1  UNL1        0.0636
     46 H          -1.3150    0.6747   -6.4817 H       1  UNL1        0.1487
     47 H          -1.2884    0.8825   -3.6432 H       1  UNL1        0.0465
     48 H          -1.9932   -0.6949   -4.0681 H       1  UNL1        0.0465
     49 H          -3.6578    0.4566   -5.5151 H       1  UNL1        0.0327
     50 H          -2.9671    2.0107   -5.0641 H       1  UNL1        0.0327
     51 H          -5.3197    2.4195   -5.6961 H       1  UNL1        0.0640
     52 H          -8.4885    3.7003   -3.1187 H       1  UNL1        0.0634
     53 H          -7.6794    2.3688   -1.2101 H       1  UNL1        0.0684
     54 H          -5.5347    0.6559   -0.5870 H       1  UNL1        0.4459
     55 H          -3.7912   -0.5713   -2.1158 H       1  UNL1        0.1077
     56 H          -3.1028    1.0172   -1.6017 H       1  UNL1        0.1077
@<TRIPOS>UNITY_ATOM_ATTR
30 1
charge 1
@<TRIPOS>BOND
     1     1     2    2
     2     2     3    1
     3     3     4    1
     4     5     6    1
     5     6     7    1
     6     7     8    1
     7     8     9    1
     8     9    10    2
     9     9    11   am
    10    11    12    1
    11    12    13   ar
    12    13    14   ar
    13    14    15   ar
    14    15    16   ar
    15    16    17   ar
    16    12    17   ar
    17     8    18    1
    18     5    18    1
    19     2    19   am
    20    19    20    1
    21    20    21    1
    22    21    22    1
    23    22    23    2
    24    23    24   ar
    25    24    25   ar
    26    25    26    1
    27    25    27   ar
    28    27    28   ar
    29    28    29   ar
    30    23    29   ar
    31    29    30    2
    32    30    31    1
    33    22    31    1
    34     5     4    1
    35     3    32    1
    36     3    33    1
    37     4    34    1
    38     4    35    1
    39     5    36    1
    40     6    37    1
    41     7    38    1
    42     8    39    1
    43    11    40    1
    44    13    41    1
    45    14    42    1
    46    15    43    1
    47    16    44    1
    48    17    45    1
    49    19    46    1
    50    20    47    1
    51    20    48    1
    52    21    49    1
    53    21    50    1
    54    24    51    1
    55    27    52    1
    56    28    53    1
    57    30    54    1
    58    31    55    1
    59    31    56    1
