REMARK  8 active torsions:
REMARK  status: ('A' for Active; 'I' for Inactive)
REMARK    1  A    between atoms: N_2  and  C_3 
REMARK    2  A    between atoms: C_6  and  C_5 
REMARK    3  A    between atoms: C_6  and  N_17 
REMARK    4  A    between atoms: C_6  and  C_7 
REMARK    5  A    between atoms: C_7  and  C_8 
REMARK       I    between atoms: N_17  and  C_18 
REMARK    6  A    between atoms: C_18  and  C_20 
REMARK    7  A    between atoms: C_25  and  O_26 
REMARK    8  A    between atoms: C_29  and  C_30 
ROOT
ATOM      1  C   UNL d   1       3.008   2.269   4.508  0.00  0.00     0.141 C 
ENDROOT
BRANCH   1   2
ATOM      2  N   UNL d   1       1.895   1.313   4.857  0.00  0.00    -0.346 N 
ATOM      3  C   UNL d   1       1.215   1.277   6.061  0.00  0.00     0.255 C 
ATOM      4  O   UNL d   1       1.532   1.990   7.037  0.00  0.00    -0.268 OA
ATOM      5  H   UNL d   1       1.273   1.118   4.079  0.00  0.00     0.163 HD
BRANCH   3   6
ATOM      6  C   UNL d   1      -0.025   0.433   6.149  0.00  0.00     0.065 A 
ATOM      7  C   UNL d   1      -1.105   0.969   6.919  0.00  0.00     0.020 A 
ATOM      8  C   UNL d   1      -2.334   0.312   7.053  0.00  0.00     0.001 A 
ATOM      9  C   UNL d   1      -2.490  -0.933   6.472  0.00  0.00     0.003 A 
ATOM     10  C   UNL d   1      -1.428  -1.492   5.753  0.00  0.00     0.038 A 
ATOM     11  C   UNL d   1      -0.195  -0.831   5.559  0.00  0.00     0.084 A 
BRANCH  11  12
ATOM     12  O   UNL d   1       0.662  -1.633   4.846  0.00  0.00    -0.355 OA
ATOM     13  C   UNL d   1       1.923  -1.160   4.422  0.00  0.00     0.210 C 
ENDBRANCH  11  12
ENDBRANCH   3   6
ENDBRANCH   1   2
BRANCH   1  14
ATOM     14  C   UNL d   1       3.521   2.032   2.986  0.00  0.00     0.072 C 
BRANCH  14  15
ATOM     15  C   UNL d   1       3.850   3.271   2.145  0.00  0.00    -0.028 A 
ATOM     16  C   UNL d   1       3.801   4.579   2.557  0.00  0.00     0.096 A 
ATOM     17  N   UNL d   1       4.066   5.450   1.568  0.00  0.00    -0.365 N 
ATOM     18  C   UNL d   1       4.357   4.752   0.451  0.00  0.00     0.042 A 
ATOM     19  H   UNL d   1       4.038   6.454   1.664  0.00  0.00     0.165 HD
ATOM     20  C   UNL d   1       4.701   5.282  -0.782  0.00  0.00     0.030 A 
ATOM     21  C   UNL d   1       4.236   3.388   0.756  0.00  0.00    -0.002 A 
ATOM     22  C   UNL d   1       4.932   4.368  -1.792  0.00  0.00     0.002 A 
ATOM     23  C   UNL d   1       4.830   2.995  -1.553  0.00  0.00     0.001 A 
ATOM     24  C   UNL d   1       4.487   2.484  -0.288  0.00  0.00     0.014 A 
ENDBRANCH  14  15
ENDBRANCH   1  14
BRANCH   1  25
ATOM     25  C   UNL d   1       2.301   3.603   4.685  0.00  0.00     0.062 C 
ATOM     26  C   UNL d   1       1.109   3.589   4.006  0.00  0.00     0.073 C 
ATOM     27  C   UNL d   1       0.175   4.507   4.276  0.00  0.00     0.106 C 
ATOM     28  N   UNL d   1       0.571   5.666   4.794  0.00  0.00    -0.221 NA
ATOM     29  C   UNL d   1       1.887   5.772   5.199  0.00  0.00     0.132 C 
ATOM     30  N   UNL d   1       2.721   4.702   5.339  0.00  0.00    -0.235 NA
BRANCH  27  31
ATOM     31  N   UNL d   1      -1.130   4.126   3.857  0.00  0.00    -0.281 NA
ATOM     32  C   UNL d   1      -1.548   2.851   4.463  0.00  0.00     0.114 C 
ATOM     33  H   UNL d   1      -1.787   4.874   4.012  0.00  0.00     0.128 HD
ENDBRANCH  27  31
BRANCH  29  34
ATOM     34  C   UNL d   1       2.409   7.197   5.359  0.00  0.00     0.057 A 
ATOM     35  C   UNL d   1       3.853   7.545   5.634  0.00  0.00     0.013 A 
ATOM     36  C   UNL d   1       3.242   7.949   4.326  0.00  0.00     0.013 A 
ENDBRANCH  29  34
ENDBRANCH   1  25
TORSDOF 8
