@<TRIPOS>MOLECULE
*****
 38 38 0 0 0
SMALL
GASTEIGER

@<TRIPOS>ATOM
      1 C           1.0207    0.0218    0.0891 C.3     1  UNL1       -0.0639
      2 C           2.5506    0.0397    0.0801 C.3     1  UNL1       -0.0402
      3 C           3.1111    1.3157   -0.5674 C.3     1  UNL1        0.0128
      4 N           4.5777    1.3897   -0.6044 N.am    1  UNL1       -0.2982
      5 C           5.2316    2.4784   -1.1572 C.2     1  UNL1        0.3160
      6 O           4.6339    3.4399   -1.6448 O.2     1  UNL1       -0.2513
      7 N           6.6176    2.4144   -1.1236 N.am    1  UNL1       -0.2182
      8 N           7.4008    3.4954   -1.6715 N.am    1  UNL1       -0.2331
      9 C           8.7911    3.4326   -1.6341 C.2     1  UNL1        0.2324
     10 O           9.3753    2.4656   -1.1413 O.2     1  UNL1       -0.2742
     11 C           9.5507    4.6305   -2.2345 C.3     1  UNL1        0.0595
     12 C          11.0825    4.4443   -2.1443 C.3     1  UNL1        0.0980
     13 O          11.7781    5.5917   -2.6805 O.3     1  UNL1       -0.4886
     14 C          13.1551    5.4950   -2.6833 C.ar    1  UNL1        0.1555
     15 C          13.8720    6.6491   -2.3356 C.ar    1  UNL1       -0.0171
     16 C          15.2772    6.6496   -2.3288 C.ar    1  UNL1       -0.0581
     17 C          15.9823    5.5042   -2.6953 C.ar    1  UNL1       -0.0588
     18 C          15.2805    4.3655   -3.0807 C.ar    1  UNL1       -0.0228
     19 C          13.8828    4.3676   -3.0790 C.ar    1  UNL1        0.1648
     20 F          13.2693    3.2582   -3.5118 F       1  UNL1       -0.2017
     21 H           0.6455   -0.8970    0.5554 H       1  UNL1        0.0230
     22 H           0.6160    0.0656   -0.9276 H       1  UNL1        0.0230
     23 H           0.6160    0.8682    0.6541 H       1  UNL1        0.0230
     24 H           2.9081   -0.8461   -0.4578 H       1  UNL1        0.0278
     25 H           2.9081   -0.0492    1.1126 H       1  UNL1        0.0278
     26 H           2.7441    2.1939   -0.0232 H       1  UNL1        0.0462
     27 H           2.7445    1.3948   -1.5977 H       1  UNL1        0.0462
     28 H           5.1117    0.6251   -0.2180 H       1  UNL1        0.1503
     29 H           7.1422    1.6374   -0.7328 H       1  UNL1        0.1744
     30 H           6.8689    4.2690   -2.0679 H       1  UNL1        0.1728
     31 H           9.2652    5.5526   -1.7161 H       1  UNL1        0.0392
     32 H           9.2700    4.7535   -3.2878 H       1  UNL1        0.0392
     33 H          11.3365    3.5387   -2.6986 H       1  UNL1        0.0701
     34 H          11.3828    4.3197   -1.0970 H       1  UNL1        0.0701
     35 H          13.3442    7.5582   -2.0585 H       1  UNL1        0.0655
     36 H          15.8240    7.5456   -2.0399 H       1  UNL1        0.0619
     37 H          17.0703    5.5005   -2.6929 H       1  UNL1        0.0618
     38 H          15.8099    3.4711   -3.3956 H       1  UNL1        0.0647
@<TRIPOS>BOND
     1     1     2    1
     2     2     3    1
     3     3     4    1
     4     4     5   am
     5     5     6    2
     6     5     7   am
     7     7     8    1
     8     8     9   am
     9     9    10    2
    10     9    11    1
    11    11    12    1
    12    12    13    1
    13    13    14    1
    14    14    15   ar
    15    15    16   ar
    16    16    17   ar
    17    17    18   ar
    18    18    19   ar
    19    14    19   ar
    20    19    20    1
    21     1    21    1
    22     1    22    1
    23     1    23    1
    24     2    24    1
    25     2    25    1
    26     3    26    1
    27     3    27    1
    28     4    28    1
    29     7    29    1
    30     8    30    1
    31    11    31    1
    32    11    32    1
    33    12    33    1
    34    12    34    1
    35    15    35    1
    36    16    36    1
    37    17    37    1
    38    18    38    1
