@<TRIPOS>MOLECULE
*****
 46 48 0 0 0
SMALL
GASTEIGER

@<TRIPOS>ATOM
      1 N           2.2230   -0.0946   -0.2842 N.pl3   1  UNL1       -0.2945
      2 N           0.7934    0.0239   -0.0990 N.ar    1  UNL1       -0.2237
      3 C          -0.0139    1.1440   -0.0371 C.ar    1  UNL1        0.2087
      4 S           0.4194    2.8359   -0.0297 S.3     1  UNL1       -0.0840
      5 C           2.2170    2.9467   -0.0999 C.3     1  UNL1        0.0094
      6 C           2.7581    4.3834   -0.1170 C.3     1  UNL1        0.0337
      7 C           4.2800    4.3270   -0.1710 C.2     1  UNL1        0.2180
      8 O           4.8645    3.2361   -0.2078 O.2     1  UNL1       -0.2754
      9 N           4.9342    5.5500   -0.1303 N.am    1  UNL1       -0.2855
     10 C           6.3426    5.6657   -0.2520 C.ar    1  UNL1        0.0336
     11 C           7.0587    6.6271    0.4663 C.ar    1  UNL1       -0.0370
     12 C           8.4534    6.7424    0.2968 C.ar    1  UNL1       -0.0179
     13 C           9.1463    5.8885   -0.5716 C.ar    1  UNL1        0.1301
     14 O          10.5063    6.0353   -0.6108 O.3     1  UNL1       -0.4057
     15 C          11.2304    5.1044   -1.4099 C.3     1  UNL1        0.5752
     16 F          10.9865    3.8293   -1.0331 F       1  UNL1       -0.1328
     17 F          10.9226    5.2523   -2.7175 F       1  UNL1       -0.1328
     18 F          12.5551    5.3310   -1.2662 F       1  UNL1       -0.1328
     19 C           8.4192    4.9588   -1.3074 C.ar    1  UNL1       -0.0179
     20 C           7.0380    4.8447   -1.1403 C.ar    1  UNL1       -0.0370
     21 N          -1.2754    0.7563   -0.0054 N.ar    1  UNL1       -0.1206
     22 N          -1.3121   -0.6193   -0.0450 N.ar    1  UNL1       -0.1266
     23 C          -0.0685   -1.0620   -0.0596 C.ar    1  UNL1        0.1851
     24 C           0.3511   -2.4629    0.0033 C.ar    1  UNL1        0.0621
     25 C          -0.0927   -3.3843   -0.9550 C.ar    1  UNL1       -0.0475
     26 C           0.2302   -4.7401   -0.8346 C.ar    1  UNL1       -0.0609
     27 C           1.0421   -5.1774    0.2126 C.ar    1  UNL1       -0.0583
     28 C           1.5154   -4.2681    1.1579 C.ar    1  UNL1       -0.0195
     29 C           1.1684   -2.9221    1.0495 C.ar    1  UNL1        0.1276
     30 O           1.6509   -2.0192    1.9629 O.3     1  UNL1       -0.5061
     31 H           2.7392    0.6695    0.1275 H       1  UNL1        0.1627
     32 H           2.5602   -0.9004    0.2469 H       1  UNL1        0.1627
     33 H           2.5636    2.4312   -1.0023 H       1  UNL1        0.0385
     34 H           2.6206    2.4530    0.7906 H       1  UNL1        0.0385
     35 H           2.4537    4.9142    0.7911 H       1  UNL1        0.0367
     36 H           2.3901    4.9206   -0.9974 H       1  UNL1        0.0367
     37 H           4.4155    6.3828    0.1239 H       1  UNL1        0.1548
     38 H           6.5714    7.2479    1.2144 H       1  UNL1        0.0637
     39 H           9.0013    7.4984    0.8581 H       1  UNL1        0.0655
     40 H           8.8797    4.2937   -2.0308 H       1  UNL1        0.0655
     41 H           6.5115    4.1127   -1.7465 H       1  UNL1        0.0637
     42 H          -0.6899   -3.0519   -1.8023 H       1  UNL1        0.0626
     43 H          -0.1637   -5.4584   -1.5506 H       1  UNL1        0.0618
     44 H           1.3064   -6.2295    0.2900 H       1  UNL1        0.0619
     45 H           2.1384   -4.6255    1.9717 H       1  UNL1        0.0654
     46 H           2.1643   -2.4915    2.6393 H       1  UNL1        0.2922
@<TRIPOS>BOND
     1     1     2    1
     2     2     3   ar
     3     3     4    1
     4     4     5    1
     5     5     6    1
     6     6     7    1
     7     7     8    2
     8     7     9   am
     9     9    10    1
    10    10    11   ar
    11    11    12   ar
    12    12    13   ar
    13    13    14    1
    14    14    15    1
    15    15    16    1
    16    15    17    1
    17    15    18    1
    18    13    19   ar
    19    19    20   ar
    20    10    20   ar
    21     3    21   ar
    22    21    22   ar
    23    22    23   ar
    24     2    23   ar
    25    23    24    1
    26    24    25   ar
    27    25    26   ar
    28    26    27   ar
    29    27    28   ar
    30    28    29   ar
    31    24    29   ar
    32    29    30    1
    33     1    31    1
    34     1    32    1
    35     5    33    1
    36     5    34    1
    37     6    35    1
    38     6    36    1
    39     9    37    1
    40    11    38    1
    41    12    39    1
    42    19    40    1
    43    20    41    1
    44    25    42    1
    45    26    43    1
    46    27    44    1
    47    28    45    1
    48    30    46    1
