@<TRIPOS>MOLECULE
*****
 53 56 0 0 0
SMALL
GASTEIGER

@<TRIPOS>ATOM
      1 O           0.7045   -0.1164   -0.4031 O.2     0  UNK0       -0.2749
      2 C           1.9040   -0.0128   -0.0691 C.2     0  UNK0        0.2235
      3 C           2.2706    0.4805    1.3257 C.3     0  UNK0        0.0725
      4 S           0.9170    0.5696    2.6557 S.3     0  UNK0       -0.1207
      5 C           1.8549    1.0350    4.1549 C.3     0  UNK0        0.1171
      6 N           1.8491    0.1839    5.3756 N.3     0  UNK0       -0.2318
      7 N           2.0952    1.0162    6.5906 N.3     0  UNK0       -0.2259
      8 C           2.3831    2.4205    6.2718 C.3     0  UNK0        0.1351
      9 N           1.9537    3.5025    7.1178 N.pl3   0  UNK0       -0.3192
     10 C           2.0797    3.4517    8.4937 C.ar    0  UNK0        0.0316
     11 C           2.9604    2.5688    9.1404 C.ar    0  UNK0       -0.0406
     12 C           3.0968    2.5343   10.5245 C.ar    0  UNK0       -0.0573
     13 C           2.3940    3.4460   11.2937 C.ar    0  UNK0       -0.0263
     14 C           1.5644    4.3698   10.6672 C.ar    0  UNK0        0.1251
     15 F           0.9110    5.2702   11.4129 F       0  UNK0       -0.2054
     16 C           1.4031    4.3816    9.2837 C.ar    0  UNK0       -0.0055
     17 S           1.6549    2.7396    4.6544 S.3     0  UNK0       -0.0911
     18 N           2.8582   -0.3870   -0.9910 N.am    1  TRP1       -0.3064
     19 CA          4.3729   -0.4094   -1.0903 C.3     1  TRP1        0.0666
     20 CB          5.0936   -1.3891   -0.1499 C.3     1  TRP1       -0.0019
     21 CG          5.0462   -1.0154    1.2980 C.ar    1  TRP1       -0.0203
     22 CD1         4.5200   -1.8133    2.2987 C.ar    1  TRP1        0.0060
     23 NE1         4.4753   -1.0640    3.4472 N.ar    1  TRP1       -0.3604
     24 CE2         4.9628    0.2238    3.2169 C.ar    1  TRP1        0.0467
     25 CZ2         4.9343    1.3969    4.0107 C.ar    1  TRP1       -0.0378
     26 CH2         4.8714    2.6443    3.3556 C.ar    1  TRP1       -0.0598
     27 CZ3         5.1424    2.7396    2.0078 C.ar    1  TRP1       -0.0611
     28 CE3         5.4606    1.5841    1.2914 C.ar    1  TRP1       -0.0523
     29 CD2         5.2654    0.2962    1.8592 C.ar    1  TRP1        0.0029
     30 C           4.9290   -0.8068   -2.5127 C.2     1  TRP1        0.0623
     31 O           4.0347   -1.0465   -3.3764 O.co2   1  TRP1       -0.5479
     32 OXT         6.1878   -0.7975   -2.6432 O.co2   1  TRP1       -0.5479
     33 H           2.8402    1.4069    1.2341 H       0  UNK0        0.0472
     34 H           2.8198   -0.3484    1.7045 H       0  UNK0        0.0472
     35 H           2.8403    0.9120    3.8020 H       0  UNK0        0.0707
     36 H           2.6189   -0.4805    5.3173 H       0  UNK0        0.1427
     37 H           2.8379    0.6476    7.1891 H       0  UNK0        0.1435
     38 H           3.4716    2.5486    6.2114 H       0  UNK0        0.0801
     39 H           1.1726    4.0053    6.7143 H       0  UNK0        0.1484
     40 H           3.5778    1.8768    8.5830 H       0  UNK0        0.0636
     41 H           3.7604    1.8035   10.9772 H       0  UNK0        0.0619
     42 H           2.4997    3.4506   12.3714 H       0  UNK0        0.0646
     43 H           0.7453    5.1201    8.8353 H       0  UNK0        0.0665
     44 H           2.4740   -0.6416   -1.9022 H       1  TRP1        0.1494
     45 HA          4.6968    0.6194   -0.9834 H       1  TRP1        0.0563
     46 HB1         6.1646   -1.4781   -0.3710 H       1  TRP1        0.0335
     47 HB2         4.6713   -2.3941   -0.2946 H       1  TRP1        0.0335
     48 HD1         4.0020   -2.7685    2.2315 H       1  TRP1        0.0810
     49 HE1         3.8536   -1.3309    4.1946 H       1  TRP1        0.1653
     50 HZ2         4.6558    1.3464    5.0536 H       1  TRP1        0.0638
     51 HH2         4.5186    3.5390    3.8730 H       1  TRP1        0.0618
     52 HZ3         5.0460    3.6907    1.4850 H       1  TRP1        0.0618
     53 HE3         5.6387    1.7077    0.2314 H       1  TRP1        0.0624
@<TRIPOS>UNITY_ATOM_ATTR
32 1
charge -1
@<TRIPOS>BOND
     1     1     2    2
     2     2     3    1
     3     3     4    1
     4     4     5    1
     5     5     6    1
     6     6     7    1
     7     7     8    1
     8     9    10    1
     9    10    11   ar
    10    11    12   ar
    11    12    13   ar
    12    13    14   ar
    13    14    15    1
    14    14    16   ar
    15    10    16   ar
    16     8    17    1
    17     5    17    1
    18     2    18   am
    19    18    19    1
    20    19    20    1
    21    20    21    1
    22    21    22   ar
    23    22    23   ar
    24    23    24   ar
    25    24    25   ar
    26    25    26   ar
    27    26    27   ar
    28    27    28   ar
    29    28    29   ar
    30    21    29   ar
    31    24    29   ar
    32    19    30    1
    33    30    31   ar
    34    30    32   ar
    35     8     9    1
    36     3    33    1
    37     3    34    1
    38     5    35    1
    39     6    36    1
    40     7    37    1
    41     8    38    1
    42     9    39    1
    43    11    40    1
    44    12    41    1
    45    13    42    1
    46    16    43    1
    47    18    44    1
    48    19    45    1
    49    20    46    1
    50    20    47    1
    51    22    48    1
    52    23    49    1
    53    25    50    1
    54    26    51    1
    55    27    52    1
    56    28    53    1
