@<TRIPOS>MOLECULE
*****
 46 46 0 0 0
SMALL
GASTEIGER

@<TRIPOS>ATOM
      1 C           1.0492   -0.0654   -0.0385 C.3     1  UNL1       -0.0626
      2 C           2.5802   -0.0372   -0.0525 C.3     1  UNL1       -0.0453
      3 C           3.0613    0.1123   -1.4990 C.3     1  UNL1       -0.0626
      4 C           3.1151    1.0974    0.8609 C.3     1  UNL1       -0.0351
      5 C           4.6486    1.1306    0.9061 C.3     1  UNL1        0.0109
      6 N           5.2529    2.1760    1.7496 N.am    1  UNL1       -0.3254
      7 C           6.6322    2.3577    1.8639 C.2     1  UNL1        0.1468
      8 S           7.7683    1.3834    1.0907 S.2     1  UNL1       -0.0174
      9 N           7.0130    3.4202    2.6840 N.am    1  UNL1       -0.2458
     10 N           8.4085    3.7114    2.9071 N.am    1  UNL1       -0.2339
     11 C           8.7984    4.7608    3.7316 C.2     1  UNL1        0.2462
     12 O           7.9815    5.4895    4.3006 O.2     1  UNL1       -0.2726
     13 C          10.3313    4.9716    3.8963 C.3     1  UNL1        0.0898
     14 N          10.6516    6.0995    4.7915 N.am    1  UNL1       -0.3027
     15 C          11.9483    6.5056    5.0341 C.2     1  UNL1        0.2447
     16 O          12.9245    5.9559    4.5194 O.2     1  UNL1       -0.2702
     17 C          12.1855    7.6404    5.9836 C.ar    1  UNL1        0.0431
     18 C          13.2902    8.4876    5.7717 C.ar    1  UNL1       -0.0492
     19 C          13.7002    9.4011    6.7530 C.ar    1  UNL1       -0.0546
     20 C          12.9767    9.5226    7.9375 C.ar    1  UNL1        0.0156
     21 C          11.8590    8.7004    8.1414 C.ar    1  UNL1        0.2739
     22 N          11.1488    8.7630    9.4269 N.pl3   1  UNL1        0.0796
     23 O          11.5504    9.5750   10.2724 O.2     1  UNL1        0.0414
     24 O          10.1941    7.9907    9.5911 O.co2   1  UNL1       -0.5760
     25 C          11.4535    7.7634    7.1696 C.ar    1  UNL1        0.0277
     26 H           0.6670   -0.8792   -0.6662 H       1  UNL1        0.0232
     27 H           0.6361    0.8738   -0.4218 H       1  UNL1        0.0232
     28 H           0.6668   -0.2190    0.9753 H       1  UNL1        0.0232
     29 H           2.9384   -1.0020    0.3314 H       1  UNL1        0.0296
     30 H           2.7345    1.0696   -1.9185 H       1  UNL1        0.0232
     31 H           2.6674   -0.6903   -2.1314 H       1  UNL1        0.0232
     32 H           4.1509    0.0615   -1.5715 H       1  UNL1        0.0232
     33 H           2.7214    0.9559    1.8753 H       1  UNL1        0.0283
     34 H           2.7312    2.0612    0.5056 H       1  UNL1        0.0283
     35 H           5.0369    1.2920   -0.1034 H       1  UNL1        0.0462
     36 H           5.0121    0.1591    1.2610 H       1  UNL1        0.0462
     37 H           4.6223    2.8184    2.2113 H       1  UNL1        0.1478
     38 H           6.3523    4.0277    3.1638 H       1  UNL1        0.1718
     39 H           9.0650    3.0947    2.4288 H       1  UNL1        0.1728
     40 H          10.7883    5.1703    2.9204 H       1  UNL1        0.0558
     41 H          10.7888    4.0700    4.3196 H       1  UNL1        0.0558
     42 H           9.8625    6.6153    5.1667 H       1  UNL1        0.1495
     43 H          13.8605    8.4186    4.8457 H       1  UNL1        0.0625
     44 H          14.6065    9.9888    6.6101 H       1  UNL1        0.0620
     45 H          13.3052   10.2378    8.6915 H       1  UNL1        0.0685
     46 H          10.6208    7.0941    7.3651 H       1  UNL1        0.0693
@<TRIPOS>UNITY_ATOM_ATTR
22 1
charge 1
24 1
charge -1
@<TRIPOS>BOND
     1     1     2    1
     2     2     3    1
     3     2     4    1
     4     4     5    1
     5     5     6    1
     6     6     7    1
     7     7     8    2
     8     7     9    1
     9     9    10    1
    10    10    11   am
    11    11    12    2
    12    11    13    1
    13    13    14    1
    14    14    15   am
    15    15    16    2
    16    15    17    1
    17    17    18   ar
    18    18    19   ar
    19    19    20   ar
    20    20    21   ar
    21    21    22    1
    22    22    23    2
    23    22    24    1
    24    21    25   ar
    25    17    25   ar
    26     1    26    1
    27     1    27    1
    28     1    28    1
    29     2    29    1
    30     3    30    1
    31     3    31    1
    32     3    32    1
    33     4    33    1
    34     4    34    1
    35     5    35    1
    36     5    36    1
    37     6    37    1
    38     9    38    1
    39    10    39    1
    40    13    40    1
    41    13    41    1
    42    14    42    1
    43    18    43    1
    44    19    44    1
    45    20    45    1
    46    25    46    1
