REMARK  5 active torsions:
REMARK  status: ('A' for Active; 'I' for Inactive)
REMARK    1  A    between atoms: C_2  and  C_4 
REMARK    2  A    between atoms: C_2  and  N_6 
REMARK    3  A    between atoms: C_4  and  O_5 
REMARK       I    between atoms: N_6  and  C_7 
REMARK    4  A    between atoms: C_7  and  C_9 
REMARK    5  A    between atoms: C_11  and  C_12 
ROOT
ATOM      1  C   UNL d   1       4.849  -2.639  -1.391  0.00  0.00     0.264 A 
ATOM      2  N   UNL d   1       4.287  -3.144  -2.472  0.00  0.00    -0.195 NA
ATOM      3  C   UNL d   1       5.142  -4.186  -2.775  0.00  0.00     0.190 A 
ATOM      4  N   UNL d   1       6.139  -4.360  -1.892  0.00  0.00    -0.105 NA
ATOM      5  O   UNL d   1       5.962  -3.317  -0.988  0.00  0.00    -0.185 OA
ENDROOT
BRANCH   1   6
ATOM      6  C   UNL d   1       4.471  -1.445  -0.670  0.00  0.00     0.297 C 
ATOM      7  N   UNL d   1       3.107  -1.181  -0.572  0.00  0.00    -0.343 N 
ATOM      8  H   UNL d   1       2.467  -1.857  -0.978  0.00  0.00     0.163 HD
ATOM      9  O   UNL d   1       5.310  -0.695  -0.162  0.00  0.00    -0.264 OA
BRANCH   7  10
ATOM     10  C   UNL d   1       2.568   0.044   0.062  0.00  0.00     0.047 C 
ATOM     11  C   UNL d   1       1.023   0.021   0.045  0.00  0.00     0.040 C 
ATOM     12  C   UNL d   1       3.016   1.278  -0.746  0.00  0.00     0.040 C 
BRANCH  10  13
ATOM     13  C   UNL d   1       3.027   0.163   1.544  0.00  0.00     0.194 C 
BRANCH  13  14
ATOM     14  O   UNL d   1       2.510   1.328   2.183  0.00  0.00    -0.398 OA
ATOM     15  H   UNL d   1       2.919   2.099   1.751  0.00  0.00     0.209 HD
ENDBRANCH  13  14
ENDBRANCH  10  13
ENDBRANCH   7  10
ENDBRANCH   1   6
BRANCH   3  16
ATOM     16  C   UNL d   1       4.984  -5.004  -3.959  0.00  0.00     0.026 A 
ATOM     17  C   UNL d   1       4.979  -4.445  -5.246  0.00  0.00     0.016 A 
ATOM     18  C   UNL d   1       4.869  -5.262  -6.373  0.00  0.00     0.003 A 
ATOM     19  C   UNL d   1       4.740  -6.650  -6.250  0.00  0.00     0.030 A 
ATOM     20  C   UNL d   1       4.745  -7.193  -4.958  0.00  0.00     0.043 A 
ATOM     21  N   UNL d   1       4.658  -8.503  -4.539  0.00  0.00    -0.365 N 
ATOM     22  C   UNL d   1       4.869  -6.404  -3.811  0.00  0.00     0.006 A 
ATOM     23  C   UNL d   1       4.752  -8.573  -3.175  0.00  0.00     0.089 A 
ATOM     24  H   UNL d   1       4.568  -9.299  -5.155  0.00  0.00     0.165 HD
ATOM     25  C   UNL d   1       4.852  -7.290  -2.695  0.00  0.00     0.031 A 
ENDBRANCH   3  16
TORSDOF 5
