REMARK  4 active torsions:
REMARK  status: ('A' for Active; 'I' for Inactive)
REMARK       I    between atoms: C_2  and  N_3 
REMARK    1  A    between atoms: C_2  and  C_15 
REMARK    2  A    between atoms: N_3  and  C_4 
REMARK    3  A    between atoms: C_8  and  C_9 
REMARK    4  A    between atoms: C_18  and  O_19 
ROOT
ATOM      1  O   UNL d   1       1.001  -0.041  -0.024  0.00  0.00    -0.267 OA
ATOM      2  C   UNL d   1       2.228  -0.056   0.094  0.00  0.00     0.256 C 
ATOM      3  N   UNL d   1       2.917  -0.007   1.301  0.00  0.00    -0.323 N 
ATOM      4  H   UNL d   1       3.899   0.239   1.297  0.00  0.00     0.169 HD
ENDROOT
BRANCH   3   5
ATOM      5  C   UNL d   1       2.258  -0.038   2.556  0.00  0.00     0.035 A 
ATOM      6  C   UNL d   1       2.728   0.713   3.639  0.00  0.00     0.029 A 
ATOM      7  C   UNL d   1       2.111   0.604   4.896  0.00  0.00     0.003 A 
ATOM      8  C   UNL d   1       1.011  -0.238   5.073  0.00  0.00     0.014 A 
ATOM      9  C   UNL d   1       0.549  -1.002   4.002  0.00  0.00    -0.006 A 
ATOM     10  C   UNL d   1       1.167  -0.886   2.751  0.00  0.00     0.043 A 
BRANCH   9  11
ATOM     11  C   UNL d   1      -0.476  -2.011   4.184  0.00  0.00     0.061 A 
ATOM     12  C   UNL d   1      -0.414  -3.375   3.990  0.00  0.00     0.053 A 
ATOM     13  C   UNL d   1      -1.703  -3.844   4.284  0.00  0.00     0.141 A 
ATOM     14  N   UNL d   1      -2.532  -2.861   4.643  0.00  0.00    -0.187 NA
ATOM     15  N   UNL d   1      -1.766  -1.756   4.563  0.00  0.00    -0.278 N 
ATOM     16  H   UNL d   1      -2.190  -0.857   4.767  0.00  0.00     0.189 HD
ENDBRANCH   9  11
ENDBRANCH   3   5
BRANCH   2  17
ATOM     17  C   UNL d   1       3.035  -0.002  -1.153  0.00  0.00     0.034 A 
ATOM     18  C   UNL d   1       4.173  -0.794  -1.341  0.00  0.00     0.020 A 
ATOM     19  C   UNL d   1       4.932  -0.662  -2.515  0.00  0.00     0.039 A 
ATOM     20  C   UNL d   1       4.511   0.206  -3.526  0.00  0.00     0.087 A 
ATOM     21  C   UNL d   1       3.355   0.973  -3.352  0.00  0.00     0.068 A 
ATOM     22 CL   UNL d   1       2.838   2.099  -4.554  0.00  0.00    -0.081 Cl
ATOM     23  C   UNL d   1       2.614   0.861  -2.174  0.00  0.00     0.043 A 
BRANCH  20  24
ATOM     24  O   UNL d   1       5.221   0.303  -4.691  0.00  0.00    -0.359 OA
ATOM     25  H   UNL d   1       5.910  -0.379  -4.726  0.00  0.00     0.217 HD
ENDBRANCH  20  24
ENDBRANCH   2  17
TORSDOF 4
