@<TRIPOS>MOLECULE
*****
 67 69 0 0 0
SMALL
GASTEIGER

@<TRIPOS>ATOM
      1 C           0.9155    0.0389    0.0021 C.3     1  UNL1       -0.0653
      2 C           2.4386    0.0370    0.0152 C.3     1  UNL1       -0.0552
      3 C           2.9793   -0.1640    1.4339 C.3     1  UNL1       -0.0438
      4 C           4.5141   -0.1730    1.4748 C.3     1  UNL1        0.0011
      5 S           5.0566   -0.4424    3.2017 S.3     1  UNL1       -0.0860
      6 C           6.8198   -0.3967    3.0338 C.ar    1  UNL1        0.1896
      7 N           7.4846   -1.5571    2.9139 N.ar    1  UNL1       -0.2295
      8 C           8.8424   -1.5027    2.9214 C.ar    1  UNL1        0.0455
      9 C           9.5699   -0.3366    3.0454 C.ar    1  UNL1        0.0916
     10 C          11.0560   -0.3784    2.9738 C.2     1  UNL1        0.2487
     11 O          11.6505   -1.4557    2.8950 O.2     1  UNL1       -0.2700
     12 N          11.7491    0.8132    2.9908 N.am    1  UNL1       -0.3055
     13 C          13.2061    0.8923    2.9830 C.3     1  UNL1        0.0592
     14 C          13.7730    2.3334    3.2983 C.3     1  UNL1        0.0209
     15 C          13.1860    2.9126    4.5788 C.ar    1  UNL1        0.0054
     16 C          13.1446    4.2930    4.8130 C.ar    1  UNL1       -0.0495
     17 C          13.0456    4.7556    6.1277 C.ar    1  UNL1       -0.0159
     18 C          12.8166    3.8670    7.1923 C.ar    1  UNL1        0.1615
     19 O          12.6658    4.4810    8.4087 O.3     1  UNL1       -0.4915
     20 C          12.2110    3.6555    9.4792 C.3     1  UNL1        0.0790
     21 C          12.7669    2.4901    6.9425 C.ar    1  UNL1        0.1619
     22 O          12.6305    1.6087    7.9748 O.3     1  UNL1       -0.4914
     23 C          12.6079    0.2144    7.7007 C.3     1  UNL1        0.0790
     24 C          12.9392    2.0436    5.6442 C.ar    1  UNL1       -0.0078
     25 N          15.3536    2.3298    3.3818 N.4     1  UNL1        0.2418
     26 C          15.9093    3.5913    4.0773 C.3     1  UNL1       -0.0313
     27 C          17.4167    3.5599    4.2232 C.3     1  UNL1       -0.0123
     28 C          17.8099    2.3085    4.9866 C.3     1  UNL1       -0.0434
     29 C          17.4236    1.1143    4.1375 C.3     1  UNL1       -0.0123
     30 C          15.9137    1.0513    3.9948 C.3     1  UNL1       -0.0313
     31 C           8.7698    0.7798    3.1943 C.ar    1  UNL1        0.1456
     32 CL          9.3680    2.3841    3.4338 Cl      1  UNL1       -0.0611
     33 N           7.4202    0.7856    3.1881 N.ar    1  UNL1       -0.2095
     34 H           0.5409    0.1825   -1.0164 H       1  UNL1        0.0230
     35 H           0.5192    0.8466    0.6261 H       1  UNL1        0.0230
     36 H           0.5191   -0.9099    0.3784 H       1  UNL1        0.0230
     37 H           2.8017    0.9867   -0.3939 H       1  UNL1        0.0263
     38 H           2.8014   -0.7624   -0.6410 H       1  UNL1        0.0263
     39 H           2.5879   -1.1113    1.8272 H       1  UNL1        0.0273
     40 H           2.5906    0.6384    2.0747 H       1  UNL1        0.0273
     41 H           4.9019    0.7806    1.0997 H       1  UNL1        0.0381
     42 H           4.8992   -0.9778    0.8400 H       1  UNL1        0.0381
     43 H           9.3261   -2.4736    2.8172 H       1  UNL1        0.0839
     44 H          11.2268    1.6611    3.1965 H       1  UNL1        0.1492
     45 H          13.5654    0.5308    2.0154 H       1  UNL1        0.0522
     46 H          13.5480    0.1594    3.7242 H       1  UNL1        0.0522
     47 H          13.5179    2.9906    2.4561 H       1  UNL1        0.0920
     48 H          13.3215    5.0125    4.0133 H       1  UNL1        0.0623
     49 H          13.1927    5.8159    6.3364 H       1  UNL1        0.0655
     50 H          11.9818    4.2863   10.3390 H       1  UNL1        0.0660
     51 H          13.0076    2.9700    9.7886 H       1  UNL1        0.0660
     52 H          11.2883    3.1222    9.2152 H       1  UNL1        0.0660
     53 H          12.4605   -0.3081    8.6473 H       1  UNL1        0.0660
     54 H          13.5656   -0.1133    7.2801 H       1  UNL1        0.0660
     55 H          11.7743   -0.0409    7.0376 H       1  UNL1        0.0660
     56 H          12.9413    0.9780    5.4703 H       1  UNL1        0.0660
     57 H          15.6774    2.3706    2.4071 H       1  UNL1        0.2040
     58 H          15.5094    3.6207    5.0936 H       1  UNL1        0.0814
     59 H          15.5878    4.4664    3.5030 H       1  UNL1        0.0814
     60 H          17.7515    4.4440    4.7783 H       1  UNL1        0.0317
     61 H          17.8940    3.5886    3.2386 H       1  UNL1        0.0317
     62 H          17.2793    2.2674    5.9497 H       1  UNL1        0.0269
     63 H          18.8794    2.3062    5.2070 H       1  UNL1        0.0269
     64 H          17.7906    0.1940    4.6024 H       1  UNL1        0.0317
     65 H          17.8901    1.1870    3.1474 H       1  UNL1        0.0317
     66 H          15.4401    0.9154    4.9718 H       1  UNL1        0.0814
     67 H          15.6574    0.2200    3.3321 H       1  UNL1        0.0814
@<TRIPOS>UNITY_ATOM_ATTR
25 1
charge 1
@<TRIPOS>BOND
     1     1     2    1
     2     2     3    1
     3     3     4    1
     4     4     5    1
     5     5     6    1
     6     6     7   ar
     7     7     8   ar
     8     8     9   ar
     9     9    10    1
    10    10    11    2
    11    10    12   am
    12    12    13    1
    13    13    14    1
    14    14    15    1
    15    15    16   ar
    16    16    17   ar
    17    17    18   ar
    18    18    19    1
    19    19    20    1
    20    18    21   ar
    21    21    22    1
    22    22    23    1
    23    21    24   ar
    24    15    24   ar
    25    14    25    1
    26    25    26    1
    27    26    27    1
    28    27    28    1
    29    28    29    1
    30    29    30    1
    31    25    30    1
    32     9    31   ar
    33    31    32    1
    34    31    33   ar
    35     6    33   ar
    36     1    34    1
    37     1    35    1
    38     1    36    1
    39     2    37    1
    40     2    38    1
    41     3    39    1
    42     3    40    1
    43     4    41    1
    44     4    42    1
    45     8    43    1
    46    12    44    1
    47    13    45    1
    48    13    46    1
    49    14    47    1
    50    16    48    1
    51    17    49    1
    52    20    50    1
    53    20    51    1
    54    20    52    1
    55    23    53    1
    56    23    54    1
    57    23    55    1
    58    24    56    1
    59    25    57    1
    60    26    58    1
    61    26    59    1
    62    27    60    1
    63    27    61    1
    64    28    62    1
    65    28    63    1
    66    29    64    1
    67    29    65    1
    68    30    66    1
    69    30    67    1
