REMARK  7 active torsions:
REMARK  status: ('A' for Active; 'I' for Inactive)
REMARK    1  A    between atoms: C_2  and  C_3 
REMARK    2  A    between atoms: C_8  and  N_9 
REMARK       I    between atoms: N_9  and  C_10 
REMARK    3  A    between atoms: C_10  and  C_12 
REMARK    4  A    between atoms: C_12  and  S_13 
REMARK    5  A    between atoms: C_14  and  S_13 
REMARK    6  A    between atoms: N_24  and  C_25 
REMARK    7  A    between atoms: C_29  and  O_30 
ROOT
ATOM      1  C   UNL d   1       1.743   3.289  -4.872  0.00  0.00     0.281 C 
ATOM      2  N   UNL d   1       0.905   4.389  -4.348  0.00  0.00    -0.232 NA
ATOM      3  C   UNL d   1       1.371   5.562  -4.552  0.00  0.00     0.185 A 
ATOM      4  N   UNL d   1       0.703   6.718  -4.216  0.00  0.00    -0.129 NA
ATOM      5  N   UNL d   1       1.443   7.699  -4.517  0.00  0.00    -0.152 NA
ATOM      6  C   UNL d   1       2.611   7.230  -5.053  0.00  0.00     0.071 A 
ATOM      7  C   UNL d   1       3.719   8.128  -5.454  0.00  0.00     0.073 C 
ATOM      8  C   UNL d   1       2.640   5.908  -5.135  0.00  0.00     0.085 A 
ATOM      9  C   UNL d   1       3.562   4.877  -5.559  0.00  0.00     0.141 C 
ATOM     10  N   UNL d   1       4.734   5.173  -6.038  0.00  0.00    -0.283 NA
ATOM     11  N   UNL d   1       3.109   3.575  -5.425  0.00  0.00    -0.298 N 
ATOM     12  H   UNL d   1       4.931   6.167  -6.091  0.00  0.00     0.188 HD
ENDROOT
BRANCH   1  13
ATOM     13  S   UNL d   1       0.789   2.190  -5.937  0.00  0.00    -0.111 SA
BRANCH  13  14
ATOM     14  C   UNL d   1      -0.939   2.869  -6.032  0.00  0.00     0.181 C 
BRANCH  14  15
ATOM     15  C   UNL d   1      -1.426   2.402  -7.397  0.00  0.00     0.231 C 
ATOM     16  N   UNL d   1      -2.788   2.297  -7.677  0.00  0.00    -0.326 N 
ATOM     17  H   UNL d   1      -3.426   2.669  -6.986  0.00  0.00     0.169 HD
ATOM     18  O   UNL d   1      -0.522   2.198  -8.179  0.00  0.00    -0.272 OA
BRANCH  16  19
ATOM     19  C   UNL d   1      -3.414   1.742  -8.869  0.00  0.00     0.041 C 
ATOM     20  C   UNL d   1      -4.819   1.794  -8.963  0.00  0.00     0.030 C 
ATOM     21  C   UNL d   1      -5.505   1.255 -10.076  0.00  0.00     0.002 C 
ATOM     22  C   UNL d   1      -4.817   0.626 -11.105  0.00  0.00     0.001 C 
ATOM     23  C   UNL d   1      -3.446   0.519 -11.018  0.00  0.00     0.009 C 
ATOM     24  C   UNL d   1      -2.747   1.131  -9.963  0.00  0.00    -0.032 C 
BRANCH  24  25
ATOM     25  C   UNL d   1      -1.270   1.183 -10.194  0.00  0.00     0.036 C 
ATOM     26  C   UNL d   1      -0.911   2.651 -10.527  0.00  0.00     0.010 C 
ENDBRANCH  24  25
ENDBRANCH  16  19
ENDBRANCH  14  15
ENDBRANCH  13  14
ENDBRANCH   1  13
BRANCH  11  27
ATOM     27  C   UNL d   1       3.977   2.526  -5.813  0.00  0.00     0.041 A 
ATOM     28  C   UNL d   1       5.255   2.410  -5.252  0.00  0.00     0.030 A 
ATOM     29  C   UNL d   1       6.205   1.548  -5.805  0.00  0.00     0.005 A 
ATOM     30  C   UNL d   1       5.861   0.704  -6.865  0.00  0.00     0.037 A 
ATOM     31  C   UNL d   1       4.593   0.781  -7.433  0.00  0.00     0.070 A 
ATOM     32  C   UNL d   1       3.695   1.715  -6.923  0.00  0.00     0.066 A 
BRANCH  31  33
ATOM     33  O   UNL d   1       4.329  -0.034  -8.504  0.00  0.00    -0.356 OA
ATOM     34  C   UNL d   1       3.030   0.104  -9.092  0.00  0.00     0.210 C 
ENDBRANCH  31  33
ENDBRANCH  11  27
TORSDOF 7
