REMARK  14 active torsions:
REMARK  status: ('A' for Active; 'I' for Inactive)
REMARK    1  A    between atoms: C_2  and  C_3 
REMARK    2  A    between atoms: C_3  and  C_4 
REMARK    3  A    between atoms: C_4  and  N_5 
REMARK    4  A    between atoms: N_5  and  C_6 
REMARK    5  A    between atoms: N_5  and  C_10 
REMARK    6  A    between atoms: C_6  and  C_7 
REMARK    7  A    between atoms: C_7  and  C_8 
REMARK    8  A    between atoms: C_10  and  C_11 
REMARK    9  A    between atoms: C_14  and  C_15 
REMARK       I    between atoms: C_15  and  N_17 
REMARK   10  A    between atoms: N_17  and  N_18 
REMARK   11  A    between atoms: N_18  and  C_19 
REMARK   12  A    between atoms: C_19  and  N_21 
REMARK   13  A    between atoms: N_21  and  C_22 
REMARK   14  A    between atoms: C_28  and  O_29 
ROOT
ATOM      1  C   UNL d   1       8.772   5.607   4.769  0.00  0.00     0.293 C 
ATOM      2  O   UNL d   1       9.401   4.855   5.494  0.00  0.00    -0.264 OA
ATOM      3  N   UNL d   1       8.742   6.993   4.997  0.00  0.00    -0.262 N 
ATOM      4  H   UNL d   1       8.225   7.632   4.401  0.00  0.00     0.190 HD
ENDROOT
BRANCH   1   5
ATOM      5  C   UNL d   1       7.976   5.173   3.594  0.00  0.00     0.144 A 
ATOM      6  C   UNL d   1       7.211   5.905   2.699  0.00  0.00     0.045 A 
ATOM      7  C   UNL d   1       6.680   5.022   1.741  0.00  0.00     0.037 A 
ATOM      8  C   UNL d   1       7.093   3.759   2.094  0.00  0.00     0.079 A 
ATOM      9  O   UNL d   1       7.875   3.825   3.228  0.00  0.00    -0.308 OA
BRANCH   8  10
ATOM     10  C   UNL d   1       6.660   2.445   1.516  0.00  0.00     0.299 C 
BRANCH  10  11
ATOM     11  N   UNL d   1       5.106   2.344   1.498  0.00  0.00    -0.065 N 
ATOM     12  H   UNL d   1       4.770   3.178   1.001  0.00  0.00     0.280 HD
BRANCH  11  13
ATOM     13  C   UNL d   1       4.660   1.126   0.690  0.00  0.00     0.235 C 
BRANCH  13  14
ATOM     14  C   UNL d   1       3.154   1.084   0.490  0.00  0.00     0.027 C 
BRANCH  14  15
ATOM     15  C   UNL d   1       2.593  -0.141  -0.187  0.00  0.00    -0.003 C 
ATOM     16  C   UNL d   1       1.068  -0.097  -0.058  0.00  0.00     0.005 C 
ENDBRANCH  14  15
ENDBRANCH  13  14
ENDBRANCH  11  13
BRANCH  11  17
ATOM     17  C   UNL d   1       4.617   2.421   2.945  0.00  0.00     0.235 C 
BRANCH  17  18
ATOM     18  C   UNL d   1       3.120   2.579   3.056  0.00  0.00     0.027 C 
BRANCH  18  19
ATOM     19  C   UNL d   1       2.579   2.587   4.461  0.00  0.00    -0.003 C 
ATOM     20  C   UNL d   1       1.056   2.500   4.365  0.00  0.00     0.005 C 
ENDBRANCH  18  19
ENDBRANCH  17  18
ENDBRANCH  11  17
ENDBRANCH  10  11
ENDBRANCH   8  10
ENDBRANCH   1   5
BRANCH   3  21
ATOM     21  N   UNL d   1       9.395   7.643   6.103  0.00  0.00    -0.273 N 
ATOM     22  H   UNL d   1       9.979   7.053   6.692  0.00  0.00     0.189 HD
BRANCH  21  23
ATOM     23  C   UNL d   1       9.301   9.048   6.209  0.00  0.00     0.191 C 
ATOM     24  S   UNL d   1       8.494   9.937   5.021  0.00  0.00    -0.039 SA
BRANCH  23  25
ATOM     25  N   UNL d   1       9.944   9.574   7.338  0.00  0.00    -0.330 N 
ATOM     26  H   UNL d   1      10.507   8.931   7.872  0.00  0.00     0.168 HD
BRANCH  25  27
ATOM     27  C   UNL d   1      10.114  10.970   7.647  0.00  0.00     0.068 A 
ATOM     28  C   UNL d   1       8.959  11.769   7.674  0.00  0.00     0.034 A 
ATOM     29  C   UNL d   1       9.007  13.148   7.891  0.00  0.00     0.026 A 
ATOM     30  C   UNL d   1      10.225  13.761   8.130  0.00  0.00     0.036 A 
ATOM     31 CL   UNL d   1      10.278  15.466   8.364  0.00  0.00    -0.084 Cl
ATOM     32  C   UNL d   1      11.387  12.992   8.184  0.00  0.00     0.062 A 
ATOM     33  C   UNL d   1      11.348  11.591   7.960  0.00  0.00     0.096 A 
BRANCH  33  34
ATOM     34  O   UNL d   1      12.604  11.036   8.019  0.00  0.00    -0.354 OA
ATOM     35  C   UNL d   1      12.737   9.646   7.799  0.00  0.00     0.210 C 
ENDBRANCH  33  34
ENDBRANCH  25  27
ENDBRANCH  23  25
ENDBRANCH  21  23
ENDBRANCH   3  21
TORSDOF 14
