@<TRIPOS>MOLECULE
*****
 51 55 0 0 0
SMALL
GASTEIGER

@<TRIPOS>ATOM
      1 C           1.0806   -0.0007   -0.0717 C.3     1  UNL1       -0.0397
      2 C           2.5814   -0.0694   -0.0713 C.ar    1  UNL1       -0.0495
      3 C           3.3607    1.1711   -0.0720 C.ar    1  UNL1       -0.0526
      4 C           4.7094    1.2062   -0.0715 C.ar    1  UNL1        0.0101
      5 C           5.4202   -0.0846   -0.0706 C.ar    1  UNL1        0.2086
      6 C           4.6176   -1.3201   -0.0729 C.ar    1  UNL1        0.0512
      7 C           3.1947   -1.2675   -0.0722 C.ar    1  UNL1       -0.0452
      8 C           5.5031   -2.3265   -0.0790 C.2     1  UNL1        0.0112
      9 C           5.1690   -3.7950   -0.0962 C.3     1  UNL1        0.0115
     10 C           6.3754   -4.7575   -0.1439 C.3     1  UNL1        0.0847
     11 N           5.9804   -6.1486   -0.3695 N.pl3   1  UNL1       -0.2176
     12 C           4.9891   -6.7773    0.4923 C.3     1  UNL1        0.1429
     13 C           5.2914   -8.2733    0.1443 C.2     1  UNL1        0.2085
     14 O           5.0228   -9.1729    0.8882 O.2     1  UNL1       -0.2880
     15 C           6.0523   -8.3668   -1.2278 C.2     1  UNL1        0.1130
     16 C           6.6159   -9.6550   -2.0013 C.3     1  UNL1        0.1081
     17 N           6.5741  -10.0430   -3.6132 N.pl3   1  UNL1       -0.3270
     18 C           7.7063  -11.1488   -3.7943 C.ar    1  UNL1        0.0418
     19 C           7.6329  -12.3033   -4.6333 C.ar    1  UNL1       -0.0397
     20 C           7.7611  -13.5712   -4.0249 C.ar    1  UNL1       -0.0600
     21 C           7.8909  -13.6285   -2.6416 C.ar    1  UNL1       -0.0606
     22 C           8.2366  -12.4740   -1.9428 C.ar    1  UNL1       -0.0465
     23 C           8.3717  -11.2638   -2.5907 C.ar    1  UNL1        0.0308
     24 S           8.4135   -9.7506   -1.6910 S.3     1  UNL1       -0.0959
     25 C           6.4778   -7.0753   -1.3029 C.2     1  UNL1        0.2651
     26 N           7.3683   -6.7494   -2.2649 N.pl3   1  UNL1       -0.2511
     27 C           6.9059   -1.7897   -0.0754 C.3     1  UNL1        0.1662
     28 N           6.6756   -0.3307   -0.0707 N.2     1  UNL1       -0.2369
     29 H           0.7033    1.0258   -0.0721 H       1  UNL1        0.0278
     30 H           0.6800   -0.5035    0.8160 H       1  UNL1        0.0278
     31 H           0.6806   -0.5040   -0.9595 H       1  UNL1        0.0278
     32 H           2.7989    2.1055   -0.0739 H       1  UNL1        0.0622
     33 H           5.2475    2.1477   -0.0733 H       1  UNL1        0.0683
     34 H           2.6274   -2.1931   -0.0728 H       1  UNL1        0.0628
     35 H           4.5350   -3.9937   -0.9687 H       1  UNL1        0.0349
     36 H           4.5650   -4.0093    0.7959 H       1  UNL1        0.0349
     37 H           6.9591   -4.6412    0.7833 H       1  UNL1        0.0729
     38 H           7.0326   -4.4359   -0.9562 H       1  UNL1        0.0729
     39 H           3.9786   -6.5026    0.1648 H       1  UNL1        0.0811
     40 H           5.0909   -6.4991    1.5557 H       1  UNL1        0.0811
     41 H           6.1488  -10.5269   -1.5271 H       1  UNL1        0.0672
     42 H           6.9342   -9.3063   -4.2235 H       1  UNL1        0.1475
     43 H           7.7662  -12.2954   -5.7227 H       1  UNL1        0.0636
     44 H           7.7388  -14.5097   -4.5856 H       1  UNL1        0.0618
     45 H           7.7432  -14.5543   -2.0947 H       1  UNL1        0.0618
     46 H           8.2474  -12.4675   -0.8603 H       1  UNL1        0.0629
     47 H           7.9146   -7.5370   -2.6121 H       1  UNL1        0.2882
     48 H           7.8377   -5.8631   -2.2312 H       1  UNL1        0.2882
     49 H           7.4550   -2.0508   -0.9832 H       1  UNL1        0.1077
     50 H           7.4544   -2.0599    0.8304 H       1  UNL1        0.1077
     51 H           7.3907    0.3932   -0.0715 H       1  UNL1        0.4459
@<TRIPOS>UNITY_ATOM_ATTR
28 1
charge 1
@<TRIPOS>BOND
     1     1     2    1
     2     2     3   ar
     3     3     4   ar
     4     4     5   ar
     5     5     6   ar
     6     6     7   ar
     7     2     7   ar
     8     6     8    2
     9     8     9    1
    10     9    10    1
    11    10    11    1
    12    11    12    1
    13    12    13    1
    14    13    14    2
    15    13    15    1
    16    15    16    1
    17    16    17    1
    18    17    18    1
    19    18    19   ar
    20    19    20   ar
    21    20    21   ar
    22    21    22   ar
    23    22    23   ar
    24    18    23   ar
    25    23    24    1
    26    16    24    1
    27    15    25    2
    28    11    25    1
    29    25    26    1
    30     8    27    1
    31    27    28    1
    32     5    28    2
    33     1    29    1
    34     1    30    1
    35     1    31    1
    36     3    32    1
    37     4    33    1
    38     7    34    1
    39     9    35    1
    40     9    36    1
    41    10    37    1
    42    10    38    1
    43    12    39    1
    44    12    40    1
    45    16    41    1
    46    17    42    1
    47    19    43    1
    48    20    44    1
    49    21    45    1
    50    22    46    1
    51    26    47    1
    52    26    48    1
    53    27    49    1
    54    27    50    1
    55    28    51    1
