REMARK  14 active torsions:
REMARK  status: ('A' for Active; 'I' for Inactive)
REMARK    1  A    between atoms: C_2  and  C_3 
REMARK       I    between atoms: C_2  and  N_21 
REMARK    2  A    between atoms: C_3  and  N_4 
REMARK    3  A    between atoms: N_4  and  C_5 
REMARK    4  A    between atoms: C_8  and  O_9 
REMARK    5  A    between atoms: O_9  and  C_10 
REMARK    6  A    between atoms: C_10  and  C_11 
REMARK    7  A    between atoms: C_11  and  O_12 
REMARK    8  A    between atoms: O_12  and  C_13 
REMARK    9  A    between atoms: N_21  and  C_22 
REMARK   10  A    between atoms: C_26  and  O_27 
REMARK   11  A    between atoms: O_27  and  C_28 
REMARK   12  A    between atoms: C_28  and  C_29 
REMARK   13  A    between atoms: C_29  and  O_30 
REMARK   14  A    between atoms: O_30  and  C_31 
ROOT
ATOM      1  O   UNL d   1       0.933  -0.075   0.062  0.00  0.00    -0.271 OA
ATOM      2  C   UNL d   1       2.168   0.001  -0.024  0.00  0.00     0.239 C 
ATOM      3  N   UNL d   1       2.949  -0.958   0.598  0.00  0.00    -0.326 N 
ATOM      4  H   UNL d   1       2.428  -1.733   0.992  0.00  0.00     0.169 HD
ENDROOT
BRANCH   2   5
ATOM      5  C   UNL d   1       2.867   1.051  -0.900  0.00  0.00     0.223 C 
BRANCH   5   6
ATOM      6  N   UNL d   1       1.964   1.982  -1.562  0.00  0.00    -0.381 N 
ATOM      7  H   UNL d   1       0.966   1.883  -1.408  0.00  0.00     0.160 HD
BRANCH   6   8
ATOM      8  C   UNL d   1       2.483   2.929  -2.426  0.00  0.00     0.028 A 
ATOM      9  C   UNL d   1       2.035   4.252  -2.421  0.00  0.00     0.032 A 
ATOM     10  C   UNL d   1       2.584   5.203  -3.304  0.00  0.00     0.039 A 
ATOM     11  C   UNL d   1       3.638   4.861  -4.158  0.00  0.00     0.069 A 
ATOM     12  C   UNL d   1       4.091   3.548  -4.157  0.00  0.00     0.039 A 
ATOM     13  C   UNL d   1       3.527   2.607  -3.297  0.00  0.00     0.032 A 
BRANCH  11  14
ATOM     14  O   UNL d   1       4.165   5.864  -4.931  0.00  0.00    -0.349 OA
BRANCH  14  15
ATOM     15  C   UNL d   1       5.312   5.512  -5.722  0.00  0.00     0.202 C 
BRANCH  15  16
ATOM     16  C   UNL d   1       5.838   6.746  -6.453  0.00  0.00     0.202 C 
BRANCH  16  17
ATOM     17  O   UNL d   1       6.901   6.367  -7.342  0.00  0.00    -0.349 OA
BRANCH  17  18
ATOM     18  C   UNL d   1       7.534   7.419  -7.956  0.00  0.00     0.068 A 
ATOM     19  C   UNL d   1       7.931   7.244  -9.285  0.00  0.00     0.037 A 
ATOM     20  C   UNL d   1       8.645   8.251  -9.946  0.00  0.00     0.003 A 
ATOM     21  C   UNL d   1       8.922   9.453  -9.296  0.00  0.00     0.000 A 
ATOM     22  C   UNL d   1       8.541   9.623  -7.969  0.00  0.00     0.003 A 
ATOM     23  C   UNL d   1       7.870   8.601  -7.296  0.00  0.00     0.037 A 
ENDBRANCH  17  18
ENDBRANCH  16  17
ENDBRANCH  15  16
ENDBRANCH  14  15
ENDBRANCH  11  14
ENDBRANCH   6   8
ENDBRANCH   5   6
ENDBRANCH   2   5
BRANCH   3  24
ATOM     24  C   UNL d   1       4.351  -0.980   0.721  0.00  0.00     0.037 A 
ATOM     25  C   UNL d   1       5.053  -2.181   0.692  0.00  0.00     0.029 A 
ATOM     26  C   UNL d   1       6.446  -2.170   0.850  0.00  0.00     0.005 A 
ATOM     27  C   UNL d   1       7.139  -0.959   0.992  0.00  0.00     0.037 A 
ATOM     28  C   UNL d   1       6.437   0.241   1.057  0.00  0.00     0.070 A 
ATOM     29  C   UNL d   1       5.052   0.199   0.963  0.00  0.00     0.066 A 
BRANCH  28  30
ATOM     30  O   UNL d   1       7.153   1.393   1.251  0.00  0.00    -0.349 OA
BRANCH  30  31
ATOM     31  C   UNL d   1       6.379   2.602   1.353  0.00  0.00     0.202 C 
BRANCH  31  32
ATOM     32  C   UNL d   1       7.298   3.783   1.631  0.00  0.00     0.202 C 
BRANCH  32  33
ATOM     33  O   UNL d   1       6.500   4.958   1.809  0.00  0.00    -0.349 OA
BRANCH  33  34
ATOM     34  C   UNL d   1       7.195   6.133   1.922  0.00  0.00     0.068 A 
ATOM     35  C   UNL d   1       6.633   7.106   2.754  0.00  0.00     0.037 A 
ATOM     36  C   UNL d   1       7.202   8.380   2.836  0.00  0.00     0.003 A 
ATOM     37  C   UNL d   1       8.367   8.670   2.129  0.00  0.00     0.000 A 
ATOM     38  C   UNL d   1       8.936   7.700   1.308  0.00  0.00     0.003 A 
ATOM     39  C   UNL d   1       8.344   6.440   1.193  0.00  0.00     0.037 A 
ENDBRANCH  33  34
ENDBRANCH  32  33
ENDBRANCH  31  32
ENDBRANCH  30  31
ENDBRANCH  28  30
ENDBRANCH   3  24
TORSDOF 14
