REMARK  6 active torsions:
REMARK  status: ('A' for Active; 'I' for Inactive)
REMARK    1  A    between atoms: O_2  and  C_3 
REMARK    2  A    between atoms: C_5  and  O_6 
REMARK    3  A    between atoms: C_9  and  C_10 
REMARK       I    between atoms: C_10  and  N_12 
REMARK       I    between atoms: C_13  and  N_14 
REMARK       I    between atoms: C_13  and  N_22 
REMARK    4  A    between atoms: N_14  and  C_15 
REMARK    5  A    between atoms: C_15  and  C_16 
REMARK    6  A    between atoms: N_22  and  C_23 
ROOT
ATOM      1  C   UNL d   1       2.958   4.625   0.502  0.00  0.00     0.294 C 
ATOM      2  O   UNL d   1       3.804   5.428   0.109  0.00  0.00    -0.265 OA
ATOM      3  N   UNL d   1       1.892   4.803   1.371  0.00  0.00    -0.023 NA
ATOM      4  C   UNL d   1       1.579   5.958   1.919  0.00  0.00     0.704 C 
ATOM      5  N   UNL d   1       2.166   7.191   1.753  0.00  0.00    -0.220 N 
ATOM      6  N   UNL d   1       0.534   6.018   2.843  0.00  0.00    -0.190 N 
ATOM      7  H   UNL d   1       2.014   7.869   2.485  0.00  0.00     0.178 HD
ATOM      8  H   UNL d   1       0.041   5.144   2.987  0.00  0.00     0.184 HD
ENDROOT
BRANCH   5   9
ATOM      9  C   UNL d   1       3.346   7.411   0.986  0.00  0.00     0.178 C 
BRANCH   9  10
ATOM     10  C   UNL d   1       3.924   8.752   0.903  0.00  0.00    -0.022 A 
ATOM     11  C   UNL d   1       3.122   9.871   0.894  0.00  0.00     0.012 A 
ATOM     12  C   UNL d   1       3.736  11.094   0.777  0.00  0.00     0.020 A 
ATOM     13  C   UNL d   1       5.116  11.127   0.617  0.00  0.00     0.116 A 
ATOM     14  N   UNL d   1       5.912  10.040   0.525  0.00  0.00    -0.273 NA
ATOM     15  C   UNL d   1       5.294   8.861   0.655  0.00  0.00     0.124 A 
ENDBRANCH   9  10
ENDBRANCH   5   9
BRANCH   6  16
ATOM     16  C   UNL d   1      -0.164   7.137   3.375  0.00  0.00     0.049 A 
ATOM     17  C   UNL d   1      -0.700   7.106   4.671  0.00  0.00     0.030 A 
ATOM     18  C   UNL d   1      -1.374   8.220   5.208  0.00  0.00     0.009 A 
ATOM     19  C   UNL d   1      -1.450   9.430   4.502  0.00  0.00    -0.056 A 
ATOM     20  C   UNL d   1      -2.054  10.649   5.145  0.00  0.00     0.049 C 
ATOM     21  C   UNL d   1      -0.925   9.480   3.205  0.00  0.00    -0.054 A 
ATOM     22  C   UNL d   1      -1.008  10.700   2.332  0.00  0.00     0.049 C 
ATOM     23  C   UNL d   1      -0.312   8.335   2.664  0.00  0.00     0.037 A 
ENDBRANCH   6  16
BRANCH   1  24
ATOM     24  C   UNL d   1       3.345   3.358  -0.082  0.00  0.00     0.040 A 
ATOM     25  C   UNL d   1       4.516   3.342  -0.886  0.00  0.00     0.054 A 
ATOM     26  C   UNL d   1       5.047   2.173  -1.366  0.00  0.00     0.071 A 
ATOM     27  C   UNL d   1       4.301   1.015  -1.147  0.00  0.00     0.073 A 
ATOM     28  C   UNL d   1       3.119   1.036  -0.365  0.00  0.00     0.071 A 
ATOM     29  C   UNL d   1       2.658   2.214   0.200  0.00  0.00     0.054 A 
BRANCH  26  30
ATOM     30  O   UNL d   1       6.255   2.099  -2.007  0.00  0.00    -0.356 OA
ATOM     31  C   UNL d   1       7.063   3.292  -2.004  0.00  0.00     0.210 C 
ENDBRANCH  26  30
BRANCH  28  32
ATOM     32  O   UNL d   1       2.503  -0.159  -0.109  0.00  0.00    -0.356 OA
ATOM     33  C   UNL d   1       1.083  -0.067   0.021  0.00  0.00     0.210 C 
ENDBRANCH  28  32
ENDBRANCH   1  24
TORSDOF 6
