REMARK  3 active torsions:
REMARK  status: ('A' for Active; 'I' for Inactive)
REMARK       I    between atoms: C_2  and  N_4 
REMARK    1  A    between atoms: N_4  and  C_5 
REMARK    2  A    between atoms: C_11  and  N_12 
REMARK       I    between atoms: N_12  and  C_13 
REMARK    3  A    between atoms: C_13  and  C_15 
ROOT
ATOM      1  C   UNL d   1       4.612  -1.234  -0.155  0.00  0.00     0.061 A 
ATOM      2  C   UNL d   1       5.412  -0.544   0.762  0.00  0.00     0.033 A 
ATOM      3  C   UNL d   1       6.795  -0.580   0.682  0.00  0.00     0.026 A 
ATOM      4  C   UNL d   1       7.395  -1.303  -0.338  0.00  0.00     0.036 A 
ATOM      5 CL   UNL d   1       9.116  -1.317  -0.431  0.00  0.00    -0.084 Cl
ATOM      6  C   UNL d   1       6.617  -2.011  -1.272  0.00  0.00     0.055 A 
ATOM      7  C   UNL d   1       5.201  -2.001  -1.195  0.00  0.00     0.063 A 
ENDROOT
BRANCH   7   8
ATOM      8  N   UNL d   1       4.486  -2.722  -2.214  0.00  0.00    -0.320 N 
ATOM      9  C   UNL d   1       3.107  -2.803  -2.379  0.00  0.00     0.274 C 
ATOM     10  O   UNL d   1       2.231  -2.359  -1.637  0.00  0.00    -0.266 OA
ATOM     11  H   UNL d   1       5.058  -3.160  -2.930  0.00  0.00     0.169 HD
BRANCH   9  12
ATOM     12  C   UNL d   1       2.553  -3.552  -3.510  0.00  0.00     0.124 A 
ATOM     13  C   UNL d   1       2.948  -4.858  -3.720  0.00  0.00     0.037 A 
ATOM     14  C   UNL d   1       2.299  -5.557  -4.727  0.00  0.00     0.004 A 
ATOM     15  C   UNL d   1       1.261  -4.947  -5.435  0.00  0.00     0.019 A 
ATOM     16  C   UNL d   1       0.885  -3.660  -5.095  0.00  0.00     0.117 A 
ATOM     17  N   UNL d   1       1.519  -2.945  -4.155  0.00  0.00    -0.256 NA
ENDBRANCH   9  12
ENDBRANCH   7   8
BRANCH   1  18
ATOM     18  N   UNL d   1       3.224  -1.154   0.083  0.00  0.00    -0.326 N 
ATOM     19  C   UNL d   1       2.553   0.059   0.075  0.00  0.00     0.218 C 
ATOM     20  C   UNL d   1       1.048  -0.074  -0.025  0.00  0.00     0.117 C 
ATOM     21  O   UNL d   1       3.092   1.163   0.112  0.00  0.00    -0.274 OA
ATOM     22  H   UNL d   1       2.671  -1.897  -0.339  0.00  0.00     0.169 HD
ENDBRANCH   1  18
TORSDOF 3
