REMARK  4 active torsions:
REMARK  status: ('A' for Active; 'I' for Inactive)
REMARK    1  A    between atoms: C_5  and  C_6 
REMARK       I    between atoms: C_6  and  N_7 
REMARK    2  A    between atoms: C_10  and  N_11 
REMARK       I    between atoms: N_11  and  C_12 
REMARK    3  A    between atoms: C_12  and  C_14 
REMARK    4  A    between atoms: C_15  and  C_16 
ROOT
ATOM      1  C   UNL d   1       2.449  -0.393  -0.006  0.00  0.00     0.050 C 
ATOM      2  C   UNL d   1       0.989  -0.096   0.003  0.00  0.00    -0.035 A 
ATOM      3  C   UNL d   1       0.212  -1.262   0.008  0.00  0.00     0.010 A 
ATOM      4  C   UNL d   1      -1.162  -1.213   0.001  0.00  0.00     0.017 A 
ATOM      5  C   UNL d   1      -1.804   0.021  -0.010  0.00  0.00     0.034 A 
ATOM      6  C   UNL d   1      -1.024   1.220  -0.003  0.00  0.00     0.047 A 
ATOM      7  C   UNL d   1       0.401   1.192   0.000  0.00  0.00     0.042 A 
ENDROOT
BRANCH   7   8
ATOM      8  N   UNL d   1       1.145   2.449  -0.008  0.00  0.00    -0.323 N 
ATOM      9  C   UNL d   1       2.526   2.617  -0.022  0.00  0.00     0.245 C 
ATOM     10  O   UNL d   1       3.389   1.745  -0.007  0.00  0.00    -0.268 OA
ATOM     11  H   UNL d   1       0.579   3.289  -0.010  0.00  0.00     0.169 HD
BRANCH   9  12
ATOM     12  C   UNL d   1       3.113   3.971  -0.036  0.00  0.00     0.076 C 
ATOM     13  C   UNL d   1       4.469   3.991  -0.043  0.00  0.00     0.037 C 
BRANCH  13  14
ATOM     14  C   UNL d   1       5.273   5.193   0.005  0.00  0.00     0.056 A 
ATOM     15  C   UNL d   1       4.923   6.199   0.887  0.00  0.00     0.031 A 
ATOM     16  C   UNL d   1       5.644   7.377   0.854  0.00  0.00     0.004 A 
ATOM     17  C   UNL d   1       6.717   7.490  -0.022  0.00  0.00     0.019 A 
ATOM     18  C   UNL d   1       7.043   6.401  -0.817  0.00  0.00     0.117 A 
ATOM     19  N   UNL d   1       6.344   5.247  -0.818  0.00  0.00    -0.261 NA
ENDBRANCH  13  14
ENDBRANCH   9  12
ENDBRANCH   7   8
BRANCH   5  20
ATOM     20  C   UNL d   1      -3.304   0.058  -0.038  0.00  0.00     0.249 C 
ATOM     21  N   UNL d   1      -3.994  -1.134  -0.054  0.00  0.00    -0.366 N 
ATOM     22  H   UNL d   1      -3.588  -2.057  -0.054  0.00  0.00     0.159 HD
ATOM     23  H   UNL d   1      -5.005  -1.096  -0.081  0.00  0.00     0.159 HD
ATOM     24  O   UNL d   1      -3.917   1.118  -0.050  0.00  0.00    -0.268 OA
ENDBRANCH   5  20
TORSDOF 4
