REMARK  3 active torsions:
REMARK  status: ('A' for Active; 'I' for Inactive)
REMARK       I    between atoms: C_2  and  N_3 
REMARK    1  A    between atoms: C_2  and  C_14 
REMARK    2  A    between atoms: N_3  and  N_4 
REMARK       I    between atoms: N_4  and  C_5 
REMARK    3  A    between atoms: C_5  and  C_7 
ROOT
ATOM      1  O   UNL d   1       1.028   0.049  -0.050  0.00  0.00    -0.266 OA
ATOM      2  C   UNL d   1       2.256  -0.034  -0.050  0.00  0.00     0.270 C 
ATOM      3  N   UNL d   1       2.962  -0.797   0.879  0.00  0.00    -0.263 N 
ATOM      4  H   UNL d   1       3.977  -0.779   0.962  0.00  0.00     0.190 HD
ENDROOT
BRANCH   3   5
ATOM      5  N   UNL d   1       2.268  -1.536   1.883  0.00  0.00    -0.263 N 
ATOM      6  C   UNL d   1       2.992  -2.207   2.864  0.00  0.00     0.273 C 
ATOM      7  O   UNL d   1       4.222  -2.187   2.919  0.00  0.00    -0.266 OA
ATOM      8  H   UNL d   1       1.250  -1.495   1.858  0.00  0.00     0.190 HD
BRANCH   6   9
ATOM      9  C   UNL d   1       2.223  -2.922   3.924  0.00  0.00     0.072 A 
ATOM     10  C   UNL d   1       2.594  -2.772   5.271  0.00  0.00     0.020 A 
ATOM     11  C   UNL d   1       1.851  -3.390   6.290  0.00  0.00     0.001 A 
ATOM     12  C   UNL d   1       0.758  -4.194   5.971  0.00  0.00     0.003 A 
ATOM     13  C   UNL d   1       0.424  -4.399   4.631  0.00  0.00     0.043 A 
ATOM     14  C   UNL d   1       1.154  -3.764   3.619  0.00  0.00     0.132 A 
ATOM     15  F   UNL d   1       0.813  -4.003   2.346  0.00  0.00    -0.205 F 
ENDBRANCH   6   9
ENDBRANCH   3   5
BRANCH   2  16
ATOM     16  C   UNL d   1       3.072   0.729  -1.063  0.00  0.00     0.034 A 
ATOM     17  C   UNL d   1       2.670   2.023  -1.471  0.00  0.00     0.017 A 
ATOM     18  C   UNL d   1       3.441   2.777  -2.380  0.00  0.00     0.009 A 
ATOM     19  C   UNL d   1       4.610   2.225  -2.878  0.00  0.00    -0.052 A 
ATOM     20  C   UNL d   1       4.985   0.925  -2.520  0.00  0.00    -0.051 A 
ATOM     21  C   UNL d   1       5.604   2.827  -3.831  0.00  0.00     0.039 C 
ATOM     22  C   UNL d   1       4.223   0.164  -1.633  0.00  0.00     0.024 A 
ATOM     23  C   UNL d   1       6.247   0.533  -3.231  0.00  0.00     0.039 C 
ATOM     24  C   UNL d   1       6.818   1.909  -3.609  0.00  0.00     0.009 C 
ENDBRANCH   2  16
TORSDOF 3
