REMARK  8 active torsions:
REMARK  status: ('A' for Active; 'I' for Inactive)
REMARK    1  A    between atoms: C_5  and  N_6 
REMARK    2  A    between atoms: N_6  and  C_7 
REMARK    3  A    between atoms: C_7  and  C_8 
REMARK       I    between atoms: C_8  and  N_10 
REMARK    4  A    between atoms: N_10  and  N_11 
REMARK    5  A    between atoms: C_12  and  C_13 
REMARK    6  A    between atoms: C_16  and  O_17 
REMARK    7  A    between atoms: O_17  and  C_18 
REMARK    8  A    between atoms: C_18  and  C_20 
ROOT
ATOM      1  C   UNL d   1      -8.147   4.326  -0.122  0.00  0.00    -0.017 C 
ATOM      2  C   UNL d   1      -9.081   5.380  -0.133  0.00  0.00     0.015 C 
ATOM      3  C   UNL d   1      -8.639   6.735  -0.124  0.00  0.00     0.038 C 
ATOM      4  C   UNL d   1      -7.282   7.011   0.052  0.00  0.00     0.079 C 
ATOM      5  C   UNL d   1      -6.423   5.967   0.294  0.00  0.00     0.038 C 
ATOM      6  C   UNL d   1      -6.823   4.693  -0.024  0.00  0.00     0.015 C 
ENDROOT
BRANCH   1   7
ATOM      7  C   UNL d   1      -8.533   2.876  -0.175  0.00  0.00     0.150 C 
ATOM      8  N   UNL d   1      -7.814   1.774  -0.187  0.00  0.00    -0.184 NA
BRANCH   8   9
ATOM      9  N   UNL d   1      -6.448   1.811  -0.126  0.00  0.00    -0.246 N 
ATOM     10  C   UNL d   1      -5.600   0.715  -0.115  0.00  0.00     0.255 C 
ATOM     11  O   UNL d   1      -5.939  -0.464  -0.143  0.00  0.00    -0.270 OA
ATOM     12  H   UNL d   1      -6.014   2.610   0.275  0.00  0.00     0.192 HD
BRANCH  10  13
ATOM     13  C   UNL d   1      -4.106   1.169  -0.061  0.00  0.00     0.224 C 
BRANCH  13  14
ATOM     14  N   UNL d   1      -3.232   0.008  -0.007  0.00  0.00    -0.381 N 
ATOM     15  H   UNL d   1      -3.716  -0.886  -0.068  0.00  0.00     0.160 HD
BRANCH  14  16
ATOM     16  C   UNL d   1      -1.856   0.038  -0.014  0.00  0.00     0.028 A 
ATOM     17  C   UNL d   1      -1.144  -1.170  -0.002  0.00  0.00     0.029 A 
ATOM     18  C   UNL d   1       0.257  -1.197   0.003  0.00  0.00     0.009 A 
ATOM     19  C   UNL d   1       0.985  -0.006   0.001  0.00  0.00    -0.062 A 
ATOM     20  C   UNL d   1       2.484  -0.005  -0.013  0.00  0.00     0.048 C 
ATOM     21  C   UNL d   1       0.288   1.204   0.003  0.00  0.00     0.009 A 
ATOM     22  C   UNL d   1      -1.112   1.221  -0.002  0.00  0.00     0.029 A 
ENDBRANCH  14  16
ENDBRANCH  13  14
ENDBRANCH  10  13
ENDBRANCH   8   9
ENDBRANCH   1   7
BRANCH   4  23
ATOM     23  O   UNL d   1      -6.725   8.313  -0.148  0.00  0.00    -0.275 OA
BRANCH  23  24
ATOM     24  C   UNL d   1      -5.324   8.629  -0.260  0.00  0.00     0.298 C 
ATOM     25  O   UNL d   1      -4.823   9.495   0.402  0.00  0.00    -0.259 OA
BRANCH  24  26
ATOM     26  C   UNL d   1      -4.484   7.808  -1.215  0.00  0.00     0.039 C 
ATOM     27  C   UNL d   1      -3.120   7.939  -1.417  0.00  0.00     0.016 C 
ATOM     28  C   UNL d   1      -2.527   7.135  -2.436  0.00  0.00     0.019 C 
ATOM     29  C   UNL d   1      -3.248   6.026  -2.936  0.00  0.00     0.157 C 
ATOM     30  C   UNL d   1      -4.263   5.615  -2.160  0.00  0.00     0.158 C 
ATOM     31  O   UNL d   1      -3.933   5.956  -4.240  0.00  0.00    -0.345 OA
ATOM     32  C   UNL d   1      -5.040   6.716  -1.826  0.00  0.00     0.035 C 
ATOM     33  O   UNL d   1      -4.860   4.481  -2.680  0.00  0.00    -0.345 OA
ATOM     34  C   UNL d   1      -5.112   5.090  -3.933  0.00  0.00     0.341 C 
ENDBRANCH  24  26
ENDBRANCH  23  24
ENDBRANCH   4  23
TORSDOF 8
