@<TRIPOS>MOLECULE
*****
 39 40 0 0 0
SMALL
GASTEIGER

@<TRIPOS>ATOM
      1 C           1.0933    0.1211   -0.0773 C.3     1  UNL1        0.0788
      2 O           2.5129    0.2592   -0.1686 O.3     1  UNL1       -0.4951
      3 C           3.1534    0.6852    0.9621 C.ar    1  UNL1        0.1202
      4 C           4.3765    1.3480    0.8084 C.ar    1  UNL1       -0.0182
      5 C           5.1613    1.7197    1.9312 C.ar    1  UNL1       -0.0370
      6 C           4.6980    1.4828    3.2325 C.ar    1  UNL1        0.0350
      7 N           5.4188    1.9417    4.3930 N.am    1  UNL1       -0.2692
      8 C           4.9341    1.8172    5.6915 C.2     1  UNL1        0.3081
      9 O           3.8582    1.2773    5.9671 O.2     1  UNL1       -0.2522
     10 N           5.7116    2.3537    6.7092 N.am    1  UNL1       -0.2692
     11 C           5.3148    2.1759    8.0776 C.ar    1  UNL1        0.0352
     12 C           5.4371    3.1729    9.0367 C.ar    1  UNL1       -0.0370
     13 C           5.0754    2.9034   10.3784 C.ar    1  UNL1       -0.0179
     14 C           4.5591    1.6531   10.7944 C.ar    1  UNL1        0.1231
     15 O           4.2191    1.6274   12.1236 O.3     1  UNL1       -0.4948
     16 C           3.5739    0.4768   12.6505 C.3     1  UNL1        0.0788
     17 C           4.4586    0.6377    9.8412 C.ar    1  UNL1       -0.0071
     18 C           4.0556   -0.7968   10.0318 C.3     1  UNL1       -0.0362
     19 C           4.8213    0.9358    8.5039 C.ar    1  UNL1       -0.0341
     20 C           3.4813    0.7998    3.3423 C.ar    1  UNL1       -0.0370
     21 C           2.7160    0.4149    2.2425 C.ar    1  UNL1       -0.0182
     22 H           0.7440   -0.4058   -0.9709 H       1  UNL1        0.0660
     23 H           0.6334    1.1133   -0.0611 H       1  UNL1        0.0660
     24 H           0.7489   -0.4726    0.7756 H       1  UNL1        0.0660
     25 H           4.7186    1.5850   -0.1978 H       1  UNL1        0.0655
     26 H           6.1279    2.1805    1.7448 H       1  UNL1        0.0637
     27 H           6.2817    2.4425    4.2321 H       1  UNL1        0.1564
     28 H           6.3960    3.0651    6.5017 H       1  UNL1        0.1564
     29 H           5.7383    4.1814    8.7679 H       1  UNL1        0.0637
     30 H           5.1996    3.6907   11.1230 H       1  UNL1        0.0655
     31 H           3.2318    0.6678   13.6712 H       1  UNL1        0.0660
     32 H           4.2947   -0.3441   12.7311 H       1  UNL1        0.0660
     33 H           2.6786    0.2164   12.0721 H       1  UNL1        0.0660
     34 H           3.8200   -1.1226   11.0340 H       1  UNL1        0.0279
     35 H           4.8884   -1.4401    9.7300 H       1  UNL1        0.0279
     36 H           3.1693   -1.0164    9.4294 H       1  UNL1        0.0279
     37 H           4.7332    0.1298    7.7760 H       1  UNL1        0.0640
     38 H           3.0566    0.5052    4.2909 H       1  UNL1        0.0637
     39 H           1.7982   -0.1181    2.4565 H       1  UNL1        0.0655
@<TRIPOS>BOND
     1     1     2    1
     2     2     3    1
     3     3     4   ar
     4     4     5   ar
     5     5     6   ar
     6     6     7    1
     7     7     8   am
     8     8     9    2
     9     8    10   am
    10    10    11    1
    11    11    12   ar
    12    12    13   ar
    13    13    14   ar
    14    14    15    1
    15    15    16    1
    16    14    17   ar
    17    17    18    1
    18    17    19   ar
    19    11    19   ar
    20     6    20   ar
    21    20    21   ar
    22     3    21   ar
    23     1    22    1
    24     1    23    1
    25     1    24    1
    26     4    25    1
    27     5    26    1
    28     7    27    1
    29    10    28    1
    30    12    29    1
    31    13    30    1
    32    16    31    1
    33    16    32    1
    34    16    33    1
    35    18    34    1
    36    18    35    1
    37    18    36    1
    38    19    37    1
    39    20    38    1
    40    21    39    1
