REMARK  7 active torsions:
REMARK  status: ('A' for Active; 'I' for Inactive)
REMARK    1  A    between atoms: C_2  and  O_3 
REMARK    2  A    between atoms: O_3  and  C_4 
REMARK       I    between atoms: C_4  and  N_6 
REMARK       I    between atoms: N_9  and  C_10 
REMARK    3  A    between atoms: C_10  and  C_12 
REMARK    4  A    between atoms: C_21  and  C_22 
REMARK    5  A    between atoms: C_22  and  S_23 
REMARK    6  A    between atoms: S_23  and  C_24 
REMARK    7  A    between atoms: C_24  and  C_25 
ROOT
ATOM      1  C   UNL d   1       5.710  -8.049   0.694  0.00  0.00     0.034 A 
ATOM      2  C   UNL d   1       5.594  -9.244   1.422  0.00  0.00     0.019 A 
ATOM      3  C   UNL d   1       5.147 -10.421   0.804  0.00  0.00     0.032 A 
ATOM      4  C   UNL d   1       4.797 -10.421  -0.543  0.00  0.00     0.056 A 
ATOM      5  C   UNL d   1       4.902  -9.213  -1.259  0.00  0.00     0.062 A 
ATOM      6  C   UNL d   1       5.391  -8.043  -0.666  0.00  0.00     0.049 A 
ATOM      7  N   UNL d   1       4.534  -9.195  -2.607  0.00  0.00    -0.323 N 
ATOM      8  C   UNL d   1       3.854 -10.230  -3.205  0.00  0.00     0.245 C 
ATOM      9  O   UNL d   1       3.576 -10.132  -4.397  0.00  0.00    -0.271 OA
ATOM     10  C   UNL d   1       3.374 -11.377  -2.276  0.00  0.00     0.183 C 
ATOM     11  N   UNL d   1       4.280 -11.573  -1.130  0.00  0.00    -0.374 N 
ATOM     12  H   UNL d   1       4.760  -8.412  -3.204  0.00  0.00     0.169 HD
ATOM     13  H   UNL d   1       4.756 -12.456  -0.993  0.00  0.00     0.160 HD
ENDROOT
BRANCH   1  14
ATOM     14  C   UNL d   1       6.290  -6.855   1.374  0.00  0.00     0.254 C 
ATOM     15  N   UNL d   1       5.617  -5.633   1.383  0.00  0.00    -0.345 N 
ATOM     16  C   UNL d   1       6.213  -4.465   2.064  0.00  0.00     0.146 C 
ATOM     17  C   UNL d   1       4.275  -5.359   0.847  0.00  0.00     0.146 C 
ATOM     18  C   UNL d   1       6.246  -3.238   1.122  0.00  0.00     0.148 C 
ATOM     19  N   UNL d   1       4.908  -2.969   0.566  0.00  0.00    -0.325 N 
ATOM     20  C   UNL d   1       4.492  -1.664   0.327  0.00  0.00     0.362 C 
ATOM     21  C   UNL d   1       4.306  -4.135  -0.090  0.00  0.00     0.148 C 
ATOM     22  O   UNL d   1       5.265  -0.704   0.324  0.00  0.00    -0.238 OA
ATOM     23  O   UNL d   1       7.382  -7.018   1.918  0.00  0.00    -0.267 OA
BRANCH  20  24
ATOM     24  O   UNL d   1       3.134  -1.526   0.177  0.00  0.00    -0.304 OA
BRANCH  24  25
ATOM     25  C   UNL d   1       2.660  -0.159   0.052  0.00  0.00     0.176 C 
ATOM     26  C   UNL d   1       1.134  -0.104   0.066  0.00  0.00     0.034 C 
ENDBRANCH  24  25
ENDBRANCH  20  24
ENDBRANCH   1  14
BRANCH  10  27
ATOM     27  C   UNL d   1       3.117 -12.706  -3.026  0.00  0.00     0.109 C 
BRANCH  27  28
ATOM     28  S   UNL d   1       1.468 -12.667  -3.820  0.00  0.00    -0.162 SA
BRANCH  28  29
ATOM     29  C   UNL d   1       1.568 -13.833  -5.218  0.00  0.00     0.112 C 
BRANCH  29  30
ATOM     30  C   UNL d   1       1.042 -13.408  -6.600  0.00  0.00    -0.043 A 
ATOM     31  C   UNL d   1       0.870 -14.438  -7.561  0.00  0.00     0.008 A 
ATOM     32  C   UNL d   1       0.411 -14.175  -8.862  0.00  0.00     0.001 A 
ATOM     33  C   UNL d   1       0.115 -12.876  -9.246  0.00  0.00     0.001 A 
ATOM     34  C   UNL d   1       0.267 -11.848  -8.329  0.00  0.00     0.007 A 
ATOM     35  C   UNL d   1       0.724 -12.094  -7.020  0.00  0.00    -0.055 A 
ATOM     36  C   UNL d   1       0.851 -10.886  -6.145  0.00  0.00     0.049 C 
ENDBRANCH  29  30
ENDBRANCH  28  29
ENDBRANCH  27  28
ENDBRANCH  10  27
TORSDOF 7
