@<TRIPOS>MOLECULE
*****
 55 59 0 0 0
SMALL
GASTEIGER

@<TRIPOS>ATOM
      1 O           5.0979   -6.6445    1.0273 O.2     1  UNL1       -0.2740
      2 C           4.3915   -5.6786    1.3123 C.2     1  UNL1        0.2321
      3 C           2.8447   -5.7591    1.3719 C.3     1  UNL1        0.1103
      4 N           2.2665   -7.0674    1.0583 N.am    1  UNL1       -0.1902
      5 N           2.1009   -7.5186   -0.2745 N.3     1  UNL1       -0.1925
      6 C           0.8671   -8.3122   -0.1453 C.3     1  UNL1        0.2034
      7 C           0.7823   -9.4961   -1.0823 C.ar    1  UNL1        0.0463
      8 C           1.5052  -10.6772   -1.0951 C.ar    1  UNL1       -0.0466
      9 C           1.1479  -11.5438   -2.1745 C.ar    1  UNL1       -0.0543
     10 C           0.1428  -11.0172   -2.9525 C.ar    1  UNL1       -0.0239
     11 S          -0.3646   -9.4878   -2.3761 S.2     1  UNL1       -0.0965
     12 O           0.7991   -8.7547    1.2105 O.3     1  UNL1       -0.4242
     13 C           1.5465   -7.8559    1.9256 C.2     1  UNL1        0.4190
     14 O           1.5405   -7.7829    3.1531 O.2     1  UNL1       -0.2248
     15 N           5.0018   -4.4496    1.5577 N.am    1  UNL1       -0.3131
     16 C           4.2735   -3.2351    1.8565 C.3     1  UNL1        0.0224
     17 C           4.9654   -1.8400    2.0398 C.3     1  UNL1        0.0290
     18 C           4.3964   -0.8931    1.0068 C.2     1  UNL1        0.0166
     19 C           4.4890   -0.9833   -0.3269 C.ar    1  UNL1        0.0515
     20 C           5.1312   -1.9135   -1.2033 C.ar    1  UNL1       -0.0481
     21 C           5.2340   -1.6056   -2.5018 C.ar    1  UNL1       -0.0608
     22 C           4.6388   -0.3919   -3.0344 C.ar    1  UNL1       -0.0555
     23 C           3.9963    0.5222   -2.2784 C.ar    1  UNL1        0.0098
     24 C           3.9066    0.2701   -0.8278 C.ar    1  UNL1        0.2086
     25 N           3.4246    0.9880    0.1160 N.2     1  UNL1       -0.2369
     26 C           3.6535    0.3392    1.4240 C.3     1  UNL1        0.1667
     27 C           6.4852   -1.7876    2.1168 C.ar    1  UNL1       -0.0203
     28 C           7.2641   -1.4066    1.0054 C.ar    1  UNL1       -0.0566
     29 C           8.6244   -1.6422    0.9301 C.ar    1  UNL1       -0.0614
     30 C           9.2900   -2.0343    2.0705 C.ar    1  UNL1       -0.0604
     31 C           8.5838   -2.1877    3.2647 C.ar    1  UNL1       -0.0431
     32 C           7.1858   -2.1371    3.2764 C.ar    1  UNL1        0.0448
     33 CL          6.3721   -2.5209    4.7488 Cl      1  UNL1       -0.0832
     34 H           2.4254   -5.0410    0.6560 H       1  UNL1        0.0577
     35 H           2.5185   -5.4566    2.3748 H       1  UNL1        0.0577
     36 H           2.8535   -8.2104   -0.3908 H       1  UNL1        0.1487
     37 H           0.0123   -7.6448   -0.3237 H       1  UNL1        0.0985
     38 H           2.2680  -10.9139   -0.3646 H       1  UNL1        0.0627
     39 H           1.6046  -12.5075   -2.3714 H       1  UNL1        0.0623
     40 H          -0.3138  -11.4643   -3.8288 H       1  UNL1        0.0693
     41 H           6.0193   -4.4763    1.5211 H       1  UNL1        0.1488
     42 H           3.6752   -3.4370    2.7494 H       1  UNL1        0.0471
     43 H           3.5590   -3.1546    1.0307 H       1  UNL1        0.0471
     44 H           4.5858   -1.4442    2.9946 H       1  UNL1        0.0412
     45 H           5.6213   -2.8000   -0.8078 H       1  UNL1        0.0626
     46 H           5.7861   -2.2620   -3.1732 H       1  UNL1        0.0618
     47 H           4.7391   -0.2585   -4.1103 H       1  UNL1        0.0620
     48 H           3.5703    1.4129   -2.7219 H       1  UNL1        0.0683
     49 H           2.9702    1.8870   -0.0315 H       1  UNL1        0.4459
     50 H           2.6893    0.0974    1.8799 H       1  UNL1        0.1077
     51 H           4.2492    1.0018    2.0582 H       1  UNL1        0.1077
     52 H           6.8567   -0.9252    0.1302 H       1  UNL1        0.0621
     53 H           9.1405   -1.5000   -0.0168 H       1  UNL1        0.0618
     54 H          10.3619   -2.1957    2.0295 H       1  UNL1        0.0618
     55 H           9.1353   -2.3798    4.1805 H       1  UNL1        0.0632
@<TRIPOS>UNITY_ATOM_ATTR
25 1
charge 1
@<TRIPOS>BOND
     1     1     2    2
     2     2     3    1
     3     3     4    1
     4     4     5    1
     5     5     6    1
     6     7     8   ar
     7     8     9   ar
     8     9    10   ar
     9    10    11   ar
    10     7    11   ar
    11     6    12    1
    12    12    13    1
    13     4    13   am
    14    13    14    2
    15     2    15   am
    16    15    16    1
    17    18    19    2
    18    19    20   ar
    19    20    21   ar
    20    21    22   ar
    21    22    23   ar
    22    23    24   ar
    23    19    24   ar
    24    24    25    2
    25    25    26    1
    26    18    26    1
    27    17    27    1
    28    27    28   ar
    29    28    29   ar
    30    29    30   ar
    31    30    31   ar
    32    31    32   ar
    33    27    32   ar
    34    32    33    1
    35    17    18    1
    36    17    16    1
    37     6     7    1
    38     3    34    1
    39     3    35    1
    40     5    36    1
    41     6    37    1
    42     8    38    1
    43     9    39    1
    44    10    40    1
    45    15    41    1
    46    16    42    1
    47    16    43    1
    48    17    44    1
    49    20    45    1
    50    21    46    1
    51    22    47    1
    52    23    48    1
    53    25    49    1
    54    26    50    1
    55    26    51    1
    56    28    52    1
    57    29    53    1
    58    30    54    1
    59    31    55    1
