REMARK  12 active torsions:
REMARK  status: ('A' for Active; 'I' for Inactive)
REMARK    1  A    between atoms: C_2  and  C_3 
REMARK    2  A    between atoms: C_3  and  C_4 
REMARK    3  A    between atoms: C_4  and  C_5 
REMARK    4  A    between atoms: C_5  and  C_6 
REMARK    5  A    between atoms: C_6  and  N_7 
REMARK       I    between atoms: N_7  and  C_8 
REMARK       I    between atoms: C_8  and  N_10 
REMARK    6  A    between atoms: N_10  and  C_11 
REMARK    7  A    between atoms: C_11  and  C_12 
REMARK    8  A    between atoms: C_12  and  O_13 
REMARK    9  A    between atoms: C_12  and  C_14 
REMARK   10  A    between atoms: C_14  and  O_15 
REMARK   11  A    between atoms: O_15  and  C_16 
REMARK   12  A    between atoms: C_19  and  N_20 
ROOT
ATOM      1  C   UNL d   1      10.678   4.879  -5.790  0.00  0.00     0.160 C 
ENDROOT
BRANCH   1   2
ATOM      2  C   UNL d   1      10.394   3.877  -4.651  0.00  0.00     0.158 C 
BRANCH   2   3
ATOM      3  N   UNL d   1       8.970   3.634  -4.402  0.00  0.00    -0.341 N 
ATOM      4  C   UNL d   1       8.573   2.810  -3.378  0.00  0.00     0.316 C 
ATOM      5  N   UNL d   1       7.213   2.691  -3.231  0.00  0.00    -0.343 N 
ATOM      6  O   UNL d   1       9.377   2.214  -2.663  0.00  0.00    -0.247 OA
ATOM      7  H   UNL d   1       6.593   3.205  -3.838  0.00  0.00     0.164 HD
ATOM      8  H   UNL d   1       8.293   4.191  -4.905  0.00  0.00     0.164 HD
BRANCH   5   9
ATOM      9  C   UNL d   1       6.655   1.822  -2.200  0.00  0.00     0.124 C 
BRANCH   9  10
ATOM     10  C   UNL d   1       5.125   1.796  -2.169  0.00  0.00     0.020 C 
BRANCH  10  11
ATOM     11  C   UNL d   1       4.596   0.865  -1.069  0.00  0.00     0.002 C 
BRANCH  11  12
ATOM     12  C   UNL d   1       3.067   0.845  -1.045  0.00  0.00    -0.000 C 
BRANCH  12  13
ATOM     13  C   UNL d   1       2.536  -0.080   0.049  0.00  0.00    -0.005 C 
ATOM     14  C   UNL d   1       1.016  -0.089   0.059  0.00  0.00     0.005 C 
ENDBRANCH  12  13
ENDBRANCH  11  12
ENDBRANCH  10  11
ENDBRANCH   9  10
ENDBRANCH   5   9
ENDBRANCH   2   3
ENDBRANCH   1   2
BRANCH   1  15
ATOM     15  O   UNL d   1      10.046   6.129  -5.473  0.00  0.00    -0.392 OA
ATOM     16  H   UNL d   1      10.507   6.507  -4.705  0.00  0.00     0.210 HD
ENDBRANCH   1  15
BRANCH   1  17
ATOM     17  C   UNL d   1      12.201   5.075  -6.009  0.00  0.00     0.209 C 
BRANCH  17  18
ATOM     18  O   UNL d   1      12.424   6.056  -7.038  0.00  0.00    -0.349 OA
BRANCH  18  19
ATOM     19  C   UNL d   1      13.722   6.258  -7.429  0.00  0.00     0.069 A 
ATOM     20  C   UNL d   1      14.063   7.569  -7.788  0.00  0.00     0.039 A 
ATOM     21  C   UNL d   1      15.325   7.862  -8.324  0.00  0.00     0.039 A 
ATOM     22  C   UNL d   1      16.275   6.841  -8.437  0.00  0.00     0.103 A 
ATOM     23  C   UNL d   1      15.940   5.526  -8.092  0.00  0.00     0.039 A 
ATOM     24  C   UNL d   1      14.661   5.239  -7.597  0.00  0.00     0.039 A 
BRANCH  22  25
ATOM     25  N   UNL d   1      17.645   7.156  -8.866  0.00  0.00    -0.116 N 
ATOM     26  O   UNL d   1      17.909   8.336  -9.138  0.00  0.00    -0.532 OA
ATOM     27  O   UNL d   1      18.465   6.227  -8.903  0.00  0.00    -0.532 OA
ENDBRANCH  22  25
ENDBRANCH  18  19
ENDBRANCH  17  18
ENDBRANCH   1  17
TORSDOF 12
