REMARK  5 active torsions:
REMARK  status: ('A' for Active; 'I' for Inactive)
REMARK       I    between atoms: N_1  and  C_2 
REMARK    1  A    between atoms: C_2  and  C_4 
REMARK    2  A    between atoms: C_8  and  N_9 
REMARK    3  A    between atoms: N_9  and  C_10 
REMARK    4  A    between atoms: C_10  and  N_12 
REMARK    5  A    between atoms: N_12  and  C_13 
ROOT
ATOM      1  N   UNL d   1       2.829   4.488  -1.333  0.00  0.00    -0.333 N 
ATOM      2  H   UNL d   1       3.336   5.238  -1.794  0.00  0.00     0.168 HD
ENDROOT
BRANCH   1   3
ATOM      3  C   UNL d   1       3.400   3.173  -1.506  0.00  0.00     0.035 A 
ATOM      4  C   UNL d   1       4.514   2.900  -2.307  0.00  0.00     0.029 A 
ATOM      5  C   UNL d   1       5.031   1.575  -2.376  0.00  0.00     0.003 A 
ATOM      6  C   UNL d   1       4.412   0.500  -1.708  0.00  0.00     0.017 A 
ATOM      7  C   UNL d   1       3.307   0.768  -0.931  0.00  0.00     0.034 A 
ATOM      8  C   UNL d   1       2.883   2.080  -0.824  0.00  0.00     0.046 A 
BRANCH   7   9
ATOM      9  C   UNL d   1       2.598  -0.216  -0.054  0.00  0.00     0.249 C 
ATOM     10  N   UNL d   1       1.214  -0.116  -0.036  0.00  0.00    -0.366 N 
ATOM     11  H   UNL d   1       0.707  -0.691   0.625  0.00  0.00     0.159 HD
ATOM     12  H   UNL d   1       0.680   0.572  -0.551  0.00  0.00     0.159 HD
ATOM     13  O   UNL d   1       3.192  -0.987   0.644  0.00  0.00    -0.268 OA
ENDBRANCH   7   9
ENDBRANCH   1   3
BRANCH   1  14
ATOM     14  C   UNL d   1       1.641   4.829  -0.627  0.00  0.00     0.176 C 
ATOM     15  S   UNL d   1       0.474   3.785   0.054  0.00  0.00    -0.041 SA
BRANCH  14  16
ATOM     16  N   UNL d   1       1.408   6.213  -0.546  0.00  0.00    -0.333 N 
ATOM     17  H   UNL d   1       1.826   6.868  -1.191  0.00  0.00     0.168 HD
BRANCH  16  18
ATOM     18  C   UNL d   1       0.508   6.750   0.414  0.00  0.00     0.037 C 
ATOM     19  C   UNL d   1      -0.655   7.450   0.122  0.00  0.00     0.032 C 
ATOM     20  C   UNL d   1      -1.599   7.611   1.174  0.00  0.00     0.042 C 
ATOM     21  C   UNL d   1      -1.250   7.210   2.484  0.00  0.00     0.105 C 
ATOM     22  C   UNL d   1       0.074   7.081   2.767  0.00  0.00     0.107 C 
ATOM     23  O   UNL d   1      -1.811   6.084   3.203  0.00  0.00    -0.323 OA
ATOM     24  C   UNL d   1       0.826   6.535   1.751  0.00  0.00     0.069 C 
ATOM     25  O   UNL d   1       0.305   6.663   4.053  0.00  0.00    -0.323 OA
ATOM     26  C   UNL d   1      -0.651   5.614   4.000  0.00  0.00     0.352 C 
ENDBRANCH  16  18
ENDBRANCH  14  16
ENDBRANCH   1  14
TORSDOF 5
