REMARK  5 active torsions:
REMARK  status: ('A' for Active; 'I' for Inactive)
REMARK    1  A    between atoms: O_1  and  C_2 
REMARK    2  A    between atoms: C_4  and  N_5 
REMARK    3  A    between atoms: N_5  and  C_6 
REMARK    4  A    between atoms: C_13  and  N_14 
REMARK    5  A    between atoms: N_14  and  C_15 
ROOT
ATOM      1  C   UNL d   1      -0.815   0.025  -0.510  0.00  0.00     0.142 C 
ATOM      2  C   UNL d   1       0.142  -1.132  -0.613  0.00  0.00     0.059 C 
ATOM      3  C   UNL d   1       1.252  -0.792   0.377  0.00  0.00     0.086 C 
ATOM      4  C   UNL d   1       1.274   0.756   0.431  0.00  0.00     0.052 C 
ATOM      5  C   UNL d   1       0.144   1.218  -0.514  0.00  0.00     0.112 C 
ENDROOT
BRANCH   3   6
ATOM      6  N   UNL d   1       2.540  -1.353  -0.018  0.00  0.00    -0.385 N 
ATOM      7  H   UNL d   1       3.332  -0.737  -0.151  0.00  0.00     0.160 HD
BRANCH   6   8
ATOM      8  C   UNL d   1       2.773  -2.712  -0.170  0.00  0.00     0.028 A 
ATOM      9  C   UNL d   1       3.828  -3.330   0.513  0.00  0.00     0.029 A 
ATOM     10  C   UNL d   1       4.128  -4.684   0.296  0.00  0.00     0.002 A 
ATOM     11  C   UNL d   1       3.357  -5.450  -0.569  0.00  0.00     0.000 A 
ATOM     12  C   UNL d   1       2.293  -4.861  -1.239  0.00  0.00     0.002 A 
ATOM     13  C   UNL d   1       2.025  -3.506  -1.040  0.00  0.00     0.029 A 
ENDBRANCH   6   8
ENDBRANCH   3   6
BRANCH   1  14
ATOM     14  O   UNL d   1      -1.550  -0.093   0.707  0.00  0.00    -0.393 OA
ATOM     15  H   UNL d   1      -2.159  -0.845   0.603  0.00  0.00     0.210 HD
ENDBRANCH   1  14
BRANCH   5  16
ATOM     16  N   UNL d   1      -0.400   2.523  -0.132  0.00  0.00    -0.383 N 
ATOM     17  H   UNL d   1      -0.413   2.720   0.865  0.00  0.00     0.160 HD
BRANCH  16  18
ATOM     18  C   UNL d   1      -1.492   3.068  -0.810  0.00  0.00     0.028 A 
ATOM     19  C   UNL d   1      -1.422   4.421  -1.157  0.00  0.00     0.029 A 
ATOM     20  C   UNL d   1      -2.492   5.068  -1.785  0.00  0.00     0.002 A 
ATOM     21  C   UNL d   1      -3.652   4.369  -2.092  0.00  0.00     0.000 A 
ATOM     22  C   UNL d   1      -3.766   3.036  -1.716  0.00  0.00     0.002 A 
ATOM     23  C   UNL d   1      -2.707   2.416  -1.042  0.00  0.00     0.029 A 
ENDBRANCH  16  18
ENDBRANCH   5  16
TORSDOF 5
