@<TRIPOS>MOLECULE
*****
 73 76 0 0 0
SMALL
GASTEIGER

@<TRIPOS>ATOM
      1 C           1.4755   -4.6042    5.0923 C.3     1  UNL1        0.0790
      2 O           1.4470   -5.9527    4.7203 O.3     1  UNL1       -0.4914
      3 C           0.4579   -6.4235    3.9197 C.ar    1  UNL1        0.1622
      4 C           0.0663   -7.6842    4.4182 C.ar    1  UNL1       -0.0163
      5 C          -0.8957   -8.4643    3.8206 C.ar    1  UNL1       -0.0581
      6 C          -1.5210   -7.9785    2.6769 C.ar    1  UNL1       -0.0581
      7 C          -1.1169   -6.7373    2.1299 C.ar    1  UNL1       -0.0156
      8 C          -0.1016   -5.9328    2.7148 C.ar    1  UNL1        0.1717
      9 O           0.1900   -4.7539    2.0140 O.3     1  UNL1       -0.4338
     10 C           1.2629   -3.9357    2.1983 C.ar    1  UNL1        0.2324
     11 C           1.3001   -2.5946    2.6500 C.ar    1  UNL1        0.0813
     12 C           0.1749   -1.6938    3.0718 C.3     1  UNL1        0.0014
     13 N          -1.2198   -2.1399    2.6321 N.4     1  UNL1        0.2427
     14 C          -1.8214   -1.3205    1.5246 C.3     1  UNL1       -0.0025
     15 C          -0.7740   -0.6485    0.6601 C.3     1  UNL1        0.1180
     16 O           0.1373   -1.6276    0.1758 O.3     1  UNL1       -0.3842
     17 C          -1.4817    0.1064   -0.4206 C.3     1  UNL1        0.0793
     18 O          -0.5006    0.8598   -1.1102 O.3     1  UNL1       -0.3714
     19 C          -1.0312    1.6641   -2.1642 C.3     1  UNL1        0.0613
     20 C          -1.7156    0.7564   -3.1894 C.3     1  UNL1       -0.0363
     21 C          -1.9825    2.7195   -1.5887 C.3     1  UNL1       -0.0363
     22 C           0.1592    2.3655   -2.8215 C.3     1  UNL1       -0.0363
     23 C          -2.1657   -2.4052    3.7661 C.3     1  UNL1       -0.0201
     24 C          -3.6308   -2.0569    3.6305 C.3     1  UNL1       -0.0046
     25 C          -3.1924   -3.4874    3.5648 C.3     1  UNL1       -0.0046
     26 C           2.6844   -2.3374    2.9397 C.ar    1  UNL1        0.0723
     27 C           3.3382   -1.1492    3.5901 C.3     1  UNL1       -0.0200
     28 N           3.4224   -3.4178    2.7427 N.ar    1  UNL1       -0.1680
     29 N           2.5939   -4.3785    2.2510 N.ar    1  UNL1       -0.1995
     30 C           3.0749   -5.6877    2.0622 C.ar    1  UNL1        0.0691
     31 C           3.8129   -6.3438    3.0709 C.ar    1  UNL1       -0.0361
     32 C           4.2614   -7.6434    2.8713 C.ar    1  UNL1       -0.0598
     33 C           4.0308   -8.2742    1.6490 C.ar    1  UNL1       -0.0616
     34 C           3.2958   -7.6178    0.6538 C.ar    1  UNL1       -0.0598
     35 C           2.7854   -6.3460    0.8687 C.ar    1  UNL1       -0.0361
     36 H           2.5164   -4.3156    5.2667 H       1  UNL1        0.0660
     37 H           0.8363   -4.3640    5.9336 H       1  UNL1        0.0660
     38 H           1.0647   -3.9995    4.3298 H       1  UNL1        0.0660
     39 H           0.5579   -8.0537    5.3237 H       1  UNL1        0.0655
     40 H          -1.1450   -9.4372    4.2408 H       1  UNL1        0.0619
     41 H          -2.2992   -8.5849    2.2227 H       1  UNL1        0.0619
     42 H          -1.6180   -6.4408    1.2048 H       1  UNL1        0.0655
     43 H           0.3676   -0.6715    2.7471 H       1  UNL1        0.0869
     44 H           0.1507   -1.5794    4.1616 H       1  UNL1        0.0869
     45 H          -1.0265   -3.0574    2.2035 H       1  UNL1        0.2041
     46 H          -2.4151   -2.0287    0.9287 H       1  UNL1        0.0841
     47 H          -2.4769   -0.5584    1.9560 H       1  UNL1        0.0841
     48 H          -0.2132    0.1136    1.2071 H       1  UNL1        0.0670
     49 H          -0.2528   -2.1068   -0.5760 H       1  UNL1        0.2101
     50 H          -2.2070    0.7696    0.0591 H       1  UNL1        0.0588
     51 H          -1.9839   -0.6089   -1.0715 H       1  UNL1        0.0588
     52 H          -2.5817    0.2373   -2.7661 H       1  UNL1        0.0257
     53 H          -1.0213   -0.0262   -3.5217 H       1  UNL1        0.0257
     54 H          -2.0744    1.3190   -4.0507 H       1  UNL1        0.0257
     55 H          -2.8496    2.2720   -1.0928 H       1  UNL1        0.0257
     56 H          -2.3671    3.3774   -2.3694 H       1  UNL1        0.0257
     57 H          -1.4717    3.3212   -0.8259 H       1  UNL1        0.0257
     58 H           0.8888    1.6386   -3.1968 H       1  UNL1        0.0257
     59 H           0.6946    2.9983   -2.1038 H       1  UNL1        0.0257
     60 H          -0.1725    2.9903   -3.6562 H       1  UNL1        0.0257
     61 H          -1.7458   -2.3591    4.7701 H       1  UNL1        0.0851
     62 H          -4.0886   -1.6708    2.7268 H       1  UNL1        0.0322
     63 H          -4.1268   -1.6813    4.5205 H       1  UNL1        0.0322
     64 H          -3.2711   -3.9941    2.6095 H       1  UNL1        0.0322
     65 H          -3.4491   -4.1206    4.4082 H       1  UNL1        0.0322
     66 H           2.6514   -0.3160    3.7666 H       1  UNL1        0.0293
     67 H           4.1649   -0.7784    2.9740 H       1  UNL1        0.0293
     68 H           3.7611   -1.4304    4.5645 H       1  UNL1        0.0293
     69 H           3.9605   -5.8915    4.0521 H       1  UNL1        0.0639
     70 H           4.7944   -8.1730    3.6616 H       1  UNL1        0.0618
     71 H           4.4197   -9.2699    1.4708 H       1  UNL1        0.0618
     72 H           3.1365   -8.1069   -0.3039 H       1  UNL1        0.0618
     73 H           2.2115   -5.8499    0.0903 H       1  UNL1        0.0639
@<TRIPOS>UNITY_ATOM_ATTR
13 1
charge 1
@<TRIPOS>BOND
     1     1     2    1
     2     2     3    1
     3     3     4   ar
     4     4     5   ar
     5     5     6   ar
     6     6     7   ar
     7     7     8   ar
     8     3     8   ar
     9     8     9    1
    10     9    10    1
    11    10    11   ar
    12    11    12    1
    13    14    15    1
    14    15    16    1
    15    15    17    1
    16    17    18    1
    17    18    19    1
    18    19    20    1
    19    19    21    1
    20    19    22    1
    21    13    23    1
    22    23    24    1
    23    24    25    1
    24    23    25    1
    25    11    26   ar
    26    26    27    1
    27    26    28   ar
    28    28    29   ar
    29    10    29   ar
    30    29    30    1
    31    30    31   ar
    32    31    32   ar
    33    32    33   ar
    34    33    34   ar
    35    34    35   ar
    36    30    35   ar
    37    13    14    1
    38    13    12    1
    39     1    36    1
    40     1    37    1
    41     1    38    1
    42     4    39    1
    43     5    40    1
    44     6    41    1
    45     7    42    1
    46    12    43    1
    47    12    44    1
    48    13    45    1
    49    14    46    1
    50    14    47    1
    51    15    48    1
    52    16    49    1
    53    17    50    1
    54    17    51    1
    55    20    52    1
    56    20    53    1
    57    20    54    1
    58    21    55    1
    59    21    56    1
    60    21    57    1
    61    22    58    1
    62    22    59    1
    63    22    60    1
    64    23    61    1
    65    24    62    1
    66    24    63    1
    67    25    64    1
    68    25    65    1
    69    27    66    1
    70    27    67    1
    71    27    68    1
    72    31    69    1
    73    32    70    1
    74    33    71    1
    75    34    72    1
    76    35    73    1
