@<TRIPOS>MOLECULE
*****
 60 62 0 0 0
SMALL
GASTEIGER

@<TRIPOS>ATOM
      1 C           1.0464   -0.0072    0.1463 C.3     1  UNL1       -0.0306
      2 C           2.5728    0.0029    0.1695 C.3     1  UNL1        0.0900
      3 O           3.0821    0.0746    1.5251 O.3     1  UNL1       -0.4614
      4 C           4.4426    0.1527    1.6334 C.2     1  UNL1        0.3392
      5 O           5.2323    0.1450    0.6906 O.2     1  UNL1       -0.2450
      6 C           4.9270    0.2012    3.0546 C.ar    1  UNL1        0.0609
      7 C           6.0214    0.9073    3.4946 C.ar    1  UNL1       -0.0459
      8 C           6.4892    0.7129    4.8216 C.ar    1  UNL1       -0.0381
      9 C           5.8776   -0.1741    5.7719 C.ar    1  UNL1        0.0516
     10 N           6.3883   -0.1768    7.0708 N.pl3   1  UNL1       -0.3183
     11 C           6.8511   -1.3504    7.8078 C.3     1  UNL1        0.0525
     12 C           5.9166   -1.6223    9.0166 C.3     1  UNL1       -0.0158
     13 N           5.6979   -0.3777    9.9060 N.4     1  UNL1        0.2373
     14 C           4.6145   -0.6496   10.9474 C.3     1  UNL1       -0.0347
     15 C           4.5175    0.4649   11.9742 C.3     1  UNL1       -0.0245
     16 C           5.3990    0.8924    9.0508 C.3     1  UNL1       -0.0158
     17 C           6.4071    1.0557    7.8840 C.3     1  UNL1        0.0525
     18 C           4.7722   -0.9373    5.2867 C.ar    1  UNL1        0.0547
     19 N           4.0619   -1.9603    6.0571 N.am    1  UNL1       -0.2951
     20 C           2.9866   -2.8105    5.6466 C.2     1  UNL1        0.1411
     21 S           2.2294   -2.8223    4.1390 S.2     1  UNL1       -0.0182
     22 N           2.5239   -3.7105    6.6367 N.am    1  UNL1       -0.2636
     23 C           1.4744   -4.6272    6.3923 C.2     1  UNL1        0.2495
     24 O           0.8233   -4.7491    5.3573 O.2     1  UNL1       -0.2698
     25 C           0.9585   -5.5281    7.4201 C.ar    1  UNL1        0.0372
     26 C           0.3920   -6.7415    6.9646 C.ar    1  UNL1       -0.0482
     27 C          -0.4654   -7.4675    7.7819 C.ar    1  UNL1       -0.0427
     28 C          -0.6845   -7.0244    9.0804 C.ar    1  UNL1        0.0410
     29 CL         -1.6422   -7.9702   10.1474 Cl      1  UNL1       -0.0835
     30 C          -0.1156   -5.8283    9.5368 C.ar    1  UNL1       -0.0427
     31 C           0.7002   -5.0637    8.7017 C.ar    1  UNL1       -0.0482
     32 C           4.3514   -0.6618    3.9677 C.ar    1  UNL1       -0.0247
     33 H           0.6708   -0.0230   -0.8850 H       1  UNL1        0.0262
     34 H           0.6381    0.8790    0.6419 H       1  UNL1        0.0262
     35 H           0.6444   -0.8838    0.6647 H       1  UNL1        0.0262
     36 H           2.9221    0.8789   -0.3875 H       1  UNL1        0.0695
     37 H           2.9380   -0.9076   -0.3210 H       1  UNL1        0.0695
     38 H           6.5100    1.5985    2.8132 H       1  UNL1        0.0626
     39 H           7.4055    1.2411    5.0886 H       1  UNL1        0.0637
     40 H           7.8553   -1.1374    8.2065 H       1  UNL1        0.0516
     41 H           6.9610   -2.2218    7.1561 H       1  UNL1        0.0516
     42 H           6.3171   -2.4244    9.6449 H       1  UNL1        0.0830
     43 H           4.9164   -1.9098    8.6965 H       1  UNL1        0.0830
     44 H           6.5784   -0.2135   10.4127 H       1  UNL1        0.2034
     45 H           4.8727   -1.5904   11.4483 H       1  UNL1        0.0812
     46 H           3.6665   -0.7809   10.4139 H       1  UNL1        0.0812
     47 H           5.4471    0.5658   12.5421 H       1  UNL1        0.0281
     48 H           3.7124    0.2507   12.6868 H       1  UNL1        0.0281
     49 H           4.2825    1.4279   11.5144 H       1  UNL1        0.0281
     50 H           5.4563    1.7540    9.7219 H       1  UNL1        0.0830
     51 H           4.3807    0.7776    8.6655 H       1  UNL1        0.0830
     52 H           7.4098    1.2011    8.3146 H       1  UNL1        0.0516
     53 H           6.1829    1.9596    7.3068 H       1  UNL1        0.0516
     54 H           4.4817   -2.1359    6.9439 H       1  UNL1        0.1539
     55 H           2.9704   -3.7565    7.5372 H       1  UNL1        0.1568
     56 H           0.5502   -7.0743    5.9353 H       1  UNL1        0.0625
     57 H          -0.9777   -8.3435    7.3896 H       1  UNL1        0.0632
     58 H          -0.3501   -5.4657   10.5327 H       1  UNL1        0.0632
     59 H           1.0406   -4.0871    9.0221 H       1  UNL1        0.0625
     60 H           3.5191   -1.1324    3.5114 H       1  UNL1        0.0645
@<TRIPOS>UNITY_ATOM_ATTR
13 1
charge 1
@<TRIPOS>BOND
     1     1     2    1
     2     2     3    1
     3     3     4    1
     4     4     5    2
     5     4     6    1
     6     6     7   ar
     7     7     8   ar
     8     8     9   ar
     9     9    10    1
    10    10    11    1
    11    11    12    1
    12    12    13    1
    13    13    14    1
    14    14    15    1
    15    13    16    1
    16    16    17    1
    17    10    17    1
    18     9    18   ar
    19    18    19    1
    20    19    20    1
    21    20    21    2
    22    20    22    1
    23    22    23   am
    24    23    24    2
    25    23    25    1
    26    25    26   ar
    27    26    27   ar
    28    27    28   ar
    29    28    29    1
    30    28    30   ar
    31    30    31   ar
    32    25    31   ar
    33    18    32   ar
    34     6    32   ar
    35     1    33    1
    36     1    34    1
    37     1    35    1
    38     2    36    1
    39     2    37    1
    40     7    38    1
    41     8    39    1
    42    11    40    1
    43    11    41    1
    44    12    42    1
    45    12    43    1
    46    13    44    1
    47    14    45    1
    48    14    46    1
    49    15    47    1
    50    15    48    1
    51    15    49    1
    52    16    50    1
    53    16    51    1
    54    17    52    1
    55    17    53    1
    56    19    54    1
    57    22    55    1
    58    26    56    1
    59    27    57    1
    60    30    58    1
    61    31    59    1
    62    32    60    1
