REMARK  12 active torsions:
REMARK  status: ('A' for Active; 'I' for Inactive)
REMARK    1  A    between atoms: O_2  and  C_3 
REMARK    2  A    between atoms: C_5  and  C_6 
REMARK    3  A    between atoms: C_6  and  C_7 
REMARK    4  A    between atoms: C_6  and  N_18 
REMARK       I    between atoms: C_7  and  N_9 
REMARK    5  A    between atoms: N_9  and  C_10 
REMARK    6  A    between atoms: C_10  and  C_13 
REMARK    7  A    between atoms: C_13  and  C_14 
REMARK       I    between atoms: N_18  and  C_19 
REMARK    8  A    between atoms: N_18  and  C_29 
REMARK    9  A    between atoms: C_19  and  C_21 
REMARK   10  A    between atoms: C_22  and  O_23 
REMARK   11  A    between atoms: C_27  and  O_28 
REMARK   12  A    between atoms: C_35  and  O_36 
ROOT
ATOM      1  C   UNL d   1       6.616   2.028  -0.010  0.00  0.00     0.213 C 
ENDROOT
BRANCH   1   2
ATOM      2  C   UNL d   1       5.142   1.776  -0.210  0.00  0.00    -0.023 C 
ATOM      3  C   UNL d   1       4.382   0.638   0.131  0.00  0.00     0.049 C 
ATOM      4  C   UNL d   1       2.993   0.614  -0.081  0.00  0.00     0.101 C 
ATOM      5  C   UNL d   1       2.386   1.771  -0.503  0.00  0.00     0.099 C 
ATOM      6  C   UNL d   1       3.186   2.719  -1.071  0.00  0.00     0.040 C 
ATOM      7  C   UNL d   1       4.553   2.656  -1.071  0.00  0.00     0.012 C 
BRANCH   4   8
ATOM      8  O   UNL d   1       2.324  -0.539   0.213  0.00  0.00    -0.353 OA
ATOM      9  C   UNL d   1       0.903  -0.433   0.081  0.00  0.00     0.210 C 
ENDBRANCH   4   8
BRANCH   5  10
ATOM     10  O   UNL d   1       1.058   1.994  -0.288  0.00  0.00    -0.358 OA
ATOM     11  H   UNL d   1       0.791   2.899  -0.101  0.00  0.00     0.217 HD
ENDBRANCH   5  10
ENDBRANCH   1   2
BRANCH   1  12
ATOM     12  C   UNL d   1       7.103   1.340  -1.283  0.00  0.00     0.245 C 
ATOM     13  O   UNL d   1       7.495   2.040  -2.247  0.00  0.00    -0.271 OA
ATOM     14  N   UNL d   1       6.893  -0.020  -1.427  0.00  0.00    -0.351 N 
ATOM     15  H   UNL d   1       6.318  -0.534  -0.772  0.00  0.00     0.163 HD
BRANCH  14  16
ATOM     16  C   UNL d   1       7.256  -0.671  -2.679  0.00  0.00     0.026 C 
ATOM     17  C   UNL d   1       6.671   0.128  -3.868  0.00  0.00     0.038 C 
ATOM     18  C   UNL d   1       8.787  -0.648  -2.629  0.00  0.00     0.038 C 
BRANCH  16  19
ATOM     19  C   UNL d   1       6.687  -2.137  -2.716  0.00  0.00     0.038 C 
BRANCH  19  20
ATOM     20  C   UNL d   1       7.064  -3.034  -3.949  0.00  0.00    -0.049 C 
ATOM     21  C   UNL d   1       6.544  -2.479  -5.284  0.00  0.00     0.014 C 
ATOM     22  C   UNL d   1       8.575  -3.279  -4.048  0.00  0.00     0.014 C 
ATOM     23  C   UNL d   1       6.422  -4.421  -3.804  0.00  0.00     0.014 C 
ENDBRANCH  19  20
ENDBRANCH  16  19
ENDBRANCH  14  16
ENDBRANCH   1  12
BRANCH   1  24
ATOM     24  N   UNL d   1       7.120   3.571   0.100  0.00  0.00    -0.322 N 
ATOM     25  C   UNL d   1       6.309   4.825   0.217  0.00  0.00     0.261 C 
ATOM     26  O   UNL d   1       6.800   5.954   0.099  0.00  0.00    -0.267 OA
BRANCH  25  27
ATOM     27  C   UNL d   1       4.822   4.967   0.491  0.00  0.00     0.098 A 
ATOM     28  C   UNL d   1       4.157   4.231   1.481  0.00  0.00     0.084 A 
ATOM     29  C   UNL d   1       2.743   4.186   1.505  0.00  0.00     0.038 A 
ATOM     30  C   UNL d   1       1.962   4.936   0.590  0.00  0.00     0.005 A 
ATOM     31  C   UNL d   1       2.596   5.700  -0.399  0.00  0.00     0.038 A 
ATOM     32  C   UNL d   1       4.011   5.721  -0.439  0.00  0.00     0.084 A 
BRANCH  28  33
ATOM     33  O   UNL d   1       4.800   3.324   2.288  0.00  0.00    -0.360 OA
ATOM     34  H   UNL d   1       5.721   3.240   1.982  0.00  0.00     0.217 HD
ENDBRANCH  28  33
BRANCH  32  35
ATOM     35  O   UNL d   1       4.592   6.196  -1.599  0.00  0.00    -0.360 OA
ATOM     36  H   UNL d   1       3.944   6.598  -2.202  0.00  0.00     0.217 HD
ENDBRANCH  32  35
ENDBRANCH  25  27
BRANCH  24  37
ATOM     37  C   UNL d   1       8.696   3.752   0.013  0.00  0.00     0.026 C 
ATOM     38  C   UNL d   1       9.331   3.081   1.243  0.00  0.00     0.037 C 
ATOM     39  C   UNL d   1       9.436   3.137  -1.209  0.00  0.00     0.037 C 
ATOM     40  C   UNL d   1       9.178   5.215  -0.036  0.00  0.00     0.037 C 
ENDBRANCH  24  37
ENDBRANCH   1  24
TORSDOF 12
