REMARK  6 active torsions:
REMARK  status: ('A' for Active; 'I' for Inactive)
REMARK    1  A    between atoms: C_11  and  C_12 
REMARK       I    between atoms: C_12  and  N_14 
REMARK    2  A    between atoms: N_14  and  C_15 
REMARK    3  A    between atoms: C_15  and  C_16 
REMARK    4  A    between atoms: C_22  and  N_23 
REMARK    5  A    between atoms: N_24  and  C_25 
REMARK    6  A    between atoms: C_25  and  C_26 
ROOT
ATOM      1  C   UNL d   1       0.979   0.091   0.033  0.00  0.00     0.052 C 
ATOM      2  C   UNL d   1       2.471   0.132   0.034  0.00  0.00    -0.015 A 
ATOM      3  C   UNL d   1       3.153   1.290   0.032  0.00  0.00     0.012 A 
ATOM      4  C   UNL d   1       4.587   1.314   0.033  0.00  0.00     0.018 A 
ATOM      5  C   UNL d   1       5.265   0.165   0.034  0.00  0.00     0.102 A 
ATOM      6  N   UNL d   1       4.623  -1.072   0.036  0.00  0.00    -0.272 N 
ATOM      7  C   UNL d   1       5.412  -2.207   0.042  0.00  0.00     0.267 A 
ATOM      8  O   UNL d   1       6.649  -2.223   0.038  0.00  0.00    -0.267 OA
ATOM      9  C   UNL d   1       4.718  -3.497   0.055  0.00  0.00     0.080 A 
ATOM     10  C   UNL d   1       5.458  -4.673   0.073  0.00  0.00     0.042 C 
ATOM     11  C   UNL d   1       4.780  -5.876   0.042  0.00  0.00     0.076 C 
ATOM     12  C   UNL d   1       3.367  -5.877  -0.068  0.00  0.00     0.118 C 
ATOM     13  N   UNL d   1       2.647  -4.707   0.024  0.00  0.00    -0.312 N 
ATOM     14  C   UNL d   1       3.323  -3.507   0.055  0.00  0.00     0.149 A 
ATOM     15  N   UNL d   1       2.585  -2.313   0.051  0.00  0.00    -0.211 NA
ATOM     16  C   UNL d   1       3.226  -1.173   0.040  0.00  0.00     0.145 A 
ENDROOT
BRANCH  11  17
ATOM     17  C   UNL d   1       5.465  -7.224   0.079  0.00  0.00     0.255 C 
ATOM     18  O   UNL d   1       4.824  -8.267   0.166  0.00  0.00    -0.268 OA
ATOM     19  N   UNL d   1       6.820  -7.248   0.053  0.00  0.00    -0.353 N 
ATOM     20  H   UNL d   1       7.332  -6.400  -0.073  0.00  0.00     0.163 HD
BRANCH  19  21
ATOM     21  C   UNL d   1       7.551  -8.502   0.070  0.00  0.00     0.161 C 
BRANCH  21  22
ATOM     22  C   UNL d   1       9.044  -8.301   0.059  0.00  0.00    -0.041 C 
ATOM     23  C   UNL d   1       9.636  -7.027   0.101  0.00  0.00     0.009 C 
ATOM     24  C   UNL d   1      10.992  -6.856  -0.130  0.00  0.00     0.001 C 
ATOM     25  C   UNL d   1      11.812  -7.967  -0.236  0.00  0.00     0.000 C 
ATOM     26  C   UNL d   1      11.271  -9.245  -0.110  0.00  0.00     0.001 C 
ATOM     27  C   UNL d   1       9.887  -9.416  -0.025  0.00  0.00     0.009 C 
ENDBRANCH  21  22
ENDBRANCH  19  21
ENDBRANCH  11  17
BRANCH  12  28
ATOM     28  N   UNL d   1       2.824  -7.084  -0.481  0.00  0.00    -0.384 N 
ATOM     29  H   UNL d   1       3.252  -7.905  -0.018  0.00  0.00     0.157 HD
ATOM     30  H   UNL d   1       1.869  -7.272  -0.691  0.00  0.00     0.157 HD
ENDBRANCH  12  28
BRANCH  13  31
ATOM     31  C   UNL d   1       1.117  -4.657   0.092  0.00  0.00     0.171 C 
BRANCH  31  32
ATOM     32  C   UNL d   1       0.384  -5.998   0.202  0.00  0.00    -0.040 C 
ATOM     33  C   UNL d   1       0.666  -6.885   1.269  0.00  0.00     0.012 C 
ATOM     34  C   UNL d   1       0.469  -8.267   1.091  0.00  0.00     0.043 C 
ATOM     35  C   UNL d   1      -0.200  -8.736  -0.035  0.00  0.00     0.116 C 
ATOM     36  F   UNL d   1      -0.288 -10.054  -0.253  0.00  0.00    -0.206 F 
ATOM     37  C   UNL d   1      -0.682  -7.849  -0.991  0.00  0.00     0.043 C 
ATOM     38  C   UNL d   1      -0.350  -6.489  -0.904  0.00  0.00     0.012 C 
ENDBRANCH  31  32
ENDBRANCH  13  31
TORSDOF 6
