REMARK  3 active torsions:
REMARK  status: ('A' for Active; 'I' for Inactive)
REMARK    1  A    between atoms: C_5  and  O_6 
REMARK    2  A    between atoms: C_7  and  N_8 
REMARK       I    between atoms: N_8  and  C_9 
REMARK    3  A    between atoms: C_9  and  C_11 
ROOT
ATOM      1  N   UNL d   1      -1.190  -2.571  -0.102  0.00  0.00    -0.321 N 
ATOM      2  C   UNL d   1      -0.520  -3.791  -0.113  0.00  0.00     0.256 C 
ATOM      3  O   UNL d   1       0.700  -3.969  -0.086  0.00  0.00    -0.267 OA
ATOM      4  H   UNL d   1      -2.205  -2.543  -0.091  0.00  0.00     0.169 HD
ENDROOT
BRANCH   1   5
ATOM      5  C   UNL d   1      -0.554  -1.293  -0.055  0.00  0.00     0.069 A 
ATOM      6  C   UNL d   1      -1.300  -0.103  -0.033  0.00  0.00     0.092 A 
ATOM      7  C   UNL d   1      -0.663   1.150  -0.037  0.00  0.00     0.039 A 
ATOM      8  C   UNL d   1       0.732   1.230  -0.029  0.00  0.00     0.009 A 
ATOM      9  C   UNL d   1       1.490   0.065  -0.003  0.00  0.00    -0.060 A 
ATOM     10  C   UNL d   1       2.987   0.068   0.070  0.00  0.00     0.048 C 
ATOM     11  C   UNL d   1       0.838  -1.173  -0.030  0.00  0.00     0.039 A 
BRANCH   6  12
ATOM     12  O   UNL d   1      -2.671  -0.157   0.001  0.00  0.00    -0.358 OA
ATOM     13  H   UNL d   1      -3.003   0.756   0.082  0.00  0.00     0.217 HD
ENDBRANCH   6  12
ENDBRANCH   1   5
BRANCH   2  14
ATOM     14  C   UNL d   1      -1.308  -5.040  -0.146  0.00  0.00     0.034 A 
ATOM     15  C   UNL d   1      -2.362  -5.222  -1.042  0.00  0.00     0.017 A 
ATOM     16  C   UNL d   1      -2.992  -6.469  -1.117  0.00  0.00     0.003 A 
ATOM     17  C   UNL d   1      -2.575  -7.524  -0.298  0.00  0.00     0.024 A 
ATOM     18  C   UNL d   1      -1.513  -7.341   0.583  0.00  0.00     0.035 A 
ATOM     19 CL   UNL d   1      -1.004  -8.639   1.591  0.00  0.00    -0.084 Cl
ATOM     20  C   UNL d   1      -0.865  -6.112   0.649  0.00  0.00     0.041 A 
ENDBRANCH   2  14
TORSDOF 3
