REMARK  9 active torsions:
REMARK  status: ('A' for Active; 'I' for Inactive)
REMARK    1  A    between atoms: O_2  and  C_3 
REMARK    2  A    between atoms: C_3  and  C_5 
REMARK    3  A    between atoms: C_8  and  N_9 
REMARK    4  A    between atoms: N_9  and  C_10 
REMARK    5  A    between atoms: C_10  and  C_11 
REMARK       I    between atoms: C_11  and  N_13 
REMARK    6  A    between atoms: N_13  and  C_14 
REMARK    7  A    between atoms: C_18  and  C_19 
REMARK       I    between atoms: C_19  and  N_21 
REMARK    8  A    between atoms: N_21  and  C_22 
REMARK    9  A    between atoms: C_22  and  C_24 
ROOT
ATOM      1  C   UNL d   1      13.388  -0.179   1.414  0.00  0.00     0.035 A 
ATOM      2  C   UNL d   1      14.252  -0.168   2.512  0.00  0.00     0.029 A 
ATOM      3  C   UNL d   1      15.638  -0.176   2.309  0.00  0.00     0.003 A 
ATOM      4  C   UNL d   1      16.159  -0.205   1.012  0.00  0.00     0.017 A 
ATOM      5  C   UNL d   1      15.300  -0.182  -0.096  0.00  0.00     0.034 A 
ATOM      6  C   UNL d   1      13.922  -0.186   0.122  0.00  0.00     0.046 A 
ENDROOT
BRANCH   1   7
ATOM      7  N   UNL d   1      11.983  -0.120   1.586  0.00  0.00    -0.326 N 
ATOM      8  C   UNL d   1      11.101  -0.819   0.758  0.00  0.00     0.239 C 
ATOM      9  O   UNL d   1      11.463  -1.590  -0.136  0.00  0.00    -0.271 OA
ATOM     10  H   UNL d   1      11.637   0.355   2.412  0.00  0.00     0.169 HD
BRANCH   8  11
ATOM     11  C   UNL d   1       9.603  -0.595   1.036  0.00  0.00     0.223 C 
BRANCH  11  12
ATOM     12  N   UNL d   1       8.788  -1.509   0.219  0.00  0.00    -0.381 N 
ATOM     13  H   UNL d   1       9.307  -1.981  -0.524  0.00  0.00     0.160 HD
BRANCH  12  14
ATOM     14  C   UNL d   1       7.411  -1.409   0.100  0.00  0.00     0.028 A 
ATOM     15  C   UNL d   1       6.716  -2.205  -0.823  0.00  0.00     0.030 A 
ATOM     16  C   UNL d   1       5.317  -2.117  -0.964  0.00  0.00     0.020 A 
ATOM     17  C   UNL d   1       4.571  -1.286  -0.121  0.00  0.00     0.039 A 
ATOM     18  C   UNL d   1       5.243  -0.522   0.833  0.00  0.00     0.020 A 
ATOM     19  C   UNL d   1       6.642  -0.595   0.940  0.00  0.00     0.030 A 
BRANCH  17  20
ATOM     20  C   UNL d   1       3.087  -1.346  -0.148  0.00  0.00     0.292 C 
ATOM     21  O   UNL d   1       2.473  -2.399  -0.316  0.00  0.00    -0.259 OA
BRANCH  20  22
ATOM     22  O   UNL d   1       2.525  -0.125   0.032  0.00  0.00    -0.323 OA
ATOM     23  C   UNL d   1       1.089  -0.132   0.018  0.00  0.00     0.213 C 
ENDBRANCH  20  22
ENDBRANCH  17  20
ENDBRANCH  12  14
ENDBRANCH  11  12
ENDBRANCH   8  11
ENDBRANCH   1   7
BRANCH   5  24
ATOM     24  C   UNL d   1      15.887  -0.090  -1.465  0.00  0.00     0.252 C 
ATOM     25  O   UNL d   1      17.108  -0.037  -1.581  0.00  0.00    -0.268 OA
ATOM     26  N   UNL d   1      15.027  -0.053  -2.549  0.00  0.00    -0.349 N 
ATOM     27  H   UNL d   1      14.026  -0.071  -2.433  0.00  0.00     0.163 HD
BRANCH  26  28
ATOM     28  C   UNL d   1      15.508  -0.002  -3.924  0.00  0.00     0.114 C 
ATOM     29  C   UNL d   1      16.386  -1.219  -4.237  0.00  0.00     0.037 C 
BRANCH  28  30
ATOM     30  C   UNL d   1      14.319   0.079  -4.879  0.00  0.00    -0.036 A 
ATOM     31  C   UNL d   1      13.804   1.316  -5.297  0.00  0.00     0.009 A 
ATOM     32  C   UNL d   1      12.638   1.373  -6.071  0.00  0.00     0.001 A 
ATOM     33  C   UNL d   1      12.019   0.201  -6.505  0.00  0.00     0.000 A 
ATOM     34  C   UNL d   1      12.538  -1.031  -6.132  0.00  0.00     0.001 A 
ATOM     35  C   UNL d   1      13.662  -1.088  -5.313  0.00  0.00     0.009 A 
ENDBRANCH  28  30
ENDBRANCH  26  28
ENDBRANCH   5  24
TORSDOF 9
