REMARK  8 active torsions:
REMARK  status: ('A' for Active; 'I' for Inactive)
REMARK    1  A    between atoms: C_2  and  C_27 
REMARK    2  A    between atoms: N_3  and  N_4 
REMARK       I    between atoms: N_4  and  C_5 
REMARK    3  A    between atoms: C_5  and  C_7 
REMARK    4  A    between atoms: C_9  and  C_10 
REMARK    5  A    between atoms: C_13  and  O_14 
REMARK    6  A    between atoms: O_14  and  C_15 
REMARK    7  A    between atoms: C_15  and  C_16 
REMARK    8  A    between atoms: C_32  and  O_33 
ROOT
ATOM      1  C   UNL d   1       2.370   3.862  -2.968  0.00  0.00     0.121 A 
ATOM      2  C   UNL d   1       1.245   4.548  -2.548  0.00  0.00     0.071 A 
ATOM      3  C   UNL d   1       0.918   5.463  -3.583  0.00  0.00     0.089 A 
ATOM      4  N   UNL d   1       1.754   5.315  -4.620  0.00  0.00    -0.174 NA
ATOM      5  N   UNL d   1       2.643   4.385  -4.207  0.00  0.00    -0.272 N 
ATOM      6  H   UNL d   1       3.411   4.142  -4.827  0.00  0.00     0.189 HD
ENDROOT
BRANCH   1   7
ATOM      7  C   UNL d   1       3.193   2.883  -2.288  0.00  0.00     0.289 C 
ATOM      8  N   UNL d   1       2.481   2.002  -1.480  0.00  0.00    -0.241 N 
ATOM      9  H   UNL d   1       1.473   2.015  -1.542  0.00  0.00     0.192 HD
ATOM     10  O   UNL d   1       4.417   2.859  -2.444  0.00  0.00    -0.264 OA
BRANCH   8  11
ATOM     11  N   UNL d   1       3.111   1.042  -0.723  0.00  0.00    -0.176 NA
ATOM     12  C   UNL d   1       2.421   0.162  -0.041  0.00  0.00     0.064 C 
ATOM     13  C   UNL d   1       0.906   0.104   0.026  0.00  0.00     0.073 C 
BRANCH  12  14
ATOM     14  C   UNL d   1       3.186  -0.881   0.749  0.00  0.00     0.023 A 
ATOM     15  C   UNL d   1       4.387  -0.499   1.369  0.00  0.00     0.016 A 
ATOM     16  C   UNL d   1       5.241  -1.460   1.927  0.00  0.00     0.001 A 
ATOM     17  C   UNL d   1       4.875  -2.804   1.935  0.00  0.00     0.003 A 
ATOM     18  C   UNL d   1       3.656  -3.191   1.384  0.00  0.00     0.037 A 
ATOM     19  C   UNL d   1       2.815  -2.235   0.798  0.00  0.00     0.077 A 
BRANCH  19  20
ATOM     20  O   UNL d   1       1.642  -2.665   0.244  0.00  0.00    -0.360 OA
ATOM     21  H   UNL d   1       1.530  -3.616   0.404  0.00  0.00     0.217 HD
ENDBRANCH  19  20
ENDBRANCH  12  14
ENDBRANCH   8  11
ENDBRANCH   1   7
BRANCH   3  22
ATOM     22  C   UNL d   1      -0.120   6.491  -3.540  0.00  0.00    -0.005 A 
ATOM     23  C   UNL d   1      -1.127   6.568  -4.506  0.00  0.00     0.016 A 
ATOM     24  C   UNL d   1      -2.075   7.602  -4.457  0.00  0.00     0.037 A 
ATOM     25  C   UNL d   1      -2.066   8.533  -3.413  0.00  0.00     0.069 A 
ATOM     26  C   UNL d   1      -1.075   8.443  -2.437  0.00  0.00     0.037 A 
ATOM     27  C   UNL d   1      -0.108   7.433  -2.502  0.00  0.00     0.016 A 
BRANCH  25  28
ATOM     28  O   UNL d   1      -3.057   9.478  -3.451  0.00  0.00    -0.347 OA
BRANCH  28  29
ATOM     29  C   UNL d   1      -3.178  10.312  -2.297  0.00  0.00     0.216 C 
BRANCH  29  30
ATOM     30  C   UNL d   1      -4.436  11.142  -2.370  0.00  0.00    -0.012 A 
ATOM     31  C   UNL d   1      -4.339  12.546  -2.391  0.00  0.00     0.011 A 
ATOM     32  C   UNL d   1      -5.484  13.341  -2.315  0.00  0.00     0.001 A 
ATOM     33  C   UNL d   1      -6.743  12.749  -2.291  0.00  0.00     0.002 A 
ATOM     34  C   UNL d   1      -6.857  11.359  -2.304  0.00  0.00     0.024 A 
ATOM     35  C   UNL d   1      -5.713  10.559  -2.333  0.00  0.00     0.042 A 
ATOM     36 CL   UNL d   1      -5.937   8.845  -2.296  0.00  0.00    -0.084 Cl
ENDBRANCH  29  30
ENDBRANCH  28  29
ENDBRANCH  25  28
ENDBRANCH   3  22
TORSDOF 8
