REMARK  11 active torsions:
REMARK  status: ('A' for Active; 'I' for Inactive)
REMARK    1  A    between atoms: C_2  and  C_3 
REMARK    2  A    between atoms: C_3  and  N_4 
REMARK    3  A    between atoms: C_5  and  S_6 
REMARK    4  A    between atoms: S_6  and  C_7 
REMARK    5  A    between atoms: C_7  and  C_8 
REMARK       I    between atoms: C_8  and  N_10 
REMARK    6  A    between atoms: N_10  and  C_11 
REMARK    7  A    between atoms: C_21  and  CA_22 
REMARK    8  A    between atoms: CA_22  and  C_23 
REMARK    9  A    between atoms: CA_22  and  N_25 
REMARK   10  A    between atoms: C_23  and  O_24 
REMARK       I    between atoms: N_25  and  C_26 
REMARK   11  A    between atoms: C_26  and  C_28 
ROOT
ATOM      1  N   UNL d   1       4.545  -0.770   0.466  0.00  0.00    -0.306 N 
ATOM      2  C   UNL d   1       5.275   0.401   0.434  0.00  0.00     0.192 A 
ATOM      3  N   UNL d   1       6.542   0.076   0.272  0.00  0.00    -0.122 NA
ATOM      4  N   UNL d   1       6.659  -1.289   0.230  0.00  0.00    -0.132 NA
ATOM      5  C   UNL d   1       5.466  -1.830   0.405  0.00  0.00     0.156 A 
ENDROOT
BRANCH   2   6
ATOM      6  S   UNL d   1       4.829   2.095   0.531  0.00  0.00    -0.081 SA
BRANCH   6   7
ATOM      7  C   UNL d   1       3.060   2.401   0.763  0.00  0.00     0.185 C 
BRANCH   7   8
ATOM      8  C   UNL d   1       2.674   3.868   0.934  0.00  0.00     0.231 C 
ATOM      9  O   UNL d   1       3.512   4.746   1.108  0.00  0.00    -0.272 OA
ATOM     10  N   UNL d   1       1.284   4.110   0.877  0.00  0.00    -0.326 N 
ATOM     11  H   UNL d   1       0.653   3.361   1.142  0.00  0.00     0.169 HD
BRANCH  10  12
ATOM     12  C   UNL d   1       0.747   5.432   0.894  0.00  0.00     0.040 A 
ATOM     13  C   UNL d   1      -0.268   5.758   1.814  0.00  0.00     0.032 A 
ATOM     14  C   UNL d   1      -0.772   7.069   1.891  0.00  0.00     0.026 A 
ATOM     15  C   UNL d   1      -0.315   8.041   1.008  0.00  0.00     0.034 A 
ATOM     16 CL   UNL d   1      -0.922   9.650   1.086  0.00  0.00    -0.084 Cl
ATOM     17  C   UNL d   1       0.639   7.715   0.052  0.00  0.00     0.032 A 
ATOM     18  C   UNL d   1       1.184   6.418  -0.014  0.00  0.00    -0.034 A 
ATOM     19  C   UNL d   1       2.181   6.145  -1.105  0.00  0.00     0.050 C 
ENDBRANCH  10  12
ENDBRANCH   7   8
ENDBRANCH   6   7
ENDBRANCH   2   6
BRANCH   1  20
ATOM     20  C   UNL d   1       3.119  -0.976   0.561  0.00  0.00     0.159 C 
BRANCH  20  21
ATOM     21  C   UNL d   1       2.240  -0.120  -0.252  0.00  0.00    -0.017 C 
ATOM     22  C   UNL d   1       0.912  -0.065  -0.108  0.00  0.00     0.008 C 
ENDBRANCH  20  21
ENDBRANCH   1  20
BRANCH   5  23
ATOM     23  CA  UNL d   1       5.245  -3.361   0.492  0.00  0.00     0.180 C 
BRANCH  23  24
ATOM     24  C   UNL d   1       6.072  -3.967   1.656  0.00  0.00     0.197 C 
BRANCH  24  25
ATOM     25  O   UNL d   1       7.481  -3.824   1.530  0.00  0.00    -0.398 OA
ATOM     26  H   UNL d   1       7.739  -4.127   0.643  0.00  0.00     0.209 HD
ENDBRANCH  24  25
ENDBRANCH  23  24
BRANCH  23  27
ATOM     27  N   UNL d   1       3.830  -3.751   0.641  0.00  0.00    -0.343 N 
ATOM     28  C   UNL d   1       3.365  -5.042   0.643  0.00  0.00     0.252 C 
ATOM     29  O   UNL d   1       4.077  -6.038   0.545  0.00  0.00    -0.268 OA
ATOM     30  H   UNL d   1       3.259  -3.180   1.238  0.00  0.00     0.163 HD
BRANCH  28  31
ATOM     31  C   UNL d   1       1.891  -5.183   0.836  0.00  0.00     0.032 A 
ATOM     32  C   UNL d   1       1.401  -6.168   1.700  0.00  0.00     0.017 A 
ATOM     33  C   UNL d   1       0.034  -6.461   1.720  0.00  0.00     0.001 A 
ATOM     34  C   UNL d   1      -0.855  -5.720   0.941  0.00  0.00     0.000 A 
ATOM     35  C   UNL d   1      -0.377  -4.699   0.119  0.00  0.00     0.001 A 
ATOM     36  C   UNL d   1       0.995  -4.430   0.062  0.00  0.00     0.017 A 
ENDBRANCH  28  31
ENDBRANCH  23  27
ENDBRANCH   5  23
TORSDOF 11
