REMARK  6 active torsions:
REMARK  status: ('A' for Active; 'I' for Inactive)
REMARK    1  A    between atoms: O_2  and  C_3 
REMARK    2  A    between atoms: C_9  and  N_10 
REMARK    3  A    between atoms: C_11  and  N_10 
REMARK    4  A    between atoms: C_11  and  C_13 
REMARK       I    between atoms: C_13  and  N_15 
REMARK       I    between atoms: N_15  and  C_16 
REMARK       I    between atoms: C_16  and  N_18 
REMARK    5  A    between atoms: N_18  and  C_19 
REMARK    6  A    between atoms: C_19  and  C_20 
ROOT
ATOM      1  C   UNL d   1       4.681  -2.840   2.069  0.00  0.00     0.247 C 
ATOM      2  O   UNL d   1       5.638  -3.513   1.677  0.00  0.00    -0.271 OA
ATOM      3  N   UNL d   1       4.205  -2.927   3.371  0.00  0.00    -0.278 N 
ATOM      4  C   UNL d   1       4.853  -3.751   4.281  0.00  0.00     0.323 C 
ATOM      5  O   UNL d   1       5.824  -4.445   4.027  0.00  0.00    -0.247 OA
ATOM      6  N   UNL d   1       4.296  -3.803   5.549  0.00  0.00    -0.339 N 
ATOM      7  H   UNL d   1       3.414  -2.378   3.654  0.00  0.00     0.173 HD
ATOM      8  H   UNL d   1       3.396  -3.401   5.747  0.00  0.00     0.164 HD
ENDROOT
BRANCH   1   9
ATOM      9  C   UNL d   1       4.031  -1.816   1.081  0.00  0.00     0.170 C 
ATOM     10  C   UNL d   1       5.017  -1.773  -0.102  0.00  0.00     0.042 C 
BRANCH   9  11
ATOM     11  N   UNL d   1       2.642  -2.193   0.686  0.00  0.00    -0.375 N 
ATOM     12  H   UNL d   1       2.008  -2.474   1.431  0.00  0.00     0.160 HD
BRANCH  11  13
ATOM     13  C   UNL d   1       1.969  -1.940  -0.517  0.00  0.00     0.063 A 
ATOM     14  C   UNL d   1       2.580  -1.401  -1.655  0.00  0.00     0.038 A 
ATOM     15  C   UNL d   1       2.003  -1.254  -2.918  0.00  0.00    -0.060 A 
ATOM     16  C   UNL d   1       0.686  -1.625  -3.070  0.00  0.00     0.009 A 
ATOM     17  C   UNL d   1       2.877  -0.720  -4.017  0.00  0.00     0.048 C 
ATOM     18  C   UNL d   1      -0.004  -2.146  -1.968  0.00  0.00     0.039 A 
ATOM     19  C   UNL d   1       0.629  -2.335  -0.715  0.00  0.00     0.094 A 
BRANCH  19  20
ATOM     20  O   UNL d   1      -0.052  -2.834   0.377  0.00  0.00    -0.354 OA
ATOM     21  C   UNL d   1      -0.886  -3.956   0.082  0.00  0.00     0.210 C 
ENDBRANCH  19  20
ENDBRANCH  11  13
ENDBRANCH   9  11
ENDBRANCH   1   9
BRANCH   6  22
ATOM     22  C   UNL d   1       4.769  -4.857   6.468  0.00  0.00     0.162 C 
BRANCH  22  23
ATOM     23  C   UNL d   1       4.250  -6.250   6.137  0.00  0.00    -0.040 A 
ATOM     24  C   UNL d   1       4.566  -7.362   6.939  0.00  0.00     0.009 A 
ATOM     25  C   UNL d   1       4.132  -8.647   6.576  0.00  0.00     0.001 A 
ATOM     26  C   UNL d   1       3.394  -8.841   5.409  0.00  0.00     0.000 A 
ATOM     27  C   UNL d   1       3.075  -7.754   4.611  0.00  0.00     0.001 A 
ATOM     28  C   UNL d   1       3.489  -6.480   4.981  0.00  0.00     0.009 A 
ENDBRANCH  22  23
ENDBRANCH   6  22
TORSDOF 6
