@<TRIPOS>MOLECULE
*****
 54 56 0 0 0
SMALL
GASTEIGER

@<TRIPOS>ATOM
      1 N           1.2272    0.6142    0.0683 N.am    1  UNL1       -0.3240
      2 C           3.0771    0.4269   -0.1501 C.2     1  UNL1        0.2624
      3 O           3.8145    1.0383   -0.9521 O.2     1  UNL1       -0.2687
      4 C           3.8890   -0.9650    0.7274 C.ar    1  UNL1        0.1554
      5 N           4.8813   -0.7894    1.6305 N.ar    1  UNL1       -0.2031
      6 S           5.0589   -2.1992    2.5931 S.2     1  UNL1        0.0190
      7 C           3.8468   -3.1907    1.8563 C.ar    1  UNL1        0.1156
      8 C           3.7082   -4.7533    1.9996 C.2     1  UNL1        0.2612
      9 O           4.2937   -5.3372    2.9273 O.2     1  UNL1       -0.2689
     10 N           2.9688   -5.6514    0.9062 N.am    1  UNL1       -0.2581
     11 C           1.8520   -5.1102   -0.3592 C.3     1  UNL1        0.0964
     12 C           2.2658   -3.7634   -0.6212 C.2     1  UNL1        0.2311
     13 O           2.1766   -3.8649    0.6067 O.2     1  UNL1       -0.2741
     14 N           1.7640   -2.5896   -1.2020 N.am    1  UNL1       -0.3112
     15 C           1.8953   -1.0373   -0.6278 C.3     1  UNL1        0.0232
     16 C           1.0992    0.2595   -1.8581 C.3     1  UNL1       -0.0345
     17 C           1.6136    2.0359   -1.4202 C.3     1  UNL1       -0.0514
     18 C           1.8900    2.5639    0.3803 C.3     1  UNL1       -0.0529
     19 C           2.6043    1.4917    1.5634 C.3     1  UNL1       -0.0514
     20 C           1.9726   -0.3166    1.3876 C.3     1  UNL1       -0.0345
     21 C           2.4655   -6.9105    1.2336 C.ar    1  UNL1        0.0376
     22 C           2.1275   -7.6747    0.1138 C.ar    1  UNL1       -0.0402
     23 C           1.5948   -8.9207    0.2405 C.ar    1  UNL1       -0.0595
     24 C           1.5263   -9.4512    1.5109 C.ar    1  UNL1       -0.0500
     25 C           1.7648   -8.6550    2.6485 C.ar    1  UNL1        0.0566
     26 C           1.5657   -9.2124    4.0154 C.3     1  UNL1        0.4175
     27 F           0.2972   -9.6708    4.1845 F       1  UNL1       -0.1659
     28 F           2.3969  -10.2565    4.2618 F       1  UNL1       -0.1659
     29 F           1.7750   -8.3051    5.0065 F       1  UNL1       -0.1659
     30 C           2.1958   -7.3445    2.5096 C.ar    1  UNL1       -0.0286
     31 C           3.0270   -2.2112    1.2598 C.ar    1  UNL1        0.0765
     32 N           1.3160   -2.2829    1.1335 N.pl3   1  UNL1       -0.3551
     33 H           0.4374    1.2606   -0.0956 H       1  UNL1        0.1453
     34 H           0.5670   -0.1979    0.3195 H       1  UNL1        0.1453
     35 H           0.8208   -5.0915    0.1522 H       1  UNL1        0.0564
     36 H           1.8672   -5.5663   -1.3068 H       1  UNL1        0.0564
     37 H           0.9284   -2.5986   -1.7564 H       1  UNL1        0.1490
     38 H           2.8435   -1.0093   -1.2809 H       1  UNL1        0.0498
     39 H          -0.0075    0.2354   -1.6527 H       1  UNL1        0.0283
     40 H           1.2064    0.0665   -2.9188 H       1  UNL1        0.0283
     41 H           0.8443    2.7128   -1.7793 H       1  UNL1        0.0266
     42 H           2.5332    2.2128   -1.9653 H       1  UNL1        0.0266
     43 H           0.8859    2.6950    0.8217 H       1  UNL1        0.0265
     44 H           2.4373    3.4866    0.3537 H       1  UNL1        0.0265
     45 H           2.6147    1.7645    2.6088 H       1  UNL1        0.0266
     46 H           3.7019    1.5802    1.3325 H       1  UNL1        0.0266
     47 H           0.9683   -0.2759    1.9083 H       1  UNL1        0.0283
     48 H           2.4636   -0.7342    2.3222 H       1  UNL1        0.0283
     49 H           2.3327   -7.3007   -0.8825 H       1  UNL1        0.0636
     50 H           1.3050   -9.4657   -0.6460 H       1  UNL1        0.0618
     51 H           1.2916  -10.5030    1.6150 H       1  UNL1        0.0623
     52 H           2.3310   -6.7062    3.3811 H       1  UNL1        0.0642
     53 H           1.0037   -3.2533    1.2046 H       1  UNL1        0.1424
     54 H           1.0738   -2.3918    0.1223 H       1  UNL1        0.1424
@<TRIPOS>BOND
     1     1     2   am
     2     2     3    2
     3     2     4    1
     4     4     5   ar
     5     5     6   ar
     6     6     7   ar
     7     7     8    1
     8     8     9    2
     9     8    10   am
    10    10    11    1
    11    11    12    1
    12    12    13    2
    13    12    14   am
    14    14    15    1
    15    15    16    1
    16    16    17    1
    17    17    18    1
    18    18    19    1
    19    19    20    1
    20    15    20    1
    21    10    21    1
    22    21    22   ar
    23    22    23   ar
    24    23    24   ar
    25    24    25   ar
    26    25    26    1
    27    26    27    1
    28    26    28    1
    29    26    29    1
    30    25    30   ar
    31    21    30   ar
    32     7    31   ar
    33     4    31   ar
    34    31    32    1
    35     1    33    1
    36     1    34    1
    37    11    35    1
    38    11    36    1
    39    14    37    1
    40    15    38    1
    41    16    39    1
    42    16    40    1
    43    17    41    1
    44    17    42    1
    45    18    43    1
    46    18    44    1
    47    19    45    1
    48    19    46    1
    49    20    47    1
    50    20    48    1
    51    22    49    1
    52    23    50    1
    53    24    51    1
    54    30    52    1
    55    32    53    1
    56    32    54    1
