REMARK  11 active torsions:
REMARK  status: ('A' for Active; 'I' for Inactive)
REMARK    1  A    between atoms: C_2  and  C_3 
REMARK    2  A    between atoms: C_3  and  C_4 
REMARK    3  A    between atoms: C_4  and  C_5 
REMARK    4  A    between atoms: C_5  and  N_6 
REMARK       I    between atoms: N_6  and  C_7 
REMARK       I    between atoms: C_7  and  N_9 
REMARK    5  A    between atoms: N_9  and  N_10 
REMARK       I    between atoms: N_10  and  C_11 
REMARK    6  A    between atoms: C_11  and  C_13 
REMARK    7  A    between atoms: C_16  and  O_17 
REMARK    8  A    between atoms: C_19  and  O_20 
REMARK    9  A    between atoms: O_20  and  C_21 
REMARK   10  A    between atoms: C_21  and  C_22 
REMARK   11  A    between atoms: C_22  and  O_23 
ROOT
ATOM      1  N   UNL d   1       9.513   4.630   2.632  0.00  0.00    -0.262 N 
ATOM      2  C   UNL d   1      10.904   4.636   2.556  0.00  0.00     0.270 C 
ATOM      3  O   UNL d   1      11.545   3.763   1.965  0.00  0.00    -0.266 OA
ATOM      4  H   UNL d   1       8.963   5.379   3.051  0.00  0.00     0.190 HD
ENDROOT
BRANCH   2   5
ATOM      5  C   UNL d   1      11.644   5.727   3.287  0.00  0.00     0.036 A 
ATOM      6  C   UNL d   1      12.861   6.249   2.826  0.00  0.00     0.020 A 
ATOM      7  C   UNL d   1      13.623   7.118   3.638  0.00  0.00     0.040 A 
ATOM      8  C   UNL d   1      13.161   7.522   4.899  0.00  0.00     0.101 A 
ATOM      9  C   UNL d   1      11.948   6.989   5.364  0.00  0.00     0.103 A 
ATOM     10  C   UNL d   1      11.202   6.112   4.553  0.00  0.00     0.056 A 
BRANCH   8  11
ATOM     11  O   UNL d   1      13.981   8.416   5.551  0.00  0.00    -0.353 OA
ATOM     12  C   UNL d   1      13.515   8.981   6.778  0.00  0.00     0.210 C 
ENDBRANCH   8  11
BRANCH   9  13
ATOM     13  O   UNL d   1      11.557   7.316   6.631  0.00  0.00    -0.346 OA
BRANCH  13  14
ATOM     14  C   UNL d   1      10.367   6.738   7.135  0.00  0.00     0.201 C 
BRANCH  14  15
ATOM     15  C   UNL d   1      10.152   7.239   8.553  0.00  0.00     0.190 C 
BRANCH  15  16
ATOM     16  O   UNL d   1       8.949   6.705   9.085  0.00  0.00    -0.399 OA
ATOM     17  H   UNL d   1       8.220   6.993   8.508  0.00  0.00     0.209 HD
ENDBRANCH  15  16
ENDBRANCH  14  15
ENDBRANCH  13  14
ENDBRANCH   9  13
ENDBRANCH   2   5
BRANCH   1  18
ATOM     18  N   UNL d   1       8.746   3.582   2.022  0.00  0.00    -0.249 N 
ATOM     19  C   UNL d   1       7.361   3.643   2.071  0.00  0.00     0.334 C 
ATOM     20  N   UNL d   1       6.705   2.592   1.456  0.00  0.00    -0.342 N 
ATOM     21  O   UNL d   1       6.769   4.570   2.624  0.00  0.00    -0.246 OA
ATOM     22  H   UNL d   1       7.238   1.856   1.018  0.00  0.00     0.164 HD
ATOM     23  H   UNL d   1       9.274   2.832   1.588  0.00  0.00     0.192 HD
BRANCH  20  24
ATOM     24  C   UNL d   1       5.240   2.524   1.415  0.00  0.00     0.124 C 
BRANCH  24  25
ATOM     25  C   UNL d   1       4.686   1.288   0.687  0.00  0.00     0.020 C 
BRANCH  25  26
ATOM     26  C   UNL d   1       3.148   1.267   0.675  0.00  0.00     0.001 C 
BRANCH  26  27
ATOM     27  C   UNL d   1       2.601   0.033  -0.051  0.00  0.00    -0.004 C 
ATOM     28  C   UNL d   1       1.079   0.021  -0.058  0.00  0.00     0.005 C 
ENDBRANCH  26  27
ENDBRANCH  25  26
ENDBRANCH  24  25
ENDBRANCH  20  24
ENDBRANCH   1  18
TORSDOF 11
