@<TRIPOS>MOLECULE
*****
 56 58 0 0 0
SMALL
GASTEIGER

@<TRIPOS>ATOM
      1 C           0.9299    0.0584    0.0143 C.3     1  UNL1       -0.0307
      2 C           2.4473    0.0682    0.0033 C.3     1  UNL1        0.0868
      3 O           2.8848   -0.3056   -1.3054 O.3     1  UNL1       -0.4922
      4 C           4.2334   -0.4816   -1.4468 C.ar    1  UNL1        0.1205
      5 C           4.7835   -0.1366   -2.6830 C.ar    1  UNL1       -0.0196
      6 C           6.1366   -0.3786   -2.9563 C.ar    1  UNL1       -0.0527
      7 C           6.9790   -0.9064   -1.9681 C.ar    1  UNL1       -0.0189
      8 C           8.4726   -1.0397   -2.2274 C.3     1  UNL1        0.0806
      9 O           9.0038    0.2494   -2.5420 O.3     1  UNL1       -0.3872
     10 C           9.2371   -1.5820   -1.0183 C.3     1  UNL1       -0.0144
     11 C          10.7472   -1.6932   -1.1912 C.3     1  UNL1        0.0282
     12 C          11.3529   -2.2448    0.0972 C.2     1  UNL1        0.2323
     13 O          10.6675   -2.5045    1.0901 O.2     1  UNL1       -0.2741
     14 N          12.7233   -2.4049    0.0357 N.am    1  UNL1       -0.2069
     15 N          13.4130   -2.9200    1.1111 N.2     1  UNL1       -0.1846
     16 C          14.7061   -3.0801    1.0307 C.2     1  UNL1        0.0878
     17 C          15.5355   -2.6498   -0.0657 C.ar    1  UNL1        0.1480
     18 C          15.4556   -1.4885   -0.8069 C.ar    1  UNL1       -0.0143
     19 C          16.4336   -1.5698   -1.8031 C.ar    1  UNL1       -0.0151
     20 C          17.1145   -2.7489   -1.5974 C.ar    1  UNL1        0.1394
     21 C          18.3081   -3.2710   -2.2503 C.ar    1  UNL1        0.0650
     22 C          18.3247   -4.5274   -2.8690 C.ar    1  UNL1        0.0297
     23 C          19.5151   -4.9876   -3.4610 C.ar    1  UNL1        0.2741
     24 N          19.6209   -6.3892   -3.8901 N.pl3   1  UNL1        0.0796
     25 O          18.6227   -7.1070   -3.7733 O.2     1  UNL1        0.0414
     26 O          20.7252   -6.7784   -4.3071 O.co2   1  UNL1       -0.5760
     27 C          20.6449   -4.1613   -3.5530 C.ar    1  UNL1        0.0191
     28 C          20.6162   -2.8923   -2.9803 C.ar    1  UNL1       -0.0131
     29 C          19.4598   -2.4605   -2.3311 C.ar    1  UNL1        0.1279
     30 O          19.4341   -1.2104   -1.7686 O.3     1  UNL1       -0.5061
     31 O          16.5792   -3.4231   -0.5257 O.2     1  UNL1       -0.4537
     32 C           6.3981   -1.2713   -0.7422 C.ar    1  UNL1       -0.0527
     33 C           5.0446   -1.0655   -0.4836 C.ar    1  UNL1       -0.0196
     34 H           0.5479    0.4070    0.9780 H       1  UNL1        0.0262
     35 H           0.5526   -0.9548   -0.1639 H       1  UNL1        0.0262
     36 H           0.5313    0.6944   -0.7815 H       1  UNL1        0.0262
     37 H           2.7874   -0.6249    0.7788 H       1  UNL1        0.0694
     38 H           2.8147    1.0758    0.2264 H       1  UNL1        0.0694
     39 H           4.1592    0.3360   -3.4370 H       1  UNL1        0.0654
     40 H           6.5318   -0.1461   -3.9438 H       1  UNL1        0.0622
     41 H           8.6358   -1.6898   -3.0947 H       1  UNL1        0.0643
     42 H           8.7303    0.8462   -1.8222 H       1  UNL1        0.2102
     43 H           8.8436   -2.5733   -0.7588 H       1  UNL1        0.0298
     44 H           9.0584   -0.9179   -0.1595 H       1  UNL1        0.0298
     45 H          11.1814   -0.7088   -1.4003 H       1  UNL1        0.0360
     46 H          10.9758   -2.3638   -2.0263 H       1  UNL1        0.0360
     47 H          13.1969   -2.2700   -0.8493 H       1  UNL1        0.1772
     48 H          15.2072   -3.5554    1.8930 H       1  UNL1        0.0883
     49 H          14.7579   -0.6825   -0.6332 H       1  UNL1        0.0656
     50 H          16.6706   -0.8376   -2.5590 H       1  UNL1        0.0656
     51 H          17.4203   -5.1325   -2.8944 H       1  UNL1        0.0693
     52 H          21.5545   -4.4987   -4.0483 H       1  UNL1        0.0686
     53 H          21.5038   -2.2678   -3.0245 H       1  UNL1        0.0656
     54 H          20.2784   -0.7566   -1.9190 H       1  UNL1        0.2922
     55 H           6.9779   -1.7361    0.0515 H       1  UNL1        0.0622
     56 H           4.6630   -1.3957    0.4754 H       1  UNL1        0.0654
@<TRIPOS>UNITY_ATOM_ATTR
24 1
charge 1
26 1
charge -1
@<TRIPOS>BOND
     1     1     2    1
     2     2     3    1
     3     3     4    1
     4     4     5   ar
     5     5     6   ar
     6     6     7   ar
     7     7     8    1
     8     8     9    1
     9     8    10    1
    10    10    11    1
    11    11    12    1
    12    12    13    2
    13    12    14   am
    14    14    15    1
    15    15    16    2
    16    16    17    1
    17    17    18   ar
    18    18    19   ar
    19    19    20   ar
    20    20    21    1
    21    21    22   ar
    22    22    23   ar
    23    23    24    1
    24    24    25    2
    25    24    26    1
    26    23    27   ar
    27    27    28   ar
    28    28    29   ar
    29    21    29   ar
    30    29    30    1
    31    20    31   ar
    32    17    31   ar
    33     7    32   ar
    34    32    33   ar
    35     4    33   ar
    36     1    34    1
    37     1    35    1
    38     1    36    1
    39     2    37    1
    40     2    38    1
    41     5    39    1
    42     6    40    1
    43     8    41    1
    44     9    42    1
    45    10    43    1
    46    10    44    1
    47    11    45    1
    48    11    46    1
    49    14    47    1
    50    16    48    1
    51    18    49    1
    52    19    50    1
    53    22    51    1
    54    27    52    1
    55    28    53    1
    56    30    54    1
    57    32    55    1
    58    33    56    1
