REMARK  5 active torsions:
REMARK  status: ('A' for Active; 'I' for Inactive)
REMARK       I    between atoms: C_2  and  N_3 
REMARK    1  A    between atoms: C_2  and  C_17 
REMARK    2  A    between atoms: N_3  and  N_4 
REMARK       I    between atoms: N_4  and  C_5 
REMARK    3  A    between atoms: C_5  and  C_7 
REMARK    4  A    between atoms: C_9  and  C_10 
REMARK    5  A    between atoms: C_22  and  O_23 
ROOT
ATOM      1  N   UNL d   1       2.393   0.211  -2.492  0.00  0.00    -0.267 N 
ATOM      2  C   UNL d   1       3.128   0.270  -3.668  0.00  0.00     0.240 C 
ATOM      3  O   UNL d   1       4.361   0.253  -3.680  0.00  0.00    -0.271 OA
ATOM      4  H   UNL d   1       1.375   0.216  -2.453  0.00  0.00     0.190 HD
ENDROOT
BRANCH   1   5
ATOM      5  N   UNL d   1       3.062   0.179  -1.229  0.00  0.00    -0.263 N 
ATOM      6  C   UNL d   1       2.305   0.095  -0.060  0.00  0.00     0.272 C 
ATOM      7  O   UNL d   1       1.076   0.119  -0.080  0.00  0.00    -0.266 OA
ATOM      8  H   UNL d   1       4.077   0.109  -1.252  0.00  0.00     0.190 HD
BRANCH   6   9
ATOM      9  C   UNL d   1       3.062  -0.004   1.237  0.00  0.00     0.066 A 
ATOM     10  C   UNL d   1       4.154   0.843   1.490  0.00  0.00     0.020 A 
ATOM     11  C   UNL d   1       4.849   0.771   2.707  0.00  0.00     0.001 A 
ATOM     12  C   UNL d   1       4.465  -0.146   3.685  0.00  0.00     0.003 A 
ATOM     13  C   UNL d   1       3.372  -0.982   3.458  0.00  0.00     0.037 A 
ATOM     14  C   UNL d   1       2.670  -0.904   2.245  0.00  0.00     0.081 A 
BRANCH  14  15
ATOM     15  O   UNL d   1       1.613  -1.746   2.034  0.00  0.00    -0.360 OA
ATOM     16  H   UNL d   1       1.407  -2.239   2.844  0.00  0.00     0.217 HD
ENDBRANCH  14  15
ENDBRANCH   6   9
ENDBRANCH   1   5
BRANCH   2  17
ATOM     17  C   UNL d   1       2.346   0.395  -4.963  0.00  0.00     0.088 A 
ATOM     18  C   UNL d   1       2.817  -0.257  -6.257  0.00  0.00     0.025 A 
ATOM     19  C   UNL d   1       2.970   1.227  -6.085  0.00  0.00     0.032 A 
BRANCH  19  20
ATOM     20  C   UNL d   1       2.252   2.273  -6.932  0.00  0.00    -0.050 A 
ATOM     21  C   UNL d   1       0.884   2.303  -7.256  0.00  0.00     0.007 A 
ATOM     22  C   UNL d   1       0.314   3.396  -7.945  0.00  0.00     0.004 A 
ATOM     23  C   UNL d   1       1.101   4.475  -8.346  0.00  0.00     0.042 A 
ATOM     24  C   UNL d   1       2.456   4.443  -8.080  0.00  0.00     0.116 A 
ATOM     25  F   UNL d   1       3.233   5.471  -8.447  0.00  0.00    -0.206 F 
ATOM     26  C   UNL d   1       3.020   3.364  -7.402  0.00  0.00     0.049 A 
ENDBRANCH  19  20
ENDBRANCH   2  17
TORSDOF 5
