@<TRIPOS>MOLECULE
*****
 52 53 0 0 0
SMALL
GASTEIGER

@<TRIPOS>ATOM
      1 C           1.1135   -0.0362   -0.0115 C.3     1  UNL1        0.0788
      2 O           2.5330    0.0563    0.0960 O.3     1  UNL1       -0.4951
      3 C           3.1939   -1.0801    0.4705 C.ar    1  UNL1        0.1206
      4 C           4.3769   -0.9178    1.1744 C.ar    1  UNL1       -0.0165
      5 C           5.1826   -2.0282    1.4640 C.ar    1  UNL1       -0.0162
      6 C           4.7985   -3.3344    1.1085 C.ar    1  UNL1        0.1235
      7 O           5.6941   -4.2881    1.5257 O.3     1  UNL1       -0.4948
      8 C           5.3713   -5.6673    1.4126 C.3     1  UNL1        0.0788
      9 C           3.6075   -3.5067    0.3817 C.ar    1  UNL1       -0.0008
     10 C           3.1641   -4.8421   -0.1689 C.3     1  UNL1       -0.0084
     11 C           1.8771   -4.8653   -0.9643 C.3     1  UNL1        0.0171
     12 N           1.5192   -6.1820   -1.4304 N.am    1  UNL1       -0.2991
     13 C           0.3684   -6.2929   -2.1599 C.2     1  UNL1        0.2997
     14 O          -0.3632   -5.3462   -2.3951 O.2     1  UNL1       -0.2529
     15 N           0.1483   -7.5507   -2.6372 N.am    1  UNL1       -0.2979
     16 C          -1.0568   -7.8104   -3.4112 C.3     1  UNL1        0.0285
     17 C          -1.1090   -9.2501   -3.9157 C.3     1  UNL1        0.0249
     18 N          -2.3479   -9.5660   -4.6186 N.pl3   1  UNL1       -0.3371
     19 C          -2.7761  -10.8718   -4.8299 C.ar    1  UNL1        0.1054
     20 C          -3.2934  -11.1626   -6.1145 C.ar    1  UNL1       -0.0342
     21 C          -3.7355  -12.4451   -6.4717 C.ar    1  UNL1       -0.0596
     22 C          -3.6194  -13.4937   -5.5709 C.ar    1  UNL1       -0.0552
     23 C          -3.1337  -13.2430   -4.2931 C.ar    1  UNL1        0.0175
     24 C          -2.7461  -11.9420   -3.9115 C.ar    1  UNL1        0.2937
     25 N          -2.4025  -11.7832   -2.4921 N.pl3   1  UNL1        0.0815
     26 O          -1.8980  -12.7631   -1.9196 O.2     1  UNL1        0.0415
     27 O          -2.6590  -10.7123   -1.9240 O.co2   1  UNL1       -0.5760
     28 C           2.8238   -2.3624    0.0874 C.ar    1  UNL1       -0.0133
     29 H           0.7483    0.9106   -0.4223 H       1  UNL1        0.0660
     30 H           0.6774   -0.1684    0.9827 H       1  UNL1        0.0660
     31 H           0.7672   -0.8198   -0.6926 H       1  UNL1        0.0660
     32 H           4.6762    0.0754    1.4976 H       1  UNL1        0.0655
     33 H           6.1372   -1.8632    1.9606 H       1  UNL1        0.0655
     34 H           6.1440   -6.2717    1.8933 H       1  UNL1        0.0660
     35 H           5.3693   -5.9779    0.3648 H       1  UNL1        0.0660
     36 H           4.4380   -5.9072    1.9314 H       1  UNL1        0.0660
     37 H           3.0004   -5.5331    0.6594 H       1  UNL1        0.0329
     38 H           3.9533   -5.2137   -0.8315 H       1  UNL1        0.0329
     39 H           1.9671   -4.2183   -1.8446 H       1  UNL1        0.0466
     40 H           1.0510   -4.5039   -0.3410 H       1  UNL1        0.0466
     41 H           2.0957   -6.9828   -1.2222 H       1  UNL1        0.1502
     42 H           0.6724   -8.3200   -2.2490 H       1  UNL1        0.1503
     43 H          -1.0741   -7.1101   -4.2538 H       1  UNL1        0.0478
     44 H          -1.9252   -7.5799   -2.7796 H       1  UNL1        0.0478
     45 H          -0.9184   -9.8870   -3.0545 H       1  UNL1        0.0476
     46 H          -0.2707   -9.4476   -4.5901 H       1  UNL1        0.0476
     47 H          -3.0522   -8.8366   -4.7169 H       1  UNL1        0.1463
     48 H          -3.3211  -10.3867   -6.8806 H       1  UNL1        0.0638
     49 H          -4.1609  -12.6274   -7.4570 H       1  UNL1        0.0618
     50 H          -3.9164  -14.5013   -5.8508 H       1  UNL1        0.0620
     51 H          -3.0820  -14.0669   -3.5842 H       1  UNL1        0.0686
     52 H           1.9215   -2.4724   -0.4991 H       1  UNL1        0.0658
@<TRIPOS>UNITY_ATOM_ATTR
25 1
charge 1
27 1
charge -1
@<TRIPOS>BOND
     1     1     2    1
     2     2     3    1
     3     3     4   ar
     4     4     5   ar
     5     5     6   ar
     6     6     7    1
     7     7     8    1
     8     6     9   ar
     9     9    10    1
    10    10    11    1
    11    11    12    1
    12    12    13   am
    13    13    14    2
    14    13    15   am
    15    15    16    1
    16    16    17    1
    17    17    18    1
    18    18    19    1
    19    19    20   ar
    20    20    21   ar
    21    21    22   ar
    22    22    23   ar
    23    23    24   ar
    24    19    24   ar
    25    24    25    1
    26    25    26    2
    27    25    27    1
    28     9    28   ar
    29     3    28   ar
    30     1    29    1
    31     1    30    1
    32     1    31    1
    33     4    32    1
    34     5    33    1
    35     8    34    1
    36     8    35    1
    37     8    36    1
    38    10    37    1
    39    10    38    1
    40    11    39    1
    41    11    40    1
    42    12    41    1
    43    15    42    1
    44    16    43    1
    45    16    44    1
    46    17    45    1
    47    17    46    1
    48    18    47    1
    49    20    48    1
    50    21    49    1
    51    22    50    1
    52    23    51    1
    53    28    52    1
