REMARK  14 active torsions:
REMARK  status: ('A' for Active; 'I' for Inactive)
REMARK    1  A    between atoms: C_2  and  C_3 
REMARK    2  A    between atoms: C_3  and  C_4 
REMARK    3  A    between atoms: C_4  and  N_5 
REMARK    4  A    between atoms: N_5  and  C_6 
REMARK    5  A    between atoms: N_5  and  C_10 
REMARK    6  A    between atoms: C_6  and  C_7 
REMARK    7  A    between atoms: C_7  and  C_8 
REMARK    8  A    between atoms: C_10  and  C_11 
REMARK    9  A    between atoms: C_14  and  C_15 
REMARK       I    between atoms: C_15  and  N_17 
REMARK   10  A    between atoms: N_17  and  N_18 
REMARK   11  A    between atoms: N_18  and  C_19 
REMARK   12  A    between atoms: C_19  and  N_21 
REMARK   13  A    between atoms: N_21  and  C_22 
REMARK   14  A    between atoms: C_26  and  S_27 
ROOT
ATOM      1  C   UNL d   1       9.729   6.852  -0.500  0.00  0.00     0.293 C 
ATOM      2  O   UNL d   1      10.809   6.304  -0.625  0.00  0.00    -0.264 OA
ATOM      3  N   UNL d   1       9.605   8.249  -0.493  0.00  0.00    -0.262 N 
ATOM      4  H   UNL d   1       8.707   8.720  -0.418  0.00  0.00     0.190 HD
ENDROOT
BRANCH   1   5
ATOM      5  C   UNL d   1       8.439   6.144  -0.369  0.00  0.00     0.144 C 
ATOM      6  C   UNL d   1       7.157   6.647  -0.270  0.00  0.00     0.045 C 
ATOM      7  C   UNL d   1       6.273   5.566  -0.342  0.00  0.00     0.037 C 
ATOM      8  C   UNL d   1       7.023   4.409  -0.293  0.00  0.00     0.079 C 
ATOM      9  O   UNL d   1       8.361   4.748  -0.343  0.00  0.00    -0.308 OA
BRANCH   8  10
ATOM     10  C   UNL d   1       6.595   2.968  -0.179  0.00  0.00     0.299 C 
BRANCH  10  11
ATOM     11  N   UNL d   1       5.041   2.830  -0.077  0.00  0.00    -0.065 N 
ATOM     12  H   UNL d   1       4.683   3.309  -0.915  0.00  0.00     0.280 HD
BRANCH  11  13
ATOM     13  C   UNL d   1       4.614   1.363  -0.172  0.00  0.00     0.235 C 
BRANCH  13  14
ATOM     14  C   UNL d   1       3.107   1.226  -0.304  0.00  0.00     0.027 C 
BRANCH  14  15
ATOM     15  C   UNL d   1       2.538  -0.168  -0.241  0.00  0.00    -0.003 C 
ATOM     16  C   UNL d   1       1.013  -0.057  -0.150  0.00  0.00     0.005 C 
ENDBRANCH  14  15
ENDBRANCH  13  14
ENDBRANCH  11  13
BRANCH  11  17
ATOM     17  C   UNL d   1       4.531   3.526   1.194  0.00  0.00     0.235 C 
BRANCH  17  18
ATOM     18  C   UNL d   1       3.043   3.803   1.150  0.00  0.00     0.027 C 
BRANCH  18  19
ATOM     19  C   UNL d   1       2.514   4.561   2.337  0.00  0.00    -0.003 C 
ATOM     20  C   UNL d   1       0.991   4.455   2.298  0.00  0.00     0.005 C 
ENDBRANCH  18  19
ENDBRANCH  17  18
ENDBRANCH  11  17
ENDBRANCH  10  11
ENDBRANCH   8  10
ENDBRANCH   1   5
BRANCH   3  21
ATOM     21  N   UNL d   1      10.717   9.149  -0.635  0.00  0.00    -0.273 N 
ATOM     22  H   UNL d   1      11.633   8.721  -0.742  0.00  0.00     0.189 HD
BRANCH  21  23
ATOM     23  C   UNL d   1      10.458  10.530  -0.680  0.00  0.00     0.191 C 
ATOM     24  S   UNL d   1       8.853  11.079  -0.607  0.00  0.00    -0.039 SA
BRANCH  23  25
ATOM     25  N   UNL d   1      11.599  11.341  -0.824  0.00  0.00    -0.332 N 
ATOM     26  H   UNL d   1      12.471  10.916  -1.120  0.00  0.00     0.168 HD
BRANCH  25  27
ATOM     27  C   UNL d   1      11.605  12.775  -0.765  0.00  0.00     0.035 A 
ATOM     28  C   UNL d   1      12.345  13.565  -1.652  0.00  0.00     0.029 A 
ATOM     29  C   UNL d   1      12.297  14.968  -1.549  0.00  0.00     0.004 A 
ATOM     30  C   UNL d   1      11.490  15.586  -0.586  0.00  0.00     0.018 A 
ATOM     31  C   UNL d   1      10.786  14.812   0.339  0.00  0.00     0.002 A 
ATOM     32  C   UNL d   1      10.884  13.422   0.244  0.00  0.00     0.048 A 
BRANCH  31  33
ATOM     33  S   UNL d   1       9.823  15.637   1.602  0.00  0.00    -0.134 SA
ATOM     34  C   UNL d   1       9.141  14.259   2.580  0.00  0.00     0.095 C 
ENDBRANCH  31  33
ENDBRANCH  25  27
ENDBRANCH  23  25
ENDBRANCH  21  23
ENDBRANCH   3  21
TORSDOF 14
