@<TRIPOS>MOLECULE
*****
 65 67 0 0 0
SMALL
GASTEIGER

@<TRIPOS>ATOM
      1 C          21.6825    4.3212   -9.0901 C.3     1  UNL1       -0.0627
      2 C          21.0615    2.9793   -9.4472 C.3     1  UNL1       -0.0467
      3 C          21.7206    1.8595   -8.6390 C.3     1  UNL1       -0.0627
      4 C          19.5513    3.0409   -9.1912 C.3     1  UNL1       -0.0507
      5 C          18.9092    1.7341   -9.6026 C.3     1  UNL1       -0.0512
      6 C          17.4087    1.7432   -9.4100 C.3     1  UNL1       -0.0348
      7 C          16.7889    0.4177   -9.8857 C.3     1  UNL1        0.0203
      8 C          17.2501    0.0772  -11.3082 C.3     1  UNL1       -0.0466
      9 N          15.3354    0.4867   -9.8060 N.am    1  UNL1       -0.3127
     10 C          14.7007    0.6740   -8.5929 C.2     1  UNL1        0.2133
     11 O          15.2973    0.7759   -7.5265 O.2     1  UNL1       -0.2758
     12 C          13.1961    0.7605   -8.6888 C.3     1  UNL1        0.0263
     13 C          12.5602    1.0091   -7.3095 C.3     1  UNL1       -0.0136
     14 C          11.0315    1.1565   -7.3260 C.3     1  UNL1        0.1325
     15 N          10.3996    0.1748   -8.2584 N.2     1  UNL1       -0.2237
     16 C          10.0915    0.9193   -9.2665 C.2     1  UNL1        0.2852
     17 O           9.5436    0.3985  -10.3653 O.2     1  UNL1       -0.4813
     18 N          10.3319    2.2363   -9.2173 N.am    1  UNL1       -0.2241
     19 C          10.3254    3.1875  -10.3253 C.3     1  UNL1        0.0280
     20 C          10.7412    4.6132   -9.9451 C.3     1  UNL1       -0.0093
     21 C          10.7746    5.5593  -11.1011 C.ar    1  UNL1       -0.0208
     22 C          11.5543    5.4498  -12.2355 C.ar    1  UNL1        0.0060
     23 N          11.3047    6.5322  -13.0347 N.ar    1  UNL1       -0.3604
     24 C          10.3704    7.3527  -12.4473 C.ar    1  UNL1        0.0468
     25 C           9.8149    8.5544  -12.9021 C.ar    1  UNL1       -0.0364
     26 C           8.8467    9.1638  -12.0981 C.ar    1  UNL1       -0.0414
     27 C           8.4680    8.5952  -10.8852 C.ar    1  UNL1        0.0417
     28 CL          7.2428    9.3522   -9.9395 Cl      1  UNL1       -0.0835
     29 C           9.0513    7.4104  -10.4285 C.ar    1  UNL1       -0.0340
     30 C          10.0157    6.7667  -11.2321 C.ar    1  UNL1        0.0042
     31 C          10.6650    2.4937   -7.9274 C.2     1  UNL1        0.2478
     32 O          10.7065    3.5696   -7.3447 O.2     1  UNL1       -0.2728
     33 H          22.7598    4.3082   -9.2763 H       1  UNL1        0.0232
     34 H          21.5155    4.5526   -8.0331 H       1  UNL1        0.0232
     35 H          21.2404    5.1239   -9.6892 H       1  UNL1        0.0232
     36 H          21.2358    2.7869  -10.5152 H       1  UNL1        0.0295
     37 H          21.5292    1.9944   -7.5694 H       1  UNL1        0.0232
     38 H          22.8003    1.8403   -8.8049 H       1  UNL1        0.0232
     39 H          21.3468    0.8713   -8.9248 H       1  UNL1        0.0232
     40 H          19.1086    3.8542   -9.7816 H       1  UNL1        0.0268
     41 H          19.3408    3.2529   -8.1369 H       1  UNL1        0.0268
     42 H          19.3044    0.8906   -9.0280 H       1  UNL1        0.0266
     43 H          19.1721    1.5815  -10.6520 H       1  UNL1        0.0266
     44 H          16.9552    2.5886   -9.9402 H       1  UNL1        0.0283
     45 H          17.2074    1.9041   -8.3440 H       1  UNL1        0.0283
     46 H          17.1094   -0.3894   -9.2134 H       1  UNL1        0.0495
     47 H          17.0048    0.8926  -11.9982 H       1  UNL1        0.0247
     48 H          16.7941   -0.8435  -11.6766 H       1  UNL1        0.0247
     49 H          18.3329   -0.0871  -11.3556 H       1  UNL1        0.0247
     50 H          14.7922    0.3712  -10.6520 H       1  UNL1        0.1490
     51 H          12.8326   -0.1851   -9.1043 H       1  UNL1        0.0359
     52 H          12.9483    1.5727   -9.3811 H       1  UNL1        0.0359
     53 H          13.0064    1.9136   -6.8692 H       1  UNL1        0.0295
     54 H          12.8332    0.1825   -6.6428 H       1  UNL1        0.0295
     55 H          10.6026    1.0713   -6.3230 H       1  UNL1        0.0643
     56 H           9.3786   -0.5453  -10.1903 H       1  UNL1        0.2951
     57 H           9.3443    3.1657  -10.8111 H       1  UNL1        0.0473
     58 H          11.0365    2.7904  -11.0646 H       1  UNL1        0.0473
     59 H          11.7390    4.6037   -9.4842 H       1  UNL1        0.0329
     60 H          10.0467    4.9960   -9.1899 H       1  UNL1        0.0329
     61 H          12.2642    4.6931  -12.5419 H       1  UNL1        0.0810
     62 H          11.7315    6.7034  -13.9345 H       1  UNL1        0.1653
     63 H          10.1098    8.9957  -13.8484 H       1  UNL1        0.0639
     64 H           8.3846   10.0892  -12.4328 H       1  UNL1        0.0633
     65 H           8.7540    6.9834   -9.4753 H       1  UNL1        0.0639
@<TRIPOS>BOND
     1     1     2    1
     2     2     3    1
     3     2     4    1
     4     4     5    1
     5     5     6    1
     6     7     9    1
     7     9    10   am
     8    10    11    2
     9    10    12    1
    10    12    13    1
    11    14    15    1
    12    15    16    2
    13    16    17    1
    14    16    18    1
    15    18    19    1
    16    19    20    1
    17    20    21    1
    18    21    22   ar
    19    22    23   ar
    20    23    24   ar
    21    24    25   ar
    22    25    26   ar
    23    26    27   ar
    24    27    28    1
    25    27    29   ar
    26    29    30   ar
    27    21    30   ar
    28    24    30   ar
    29    18    31   am
    30    14    31    1
    31    31    32    2
    32     7     8    1
    33     7     6    1
    34    14    13    1
    35     1    33    1
    36     1    34    1
    37     1    35    1
    38     2    36    1
    39     3    37    1
    40     3    38    1
    41     3    39    1
    42     4    40    1
    43     4    41    1
    44     5    42    1
    45     5    43    1
    46     6    44    1
    47     6    45    1
    48     7    46    1
    49     8    47    1
    50     8    48    1
    51     8    49    1
    52     9    50    1
    53    12    51    1
    54    12    52    1
    55    13    53    1
    56    13    54    1
    57    14    55    1
    58    17    56    1
    59    19    57    1
    60    19    58    1
    61    20    59    1
    62    20    60    1
    63    22    61    1
    64    23    62    1
    65    25    63    1
    66    26    64    1
    67    29    65    1
