REMARK  4 active torsions:
REMARK  status: ('A' for Active; 'I' for Inactive)
REMARK    1  A    between atoms: C_2  and  C_3 
REMARK       I    between atoms: C_2  and  N_10 
REMARK    2  A    between atoms: C_3  and  C_4 
REMARK    3  A    between atoms: N_10  and  N_11 
REMARK    4  A    between atoms: N_11  and  C_12 
ROOT
ATOM      1  O   UNL d   1       1.056  -0.055  -0.185  0.00  0.00    -0.272 OA
ATOM      2  C   UNL d   1       2.286  -0.062  -0.087  0.00  0.00     0.236 C 
ATOM      3  N   UNL d   1       3.024  -0.041  -1.240  0.00  0.00    -0.291 N 
ATOM      4  H   UNL d   1       2.450   0.045  -2.075  0.00  0.00     0.183 HD
ENDROOT
BRANCH   2   5
ATOM      5  C   UNL d   1       3.041  -0.111   1.221  0.00  0.00     0.142 C 
BRANCH   5   6
ATOM      6  C   UNL d   1       2.133  -0.180   2.422  0.00  0.00    -0.049 A 
ATOM      7  C   UNL d   1       1.646   0.992   3.013  0.00  0.00     0.007 A 
ATOM      8  C   UNL d   1       0.869   0.920   4.167  0.00  0.00     0.001 A 
ATOM      9  C   UNL d   1       0.499  -0.321   4.682  0.00  0.00     0.000 A 
ATOM     10  C   UNL d   1       0.930  -1.493   4.063  0.00  0.00     0.001 A 
ATOM     11  C   UNL d   1       1.749  -1.424   2.939  0.00  0.00     0.007 A 
ENDBRANCH   5   6
ENDBRANCH   2   5
BRANCH   3  12
ATOM     12  N   UNL d   1       4.431  -0.021  -1.318  0.00  0.00    -0.233 NA
ATOM     13  H   UNL d   1       4.793  -0.888  -0.910  0.00  0.00     0.147 HD
BRANCH  12  14
ATOM     14  C   UNL d   1       4.886   0.046  -2.715  0.00  0.00     0.076 C 
ATOM     15  C   UNL d   1       4.357  -1.084  -3.602  0.00  0.00     0.021 C 
ATOM     16  C   UNL d   1       4.563  -0.570  -5.019  0.00  0.00     0.002 C 
ATOM     17  C   UNL d   1       4.502   0.956  -4.931  0.00  0.00     0.002 C 
ATOM     18  C   UNL d   1       4.447   1.315  -3.449  0.00  0.00     0.021 C 
ENDBRANCH  12  14
ENDBRANCH   3  12
TORSDOF 4
