REMARK  12 active torsions:
REMARK  status: ('A' for Active; 'I' for Inactive)
REMARK    1  A    between atoms: C_2  and  C_3 
REMARK    2  A    between atoms: C_3  and  C_4 
REMARK    3  A    between atoms: C_4  and  O_5 
REMARK    4  A    between atoms: O_5  and  C_6 
REMARK    5  A    between atoms: C_6  and  C_8 
REMARK    6  A    between atoms: C_11  and  N_12 
REMARK    7  A    between atoms: N_12  and  N_13 
REMARK    8  A    between atoms: N_13  and  C_14 
REMARK    9  A    between atoms: C_18  and  C_19 
REMARK   10  A    between atoms: C_19  and  C_20 
REMARK   11  A    between atoms: N_28  and  C_29 
REMARK   12  A    between atoms: C_29  and  C_30 
ROOT
ATOM      1  C   UNL d   1       7.571   9.643  -4.745  0.00  0.00     0.720 A 
ATOM      2  N   UNL d   1       7.440  10.806  -4.158  0.00  0.00    -0.068 NA
ATOM      3  C   UNL d   1       7.579  11.967  -4.883  0.00  0.00     0.061 A 
ATOM      4  C   UNL d   1       7.506  13.254  -4.093  0.00  0.00     0.072 C 
ATOM      5  C   UNL d   1       7.811  12.016  -6.206  0.00  0.00     0.040 A 
ATOM      6  C   UNL d   1       7.959  10.705  -6.874  0.00  0.00     0.270 A 
ATOM      7  O   UNL d   1       8.248  10.603  -8.064  0.00  0.00    -0.267 OA
ATOM      8  N   UNL d   1       7.766   9.564  -6.116  0.00  0.00    -0.140 N 
ENDROOT
BRANCH   1   9
ATOM      9  N   UNL d   1       7.380   8.512  -3.949  0.00  0.00    -0.147 N 
ATOM     10  H   UNL d   1       6.737   8.712  -3.189  0.00  0.00     0.200 HD
BRANCH   9  11
ATOM     11  N   UNL d   1       8.336   7.505  -3.653  0.00  0.00    -0.191 NA
ATOM     12  H   UNL d   1       8.928   7.301  -4.462  0.00  0.00     0.153 HD
BRANCH  11  13
ATOM     13  C   UNL d   1       7.939   6.256  -3.040  0.00  0.00     0.028 A 
ATOM     14  C   UNL d   1       8.665   5.060  -3.232  0.00  0.00     0.026 A 
ATOM     15  C   UNL d   1       8.158   3.806  -2.777  0.00  0.00     0.019 A 
ATOM     16  C   UNL d   1       6.982   3.735  -2.009  0.00  0.00     0.039 A 
ATOM     17  C   UNL d   1       6.298   4.924  -1.769  0.00  0.00     0.019 A 
ATOM     18  C   UNL d   1       6.769   6.156  -2.273  0.00  0.00     0.026 A 
BRANCH  16  19
ATOM     19  C   UNL d   1       6.468   2.419  -1.479  0.00  0.00     0.293 C 
ATOM     20  O   UNL d   1       7.210   1.536  -1.122  0.00  0.00    -0.259 OA
BRANCH  19  21
ATOM     21  O   UNL d   1       5.091   2.378  -1.412  0.00  0.00    -0.318 OA
BRANCH  21  22
ATOM     22  C   UNL d   1       4.568   1.199  -0.749  0.00  0.00     0.179 C 
BRANCH  22  23
ATOM     23  C   UNL d   1       3.030   1.177  -0.742  0.00  0.00     0.026 C 
BRANCH  23  24
ATOM     24  C   UNL d   1       2.477  -0.034   0.029  0.00  0.00    -0.002 C 
ATOM     25  C   UNL d   1       0.954  -0.055   0.043  0.00  0.00     0.005 C 
ENDBRANCH  23  24
ENDBRANCH  22  23
ENDBRANCH  21  22
ENDBRANCH  19  21
ENDBRANCH  16  19
ENDBRANCH  11  13
ENDBRANCH   9  11
ENDBRANCH   1   9
BRANCH   8  26
ATOM     26  C   UNL d   1       7.730   8.393  -6.989  0.00  0.00     0.189 C 
BRANCH  26  27
ATOM     27  C   UNL d   1       7.336   7.073  -6.436  0.00  0.00    -0.039 C 
ATOM     28  C   UNL d   1       8.228   5.998  -6.488  0.00  0.00     0.010 C 
ATOM     29  C   UNL d   1       7.797   4.749  -6.058  0.00  0.00     0.024 C 
ATOM     30  C   UNL d   1       6.519   4.607  -5.503  0.00  0.00     0.034 C 
ATOM     31 CL   UNL d   1       5.936   3.064  -5.019  0.00  0.00    -0.084 Cl
ATOM     32  C   UNL d   1       5.726   5.723  -5.259  0.00  0.00     0.024 C 
ATOM     33  C   UNL d   1       6.090   6.937  -5.807  0.00  0.00     0.010 C 
ENDBRANCH  26  27
ENDBRANCH   8  26
BRANCH   5  34
ATOM     34  C   UNL d   1       7.931  13.325  -6.958  0.00  0.00     0.084 C 
BRANCH  34  35
ATOM     35  C   UNL d   1       8.065  13.253  -8.454  0.00  0.00    -0.054 A 
ATOM     36  C   UNL d   1       9.247  13.654  -9.085  0.00  0.00     0.007 A 
ATOM     37  C   UNL d   1       9.374  13.514 -10.464  0.00  0.00     0.001 A 
ATOM     38  C   UNL d   1       8.379  12.864 -11.196  0.00  0.00     0.000 A 
ATOM     39  C   UNL d   1       7.212  12.435 -10.570  0.00  0.00     0.001 A 
ATOM     40  C   UNL d   1       7.030  12.684  -9.216  0.00  0.00     0.007 A 
ENDBRANCH  34  35
ENDBRANCH   5  34
TORSDOF 12
