REMARK  9 active torsions:
REMARK  status: ('A' for Active; 'I' for Inactive)
REMARK    1  A    between atoms: C_2  and  N_3 
REMARK    2  A    between atoms: N_6  and  C_7 
REMARK    3  A    between atoms: C_10  and  C_11 
REMARK    4  A    between atoms: C_11  and  O_13 
REMARK    5  A    between atoms: C_16  and  N_17 
REMARK    6  A    between atoms: N_17  and  C_18 
REMARK    7  A    between atoms: C_18  and  N_20 
REMARK       I    between atoms: N_20  and  C_21 
REMARK    8  A    between atoms: C_21  and  C_23 
REMARK    9  A    between atoms: C_26  and  C_27 
ROOT
ATOM      1  C   UNL d   1       6.779  -1.234  -3.041  0.00  0.00     0.052 A 
ATOM      2  C   UNL d   1       7.363  -2.163  -3.948  0.00  0.00     0.032 A 
ATOM      3  C   UNL d   1       8.688  -2.634  -3.841  0.00  0.00     0.020 A 
ATOM      4  C   UNL d   1       9.538  -2.148  -2.848  0.00  0.00     0.041 A 
ATOM      5  C   UNL d   1       9.012  -1.187  -1.954  0.00  0.00     0.043 A 
ATOM      6  C   UNL d   1       7.663  -0.669  -2.054  0.00  0.00     0.042 A 
ENDROOT
BRANCH   6   7
ATOM      7  N   UNL d   1       7.325   0.439  -1.100  0.00  0.00    -0.234 NA
ATOM      8  H   UNL d   1       8.135   0.532  -0.486  0.00  0.00     0.136 HD
BRANCH   7   9
ATOM      9  C   UNL d   1       6.186   0.454  -0.283  0.00  0.00     0.157 C 
ATOM     10  S   UNL d   1       5.808  -0.911   0.608  0.00  0.00    -0.046 SA
BRANCH   9  11
ATOM     11  N   UNL d   1       5.607   1.778   0.010  0.00  0.00    -0.304 N 
ATOM     12  C   UNL d   1       4.211   2.239   0.105  0.00  0.00     0.257 C 
ATOM     13  O   UNL d   1       3.341   2.264  -0.769  0.00  0.00    -0.267 OA
ATOM     14  H   UNL d   1       6.085   2.108   0.834  0.00  0.00     0.171 HD
BRANCH  12  15
ATOM     15  C   UNL d   1       3.632   3.077   1.123  0.00  0.00     0.032 C 
ATOM     16  C   UNL d   1       2.215   3.032   1.353  0.00  0.00     0.017 C 
ATOM     17  C   UNL d   1       1.545   4.130   1.847  0.00  0.00     0.008 C 
ATOM     18  C   UNL d   1       2.311   5.226   2.222  0.00  0.00    -0.055 C 
ATOM     19  C   UNL d   1       3.688   5.274   1.901  0.00  0.00     0.008 C 
ATOM     20  C   UNL d   1       4.351   4.215   1.340  0.00  0.00     0.017 C 
BRANCH  18  21
ATOM     21  C   UNL d   1       1.664   6.300   3.063  0.00  0.00     0.010 C 
ATOM     22  C   UNL d   1       1.109   5.649   4.339  0.00  0.00     0.015 C 
ATOM     23  C   UNL d   1       2.684   7.369   3.444  0.00  0.00     0.015 C 
ENDBRANCH  18  21
ENDBRANCH  12  15
ENDBRANCH   9  11
ENDBRANCH   7   9
ENDBRANCH   6   7
BRANCH   1  24
ATOM     24  N   UNL d   1       5.418  -0.978  -3.199  0.00  0.00    -0.376 N 
ATOM     25  C   UNL d   1       4.895   0.351  -3.365  0.00  0.00     0.150 C 
ATOM     26  C   UNL d   1       3.898   0.615  -2.248  0.00  0.00     0.254 C 
ATOM     27  N   UNL d   1       2.899  -0.425  -1.659  0.00  0.00    -0.068 N 
ATOM     28  C   UNL d   1       3.441  -1.846  -1.850  0.00  0.00     0.254 C 
ATOM     29  H   UNL d   1       2.052  -0.250  -2.202  0.00  0.00     0.280 HD
ATOM     30  C   UNL d   1       4.339  -1.996  -3.110  0.00  0.00     0.150 C 
BRANCH  27  31
ATOM     31  C   UNL d   1       2.426  -0.300  -0.128  0.00  0.00     0.230 C 
ATOM     32  C   UNL d   1       0.919  -0.148  -0.016  0.00  0.00     0.034 C 
ENDBRANCH  27  31
ENDBRANCH   1  24
BRANCH   4  33
ATOM     33  C   UNL d   1      10.973  -2.610  -2.859  0.00  0.00     0.293 C 
ATOM     34  O   UNL d   1      11.414  -3.382  -3.728  0.00  0.00    -0.259 OA
BRANCH  33  35
ATOM     35  O   UNL d   1      11.726  -2.062  -1.877  0.00  0.00    -0.323 OA
ATOM     36  C   UNL d   1      13.124  -2.420  -1.913  0.00  0.00     0.213 C 
ENDBRANCH  33  35
ENDBRANCH   4  33
TORSDOF 9
