REMARK  8 active torsions:
REMARK  status: ('A' for Active; 'I' for Inactive)
REMARK    1  A    between atoms: C_6  and  C_7 
REMARK    2  A    between atoms: C_7  and  O_8 
REMARK    3  A    between atoms: O_8  and  C_9 
REMARK    4  A    between atoms: C_11  and  N_12 
REMARK    5  A    between atoms: N_12  and  C_13 
REMARK    6  A    between atoms: C_17  and  O_18 
REMARK    7  A    between atoms: O_18  and  C_19 
REMARK    8  A    between atoms: C_23  and  C_24 
REMARK       I    between atoms: C_24  and  N_25 
ROOT
ATOM      1  C   UNL d   1      -0.870   0.932   8.335  0.00  0.00     0.252 A 
ATOM      2  N   UNL d   1      -1.931   1.472   8.911  0.00  0.00    -0.206 NA
ATOM      3  C   UNL d   1      -1.829   1.111  10.246  0.00  0.00     0.097 A 
ATOM      4  C   UNL d   1      -2.650   1.359  11.373  0.00  0.00     0.072 A 
ATOM      5  C   UNL d   1      -2.244   0.886  12.646  0.00  0.00     0.078 A 
ATOM      6  C   UNL d   1      -1.044   0.171  12.759  0.00  0.00     0.040 A 
ATOM      7  C   UNL d   1      -0.217  -0.085  11.655  0.00  0.00     0.042 A 
ATOM      8  C   UNL d   1      -0.661   0.391  10.427  0.00  0.00     0.108 A 
ATOM      9  O   UNL d   1      -0.053   0.254   9.210  0.00  0.00    -0.276 OA
ENDROOT
BRANCH   1  10
ATOM     10  N   UNL d   1      -0.451   1.050   7.041  0.00  0.00    -0.320 N 
ATOM     11  H   UNL d   1      -0.763   1.900   6.588  0.00  0.00     0.169 HD
BRANCH  10  12
ATOM     12  C   UNL d   1      -0.295  -0.038   6.135  0.00  0.00     0.038 C 
ATOM     13  C   UNL d   1      -0.041   0.165   4.753  0.00  0.00     0.068 C 
ATOM     14  C   UNL d   1       0.177  -0.928   3.868  0.00  0.00     0.092 C 
ATOM     15  C   UNL d   1       0.281  -2.218   4.402  0.00  0.00     0.067 C 
ATOM     16  C   UNL d   1      -0.011  -2.429   5.742  0.00  0.00     0.029 C 
ATOM     17 CL   UNL d   1       0.878  -3.603   3.555  0.00  0.00    -0.081 Cl
ATOM     18  C   UNL d   1      -0.301  -1.360   6.588  0.00  0.00     0.031 C 
BRANCH  14  19
ATOM     19  O   UNL d   1       0.337  -0.618   2.536  0.00  0.00    -0.347 OA
BRANCH  19  20
ATOM     20  C   UNL d   1      -0.383  -1.454   1.605  0.00  0.00     0.209 C 
BRANCH  20  21
ATOM     21  C   UNL d   1       0.031  -1.161   0.142  0.00  0.00     0.211 C 
ATOM     22  C   UNL d   1       1.498  -0.748   0.010  0.00  0.00     0.037 C 
ATOM     23  C   UNL d   1       1.502   0.781  -0.035  0.00  0.00     0.030 C 
ATOM     24  C   UNL d   1       0.060   1.216   0.153  0.00  0.00     0.235 C 
ATOM     25  N   UNL d   1      -0.732   0.051  -0.379  0.00  0.00    -0.069 N 
ATOM     26  C   UNL d   1      -0.889   0.066  -1.875  0.00  0.00     0.270 C 
ATOM     27  H   UNL d   1      -1.679   0.066   0.021  0.00  0.00     0.280 HD
ENDBRANCH  20  21
ENDBRANCH  19  20
ENDBRANCH  14  19
ENDBRANCH  10  12
ENDBRANCH   1  10
BRANCH   5  28
ATOM     28  O   UNL d   1      -3.096   1.145  13.717  0.00  0.00    -0.311 OA
BRANCH  28  29
ATOM     29  C   UNL d   1      -2.737   0.755  14.998  0.00  0.00     0.079 A 
ATOM     30  C   UNL d   1      -1.595   1.241  15.631  0.00  0.00     0.056 A 
ATOM     31  C   UNL d   1      -1.292   0.768  16.902  0.00  0.00     0.120 A 
ATOM     32  N   UNL d   1      -2.058  -0.108  17.592  0.00  0.00    -0.255 NA
ATOM     33  C   UNL d   1      -3.202  -0.518  16.976  0.00  0.00     0.126 A 
ATOM     34  C   UNL d   1      -3.581  -0.106  15.697  0.00  0.00     0.074 A 
BRANCH  33  35
ATOM     35  C   UNL d   1      -4.070  -1.486  17.728  0.00  0.00     0.268 C 
ATOM     36  N   UNL d   1      -3.656  -1.880  18.972  0.00  0.00    -0.365 N 
ATOM     37  H   UNL d   1      -2.798  -1.529  19.381  0.00  0.00     0.159 HD
ATOM     38  H   UNL d   1      -4.230  -2.531  19.493  0.00  0.00     0.159 HD
ATOM     39  O   UNL d   1      -5.117  -1.924  17.249  0.00  0.00    -0.266 OA
ENDBRANCH  33  35
ENDBRANCH  28  29
ENDBRANCH   5  28
TORSDOF 8
