REMARK  11 active torsions:
REMARK  status: ('A' for Active; 'I' for Inactive)
REMARK    1  A    between atoms: C_2  and  C_3 
REMARK       I    between atoms: C_2  and  N_18 
REMARK    2  A    between atoms: C_3  and  N_4 
REMARK    3  A    between atoms: N_4  and  C_5 
REMARK    4  A    between atoms: C_7  and  N_8 
REMARK    5  A    between atoms: C_13  and  N_14 
REMARK    6  A    between atoms: N_14  and  C_15 
REMARK    7  A    between atoms: C_15  and  C_16 
REMARK    8  A    between atoms: C_16  and  O_17 
REMARK    9  A    between atoms: N_18  and  C_19 
REMARK   10  A    between atoms: N_18  and  C_26 
REMARK   11  A    between atoms: C_19  and  C_20 
ROOT
ATOM      1  N   UNL d   1       2.176  -1.756  -1.699  0.00  0.00    -0.379 N 
ATOM      2  H   UNL d   1       1.166  -1.675  -1.584  0.00  0.00     0.160 HD
ENDROOT
BRANCH   1   3
ATOM      3  C   UNL d   1       2.965  -0.737  -1.016  0.00  0.00     0.223 C 
BRANCH   3   4
ATOM      4  C   UNL d   1       2.212   0.380  -0.377  0.00  0.00     0.238 C 
ATOM      5  O   UNL d   1       1.018   0.519  -0.670  0.00  0.00    -0.272 OA
ATOM      6  N   UNL d   1       2.945   1.020   0.678  0.00  0.00    -0.342 N 
BRANCH   6   7
ATOM      7  C   UNL d   1       2.258   1.836   1.689  0.00  0.00     0.164 C 
BRANCH   7   8
ATOM      8  C   UNL d   1       0.775   1.644   1.783  0.00  0.00    -0.040 C 
ATOM      9  C   UNL d   1      -0.080   2.737   1.613  0.00  0.00     0.009 C 
ATOM     10  C   UNL d   1      -1.454   2.531   1.574  0.00  0.00     0.001 C 
ATOM     11  C   UNL d   1      -1.966   1.233   1.554  0.00  0.00     0.000 C 
ATOM     12  C   UNL d   1      -1.117   0.140   1.699  0.00  0.00     0.001 C 
ATOM     13  C   UNL d   1       0.239   0.351   1.908  0.00  0.00     0.009 C 
ENDBRANCH   7   8
ENDBRANCH   6   7
BRANCH   6  14
ATOM     14  C   UNL d   1       4.413   1.009   0.768  0.00  0.00     0.087 A 
ATOM     15  C   UNL d   1       5.223   1.978  -0.040  0.00  0.00     0.027 A 
ATOM     16  C   UNL d   1       5.206   2.106   1.455  0.00  0.00     0.027 A 
ENDBRANCH   6  14
ENDBRANCH   3   4
ENDBRANCH   1   3
BRANCH   1  17
ATOM     17  C   UNL d   1       2.670  -2.794  -2.486  0.00  0.00     0.057 A 
ATOM     18  C   UNL d   1       2.057  -2.889  -3.763  0.00  0.00     0.067 A 
ATOM     19  C   UNL d   1       2.413  -3.891  -4.673  0.00  0.00     0.105 A 
ATOM     20  C   UNL d   1       3.465  -4.754  -4.389  0.00  0.00     0.038 A 
ATOM     21  C   UNL d   1       4.072  -4.690  -3.136  0.00  0.00     0.034 A 
ATOM     22  C   UNL d   1       3.695  -3.747  -2.151  0.00  0.00     0.054 A 
BRANCH  19  23
ATOM     23  N   UNL d   1       1.621  -4.103  -5.892  0.00  0.00    -0.116 N 
ATOM     24  O   UNL d   1       0.660  -3.350  -6.101  0.00  0.00    -0.532 OA
ATOM     25  O   UNL d   1       1.942  -5.050  -6.627  0.00  0.00    -0.532 OA
ENDBRANCH  19  23
BRANCH  22  26
ATOM     26  N   UNL d   1       4.255  -4.033  -0.867  0.00  0.00    -0.386 N 
ATOM     27  H   UNL d   1       5.169  -4.468  -0.911  0.00  0.00     0.159 HD
BRANCH  26  28
ATOM     28  C   UNL d   1       4.128  -3.012   0.128  0.00  0.00     0.146 C 
BRANCH  28  29
ATOM     29  C   UNL d   1       4.847  -3.075   1.457  0.00  0.00     0.183 C 
BRANCH  29  30
ATOM     30  O   UNL d   1       4.264  -2.157   2.398  0.00  0.00    -0.399 OA
ATOM     31  H   UNL d   1       4.409  -1.239   2.122  0.00  0.00     0.209 HD
ENDBRANCH  29  30
ENDBRANCH  28  29
ENDBRANCH  26  28
ENDBRANCH  22  26
ENDBRANCH   1  17
TORSDOF 11
