REMARK  9 active torsions:
REMARK  status: ('A' for Active; 'I' for Inactive)
REMARK    1  A    between atoms: C_5  and  C_6 
REMARK    2  A    between atoms: C_9  and  C_10 
REMARK    3  A    between atoms: C_10  and  C_11 
REMARK    4  A    between atoms: C_11  and  C_12 
REMARK       I    between atoms: C_12  and  N_14 
REMARK    5  A    between atoms: N_14  and  N_15 
REMARK       I    between atoms: N_15  and  C_16 
REMARK       I    between atoms: C_16  and  N_18 
REMARK    6  A    between atoms: N_18  and  C_19 
REMARK    7  A    between atoms: C_19  and  C_20 
REMARK    8  A    between atoms: C_20  and  C_21 
REMARK    9  A    between atoms: C_21  and  N_22 
ROOT
ATOM      1  C   UNL d   1      -9.213  -0.847   1.169  0.00  0.00     0.236 C 
ATOM      2  O   UNL d   1      -9.161  -1.468   2.232  0.00  0.00    -0.272 OA
ATOM      3  N   UNL d   1     -10.435  -0.533   0.572  0.00  0.00    -0.266 N 
ATOM      4  H   UNL d   1     -10.527  -0.022  -0.306  0.00  0.00     0.190 HD
ENDROOT
BRANCH   3   5
ATOM      5  N   UNL d   1     -11.666  -0.942   1.203  0.00  0.00    -0.249 N 
ATOM      6  C   UNL d   1     -12.886  -0.634   0.619  0.00  0.00     0.334 C 
ATOM      7  O   UNL d   1     -12.982  -0.017  -0.442  0.00  0.00    -0.246 OA
ATOM      8  N   UNL d   1     -14.002  -1.079   1.315  0.00  0.00    -0.342 N 
ATOM      9  H   UNL d   1     -13.865  -1.565   2.191  0.00  0.00     0.164 HD
ATOM     10  H   UNL d   1     -11.557  -1.444   2.080  0.00  0.00     0.192 HD
BRANCH   8  11
ATOM     11  C   UNL d   1     -15.360  -0.818   0.820  0.00  0.00     0.126 C 
BRANCH  11  12
ATOM     12  C   UNL d   1     -16.477  -1.373   1.716  0.00  0.00     0.040 C 
BRANCH  12  13
ATOM     13  C   UNL d   1     -17.880  -1.091   1.158  0.00  0.00     0.130 C 
BRANCH  13  14
ATOM     14  N   UNL d   1     -18.929  -1.635   2.047  0.00  0.00    -0.352 N 
ATOM     15  C   UNL d   1     -19.894  -0.900   2.735  0.00  0.00     0.108 A 
ATOM     16  C   UNL d   1     -20.631  -1.794   3.462  0.00  0.00     0.106 A 
ATOM     17  N   UNL d   1     -20.116  -3.037   3.181  0.00  0.00    -0.361 N 
ATOM     18  C   UNL d   1     -19.106  -2.941   2.311  0.00  0.00     0.182 A 
ATOM     19  H   UNL d   1     -20.450  -3.915   3.573  0.00  0.00     0.166 HD
ENDBRANCH  13  14
ENDBRANCH  12  13
ENDBRANCH  11  12
ENDBRANCH   8  11
ENDBRANCH   3   5
BRANCH   1  20
ATOM     20  C   UNL d   1      -7.953  -0.377   0.427  0.00  0.00     0.112 C 
BRANCH  20  21
ATOM     21  C   UNL d   1      -6.627  -0.758   1.142  0.00  0.00     0.096 C 
BRANCH  21  22
ATOM     22  C   UNL d   1      -5.425  -0.281   0.372  0.00  0.00     0.146 A 
ATOM     23  N   UNL d   1      -5.437   0.400  -0.757  0.00  0.00    -0.238 NA
ATOM     24  C   UNL d   1      -4.116   0.595  -1.045  0.00  0.00     0.157 A 
ATOM     25  C   UNL d   1      -3.317   0.028  -0.081  0.00  0.00     0.105 A 
ATOM     26  O   UNL d   1      -4.152  -0.560   0.849  0.00  0.00    -0.294 OA
BRANCH  25  27
ATOM     27  C   UNL d   1      -1.867  -0.012   0.070  0.00  0.00    -0.001 A 
ATOM     28  C   UNL d   1      -1.154  -1.215   0.064  0.00  0.00     0.015 A 
ATOM     29  C   UNL d   1       0.251  -1.216   0.035  0.00  0.00     0.007 A 
ATOM     30  C   UNL d   1       0.971  -0.015   0.019  0.00  0.00    -0.062 A 
ATOM     31  C   UNL d   1       2.472  -0.003  -0.013  0.00  0.00     0.048 C 
ATOM     32  C   UNL d   1       0.264   1.191   0.025  0.00  0.00     0.007 A 
ATOM     33  C   UNL d   1      -1.137   1.190   0.044  0.00  0.00     0.015 A 
ENDBRANCH  25  27
ENDBRANCH  21  22
ENDBRANCH  20  21
ENDBRANCH   1  20
TORSDOF 9
