@<TRIPOS>MOLECULE
*****
 58 59 0 0 0
SMALL
GASTEIGER

@<TRIPOS>ATOM
      1 C          15.3255   -7.9016    7.3489 C.3     1  UNL1       -0.0307
      2 C          15.1173   -6.4892    6.8329 C.3     1  UNL1        0.0870
      3 O          13.9578   -6.2710    6.0283 O.3     1  UNL1       -0.4886
      4 C          13.7948   -5.0644    5.3596 C.ar    1  UNL1        0.1619
      5 C          12.5312   -4.4717    5.5947 C.ar    1  UNL1       -0.0156
      6 C          12.0647   -3.3615    4.8510 C.ar    1  UNL1       -0.0459
      7 C          12.8799   -2.7531    3.8933 C.ar    1  UNL1        0.0418
      8 C          12.4382   -1.4911    3.2043 C.2     1  UNL1        0.2603
      9 O          11.3430   -0.9944    3.4497 O.2     1  UNL1       -0.2687
     10 N          13.3283   -0.8905    2.3214 N.am    1  UNL1       -0.2303
     11 N          13.0028    0.3667    1.7764 N.am    1  UNL1       -0.2326
     12 C          13.8222    0.8634    0.7709 C.2     1  UNL1        0.2494
     13 O          14.8802    0.2874    0.5041 O.2     1  UNL1       -0.2722
     14 C          13.3415    2.1844    0.0742 C.3     1  UNL1        0.1018
     15 C          11.8123    2.1534   -0.1664 C.3     1  UNL1       -0.0169
     16 C          11.0178    2.9159    0.9129 C.3     1  UNL1       -0.0044
     17 S           9.2359    2.6596    0.5869 S.3     1  UNL1       -0.1641
     18 C           8.4828    3.6015    1.9421 C.3     1  UNL1       -0.0181
     19 N          14.0552    2.3537   -1.2108 N.am    1  UNL1       -0.2999
     20 C          15.4135    2.6419   -1.2600 C.2     1  UNL1        0.2461
     21 O          16.1255    2.7356   -0.2812 O.2     1  UNL1       -0.2701
     22 C          16.0114    2.8645   -2.6089 C.ar    1  UNL1        0.0550
     23 C          17.2366    2.2331   -2.8985 C.ar    1  UNL1       -0.0482
     24 C          17.9401    2.5478   -4.0681 C.ar    1  UNL1       -0.0610
     25 C          17.3994    3.4472   -4.9833 C.ar    1  UNL1       -0.0603
     26 C          16.1759    4.0610   -4.7117 C.ar    1  UNL1       -0.0427
     27 C          15.4835    3.7784   -3.5268 C.ar    1  UNL1        0.0531
     28 CL         14.0026    4.6298   -3.2626 Cl      1  UNL1       -0.0828
     29 C          14.1172   -3.3380    3.6453 C.ar    1  UNL1       -0.0041
     30 C          14.5815   -4.4829    4.3369 C.ar    1  UNL1        0.1622
     31 O          15.7777   -4.8339    3.7532 O.3     1  UNL1       -0.4914
     32 C          16.5153   -5.8148    4.4082 C.3     1  UNL1        0.0790
     33 H          16.3841   -8.0032    7.6447 H       1  UNL1        0.0262
     34 H          15.1729   -8.6253    6.5366 H       1  UNL1        0.0262
     35 H          14.6949   -8.1521    8.1943 H       1  UNL1        0.0262
     36 H          15.9665   -6.5721    6.2139 H       1  UNL1        0.0694
     37 H          15.3353   -5.6728    7.5259 H       1  UNL1        0.0694
     38 H          11.8759   -4.8835    6.3631 H       1  UNL1        0.0655
     39 H          11.0556   -2.9857    5.0220 H       1  UNL1        0.0626
     40 H          14.2569   -1.2278    2.0805 H       1  UNL1        0.1731
     41 H          12.0444    0.6611    1.9385 H       1  UNL1        0.1729
     42 H          13.6173    3.0374    0.7073 H       1  UNL1        0.0595
     43 H          11.5654    2.5865   -1.1445 H       1  UNL1        0.0296
     44 H          11.4755    1.1083   -0.2118 H       1  UNL1        0.0296
     45 H          11.2550    3.9835    0.8692 H       1  UNL1        0.0377
     46 H          11.2547    2.5538    1.9171 H       1  UNL1        0.0377
     47 H           7.3946    3.5249    1.8409 H       1  UNL1        0.0340
     48 H           8.7502    4.6598    1.8877 H       1  UNL1        0.0340
     49 H           8.7574    3.1930    2.9181 H       1  UNL1        0.0340
     50 H          13.5183    2.4682   -2.0602 H       1  UNL1        0.1498
     51 H          17.6552    1.5026   -2.2070 H       1  UNL1        0.0625
     52 H          18.9191    2.1096   -4.2560 H       1  UNL1        0.0618
     53 H          17.9308    3.6769   -5.9048 H       1  UNL1        0.0618
     54 H          15.7771    4.7848   -5.4184 H       1  UNL1        0.0632
     55 H          14.7729   -2.9474    2.8724 H       1  UNL1        0.0663
     56 H          17.4651   -6.0822    3.9497 H       1  UNL1        0.0660
     57 H          15.9158   -6.7347    4.3922 H       1  UNL1        0.0660
     58 H          16.8101   -5.3709    5.3682 H       1  UNL1        0.0660
@<TRIPOS>BOND
     1     1     2    1
     2     2     3    1
     3     3     4    1
     4     4     5   ar
     5     5     6   ar
     6     6     7   ar
     7     7     8    1
     8     8     9    2
     9     8    10   am
    10    10    11    1
    11    11    12   am
    12    12    13    2
    13    15    16    1
    14    16    17    1
    15    17    18    1
    16    14    19    1
    17    19    20   am
    18    20    21    2
    19    20    22    1
    20    22    23   ar
    21    23    24   ar
    22    24    25   ar
    23    25    26   ar
    24    26    27   ar
    25    22    27   ar
    26    27    28    1
    27     7    29   ar
    28    29    30   ar
    29     4    30   ar
    30    30    31    1
    31    31    32    1
    32    14    15    1
    33    14    12    1
    34     1    33    1
    35     1    34    1
    36     1    35    1
    37     2    36    1
    38     2    37    1
    39     5    38    1
    40     6    39    1
    41    10    40    1
    42    11    41    1
    43    14    42    1
    44    15    43    1
    45    15    44    1
    46    16    45    1
    47    16    46    1
    48    18    47    1
    49    18    48    1
    50    18    49    1
    51    19    50    1
    52    23    51    1
    53    24    52    1
    54    25    53    1
    55    26    54    1
    56    29    55    1
    57    32    56    1
    58    32    57    1
    59    32    58    1
