REMARK  12 active torsions:
REMARK  status: ('A' for Active; 'I' for Inactive)
REMARK    1  A    between atoms: C_2  and  C_3 
REMARK    2  A    between atoms: C_3  and  C_4 
REMARK    3  A    between atoms: C_4  and  N_5 
REMARK       I    between atoms: N_5  and  C_6 
REMARK    4  A    between atoms: C_6  and  C_8 
REMARK    5  A    between atoms: C_8  and  C_9 
REMARK    6  A    between atoms: C_9  and  C_10 
REMARK    7  A    between atoms: C_10  and  C_11 
REMARK    8  A    between atoms: C_11  and  C_12 
REMARK       I    between atoms: C_12  and  N_14 
REMARK    9  A    between atoms: N_14  and  N_15 
REMARK   10  A    between atoms: C_16  and  C_17 
REMARK   11  A    between atoms: C_19  and  N_20 
REMARK   12  A    between atoms: C_25  and  O_26 
ROOT
ATOM      1  C   UNL d   1      10.992  -7.372  -0.857  0.00  0.00     0.237 C 
ATOM      2  O   UNL d   1      10.177  -8.289  -0.971  0.00  0.00    -0.272 OA
ATOM      3  N   UNL d   1      12.376  -7.565  -0.862  0.00  0.00    -0.247 N 
ATOM      4  H   UNL d   1      13.031  -6.795  -0.796  0.00  0.00     0.192 HD
ENDROOT
BRANCH   3   5
ATOM      5  N   UNL d   1      12.841  -8.851  -1.020  0.00  0.00    -0.184 NA
ATOM      6  C   UNL d   1      14.116  -9.079  -1.034  0.00  0.00     0.153 C 
BRANCH   6   7
ATOM      7  C   UNL d   1      14.651 -10.462  -1.222  0.00  0.00     0.018 A 
ATOM      8  C   UNL d   1      15.710 -10.911  -0.416  0.00  0.00     0.051 A 
ATOM      9  C   UNL d   1      16.197 -12.225  -0.576  0.00  0.00     0.103 A 
ATOM     10  C   UNL d   1      15.653 -13.078  -1.547  0.00  0.00     0.039 A 
ATOM     11  C   UNL d   1      14.614 -12.619  -2.360  0.00  0.00     0.040 A 
ATOM     12  C   UNL d   1      14.120 -11.319  -2.198  0.00  0.00     0.077 A 
BRANCH   9  13
ATOM     13  N   UNL d   1      17.282 -12.720   0.288  0.00  0.00    -0.116 N 
ATOM     14  O   UNL d   1      17.738 -11.947   1.139  0.00  0.00    -0.532 OA
ATOM     15  O   UNL d   1      17.678 -13.883   0.110  0.00  0.00    -0.532 OA
ENDBRANCH   9  13
BRANCH  12  16
ATOM     16  O   UNL d   1      13.157 -10.856  -3.048  0.00  0.00    -0.360 OA
ATOM     17  H   UNL d   1      12.757 -11.582  -3.552  0.00  0.00     0.217 HD
ENDBRANCH  12  16
ENDBRANCH   6   7
ENDBRANCH   3   5
BRANCH   1  18
ATOM     18  C   UNL d   1      10.522  -5.923  -0.688  0.00  0.00     0.105 C 
BRANCH  18  19
ATOM     19  C   UNL d   1       8.977  -5.848  -0.679  0.00  0.00     0.010 C 
BRANCH  19  20
ATOM     20  C   UNL d   1       8.438  -4.427  -0.507  0.00  0.00     0.010 C 
BRANCH  20  21
ATOM     21  C   UNL d   1       6.898  -4.362  -0.499  0.00  0.00     0.103 C 
BRANCH  21  22
ATOM     22  C   UNL d   1       6.423  -2.924  -0.326  0.00  0.00     0.217 C 
ATOM     23  N   UNL d   1       5.055  -2.745  -0.304  0.00  0.00    -0.361 N 
ATOM     24  H   UNL d   1       4.433  -3.538  -0.399  0.00  0.00     0.162 HD
ATOM     25  O   UNL d   1       7.204  -1.979  -0.212  0.00  0.00    -0.274 OA
BRANCH  23  26
ATOM     26  C   UNL d   1       4.507  -1.408  -0.142  0.00  0.00     0.122 C 
BRANCH  26  27
ATOM     27  C   UNL d   1       2.983  -1.380  -0.139  0.00  0.00     0.019 C 
BRANCH  27  28
ATOM     28  C   UNL d   1       2.452   0.046   0.033  0.00  0.00    -0.003 C 
ATOM     29  C   UNL d   1       0.932   0.068   0.036  0.00  0.00     0.005 C 
ENDBRANCH  27  28
ENDBRANCH  26  27
ENDBRANCH  23  26
ENDBRANCH  21  22
ENDBRANCH  20  21
ENDBRANCH  19  20
ENDBRANCH  18  19
ENDBRANCH   1  18
TORSDOF 12
