@<TRIPOS>MOLECULE
*****
 49 50 0 0 0
SMALL
GASTEIGER

@<TRIPOS>ATOM
      1 C           1.0049   -0.0489    0.0774 C.2     1  UNL1       -0.1012
      2 C           2.3477   -0.0812    0.0841 C.2     1  UNL1       -0.0742
      3 C           3.1186   -1.3495    0.3081 C.3     1  UNL1        0.0300
      4 N           4.5494   -1.1162    0.2661 N.am    1  UNL1       -0.3078
      5 C           5.4266   -2.1897    0.3870 C.2     1  UNL1        0.2443
      6 O           5.0603   -3.3428    0.5340 O.2     1  UNL1       -0.2702
      7 C           6.8900   -1.8842    0.3616 C.ar    1  UNL1        0.0368
      8 C           7.8122   -2.7596   -0.2371 C.ar    1  UNL1       -0.0479
      9 C           9.2117   -2.5444   -0.1175 C.ar    1  UNL1       -0.0397
     10 C           9.7027   -1.4161    0.5568 C.ar    1  UNL1        0.0348
     11 N          11.1057   -1.1171    0.6058 N.am    1  UNL1       -0.2695
     12 C          11.6291    0.0288    1.1895 C.2     1  UNL1        0.3039
     13 O          10.9873    0.9188    1.7342 O.2     1  UNL1       -0.2525
     14 N          13.0000    0.1308    1.1848 N.am    1  UNL1       -0.2977
     15 C          13.5828    1.3407    1.7922 C.3     1  UNL1        0.0285
     16 C          15.1061    1.3561    1.7164 C.3     1  UNL1        0.0249
     17 N          15.7032    2.5977    2.1972 N.pl3   1  UNL1       -0.3371
     18 C          17.0348    2.9461    2.0075 C.ar    1  UNL1        0.1054
     19 C          17.7192    3.4570    3.1415 C.ar    1  UNL1       -0.0342
     20 C          19.0559    3.8828    3.0901 C.ar    1  UNL1       -0.0596
     21 C          19.7803    3.7409    1.9182 C.ar    1  UNL1       -0.0552
     22 C          19.1537    3.2198    0.7930 C.ar    1  UNL1        0.0175
     23 C          17.7943    2.8331    0.8220 C.ar    1  UNL1        0.2937
     24 N          17.2490    2.4267   -0.4863 N.pl3   1  UNL1        0.0815
     25 O          18.0547    1.9854   -1.3214 O.2     1  UNL1        0.0415
     26 O          16.0449    2.5836   -0.7274 O.co2   1  UNL1       -0.5760
     27 C           8.7541   -0.5857    1.1671 C.ar    1  UNL1       -0.0397
     28 C           7.3763   -0.7985    1.0707 C.ar    1  UNL1       -0.0479
     29 H           0.4593    0.8760   -0.0890 H       1  UNL1        0.0532
     30 H           0.4131   -0.9469    0.2375 H       1  UNL1        0.0532
     31 H           2.8802    0.8502   -0.0832 H       1  UNL1        0.0582
     32 H           2.8694   -2.0839   -0.4654 H       1  UNL1        0.0506
     33 H           2.8735   -1.7714    1.2893 H       1  UNL1        0.0506
     34 H           4.9036   -0.1902    0.0782 H       1  UNL1        0.1493
     35 H           7.4413   -3.6172   -0.7976 H       1  UNL1        0.0626
     36 H           9.8826   -3.2879   -0.5442 H       1  UNL1        0.0636
     37 H          11.7324   -1.7396    0.1145 H       1  UNL1        0.1564
     38 H          13.5524   -0.4063    0.5328 H       1  UNL1        0.1503
     39 H          13.2502    1.3930    2.8369 H       1  UNL1        0.0478
     40 H          13.1673    2.2239    1.2839 H       1  UNL1        0.0478
     41 H          15.3284    1.1572    0.6759 H       1  UNL1        0.0476
     42 H          15.5307    0.5111    2.2644 H       1  UNL1        0.0476
     43 H          15.1136    3.2748    2.6779 H       1  UNL1        0.1463
     44 H          17.2160    3.5110    4.1081 H       1  UNL1        0.0638
     45 H          19.5310    4.3264    3.9636 H       1  UNL1        0.0618
     46 H          20.8246    4.0386    1.8674 H       1  UNL1        0.0620
     47 H          19.7301    3.1483   -0.1274 H       1  UNL1        0.0686
     48 H           9.0418    0.2615    1.7741 H       1  UNL1        0.0636
     49 H           6.7161   -0.1202    1.6011 H       1  UNL1        0.0626
@<TRIPOS>UNITY_ATOM_ATTR
24 1
charge 1
26 1
charge -1
@<TRIPOS>BOND
     1     1     2    2
     2     2     3    1
     3     3     4    1
     4     4     5   am
     5     5     6    2
     6     5     7    1
     7     7     8   ar
     8     8     9   ar
     9     9    10   ar
    10    10    11    1
    11    11    12   am
    12    12    13    2
    13    12    14   am
    14    14    15    1
    15    15    16    1
    16    16    17    1
    17    17    18    1
    18    18    19   ar
    19    19    20   ar
    20    20    21   ar
    21    21    22   ar
    22    22    23   ar
    23    18    23   ar
    24    23    24    1
    25    24    25    2
    26    24    26    1
    27    10    27   ar
    28    27    28   ar
    29     7    28   ar
    30     1    29    1
    31     1    30    1
    32     2    31    1
    33     3    32    1
    34     3    33    1
    35     4    34    1
    36     8    35    1
    37     9    36    1
    38    11    37    1
    39    14    38    1
    40    15    39    1
    41    15    40    1
    42    16    41    1
    43    16    42    1
    44    17    43    1
    45    19    44    1
    46    20    45    1
    47    21    46    1
    48    22    47    1
    49    27    48    1
    50    28    49    1
