REMARK  9 active torsions:
REMARK  status: ('A' for Active; 'I' for Inactive)
REMARK    1  A    between atoms: C_2  and  C_4 
REMARK    2  A    between atoms: C_7  and  C_8 
REMARK    3  A    between atoms: C_8  and  C_9 
REMARK    4  A    between atoms: C_9  and  C_10 
REMARK    5  A    between atoms: C_10  and  N_11 
REMARK       I    between atoms: N_11  and  C_12 
REMARK       I    between atoms: C_12  and  N_14 
REMARK    6  A    between atoms: CA_15  and  N_14 
REMARK    7  A    between atoms: CA_15  and  C_18 
REMARK    8  A    between atoms: CA_15  and  C_16 
REMARK    9  A    between atoms: C_16  and  O_17 
ROOT
ATOM      1  N   UNL d   1       7.977  -0.210   8.230  0.00  0.00    -0.343 N 
ATOM      2  C   UNL d   1       8.965   0.253   9.045  0.00  0.00     0.316 C 
ATOM      3  O   UNL d   1      10.034  -0.317   9.188  0.00  0.00    -0.247 OA
ATOM      4  N   UNL d   1       8.741   1.434   9.684  0.00  0.00    -0.332 N 
ATOM      5  H   UNL d   1       7.045  -0.098   8.583  0.00  0.00     0.164 HD
ATOM      6  H   UNL d   1       9.472   1.604  10.366  0.00  0.00     0.165 HD
ENDROOT
BRANCH   1   7
ATOM      7  C   UNL d   1       8.156  -1.392   7.410  0.00  0.00     0.125 C 
BRANCH   7   8
ATOM      8  C   UNL d   1       6.901  -1.688   6.596  0.00  0.00     0.028 C 
BRANCH   8   9
ATOM      9  C   UNL d   1       7.077  -2.922   5.706  0.00  0.00     0.090 C 
BRANCH   9  10
ATOM     10  C   UNL d   1       5.842  -3.181   4.931  0.00  0.00     0.172 A 
ATOM     11  O   UNL d   1       5.835  -4.239   4.070  0.00  0.00    -0.196 OA
ATOM     12  N   UNL d   1       4.554  -4.270   3.500  0.00  0.00    -0.111 NA
ATOM     13  C   UNL d   1       3.931  -3.241   4.092  0.00  0.00     0.159 A 
ATOM     14  N   UNL d   1       4.703  -2.534   4.971  0.00  0.00    -0.208 NA
BRANCH  13  15
ATOM     15  C   UNL d   1       2.479  -2.942   3.906  0.00  0.00     0.051 C 
ATOM     16  C   UNL d   1       1.628  -4.077   4.478  0.00  0.00     0.018 C 
ATOM     17  C   UNL d   1       2.079  -1.624   4.583  0.00  0.00     0.018 C 
ENDBRANCH  13  15
ENDBRANCH   9  10
ENDBRANCH   8   9
ENDBRANCH   7   8
ENDBRANCH   1   7
BRANCH   4  18
ATOM     18  CA  UNL d   1       7.593   2.335   9.734  0.00  0.00     0.143 C 
BRANCH  18  19
ATOM     19  C   UNL d   1       7.996   3.814  10.017  0.00  0.00    -0.033 A 
ATOM     20  C   UNL d   1       8.675   4.188  11.181  0.00  0.00     0.009 A 
ATOM     21  C   UNL d   1       8.789   5.548  11.520  0.00  0.00     0.001 A 
ATOM     22  C   UNL d   1       8.268   6.551  10.698  0.00  0.00     0.000 A 
ATOM     23  C   UNL d   1       7.613   6.209   9.535  0.00  0.00     0.001 A 
ATOM     24  C   UNL d   1       7.513   4.870   9.195  0.00  0.00     0.009 A 
ENDBRANCH  18  19
BRANCH  18  25
ATOM     25  C   UNL d   1       6.633   2.342   8.518  0.00  0.00     0.194 C 
BRANCH  25  26
ATOM     26  O   UNL d   1       5.394   2.967   8.895  0.00  0.00    -0.398 OA
ATOM     27  H   UNL d   1       5.557   3.503   9.696  0.00  0.00     0.209 HD
ENDBRANCH  25  26
ENDBRANCH  18  25
ENDBRANCH   4  18
TORSDOF 9
