@<TRIPOS>MOLECULE
*****
 36 37 0 0 0
SMALL
GASTEIGER

@<TRIPOS>ATOM
      1 C           2.9130   -0.0477    0.0416 C.3     1  UNL1       -0.0397
      2 C           1.4164   -0.0779    0.1079 C.ar    1  UNL1       -0.0487
      3 C           0.6842   -1.2533    0.0154 C.ar    1  UNL1       -0.0585
      4 C          -0.7140   -1.2084    0.0104 C.ar    1  UNL1       -0.0568
      5 C          -1.4101    0.0158    0.0363 C.ar    1  UNL1       -0.0292
      6 C          -2.9127   -0.0036   -0.0022 C.3     1  UNL1       -0.0380
      7 C          -0.6691    1.2061    0.0935 C.ar    1  UNL1        0.0368
      8 N          -1.3097    2.4680    0.0068 N.am    1  UNL1       -0.2813
      9 C          -0.7133    3.7147   -0.0726 C.2     1  UNL1        0.2483
     10 O          -1.1746    4.6595    0.5743 O.2     1  UNL1       -0.2699
     11 C           0.4361    3.9513   -1.0117 C.ar    1  UNL1        0.0371
     12 C           1.1656    5.1402   -0.9360 C.ar    1  UNL1       -0.0490
     13 C           2.2826    5.3420   -1.7673 C.ar    1  UNL1       -0.0516
     14 C           2.7231    4.3420   -2.6533 C.ar    1  UNL1        0.0030
     15 C           3.9194    4.5183   -3.5408 C.2     1  UNL1        0.0768
     16 N           4.5717    5.7228   -3.5106 N.am    1  UNL1       -0.3518
     17 S           4.5386    3.3746   -4.6022 S.2     1  UNL1       -0.0352
     18 C           1.9839    3.1588   -2.7170 C.ar    1  UNL1       -0.0516
     19 C           0.8176    3.0065   -1.9708 C.ar    1  UNL1       -0.0490
     20 C           0.7250    1.1256    0.2263 C.ar    1  UNL1       -0.0373
     21 H           3.3319   -1.0563    0.0106 H       1  UNL1        0.0278
     22 H           3.3151    0.4693    0.9180 H       1  UNL1        0.0278
     23 H           3.2425    0.4827   -0.8610 H       1  UNL1        0.0278
     24 H           1.1939   -2.2114   -0.0363 H       1  UNL1        0.0620
     25 H          -1.2593   -2.1492   -0.0279 H       1  UNL1        0.0621
     26 H          -3.3005   -1.0287   -0.0054 H       1  UNL1        0.0278
     27 H          -3.2871    0.4945   -0.9020 H       1  UNL1        0.0278
     28 H          -3.3160    0.4917    0.8869 H       1  UNL1        0.0278
     29 H          -2.2985    2.5022    0.2224 H       1  UNL1        0.1551
     30 H           0.8713    5.9207   -0.2351 H       1  UNL1        0.0625
     31 H           2.7913    6.2957   -1.6862 H       1  UNL1        0.0624
     32 H           4.3161    6.5156   -2.9430 H       1  UNL1        0.1428
     33 H           5.3596    5.8458   -4.1369 H       1  UNL1        0.1428
     34 H           2.2840    2.3194   -3.3395 H       1  UNL1        0.0624
     35 H           0.2653    2.0823   -2.1102 H       1  UNL1        0.0625
     36 H           1.3235    2.0210    0.3636 H       1  UNL1        0.0639
@<TRIPOS>BOND
     1     1     2    1
     2     2     3   ar
     3     3     4   ar
     4     4     5   ar
     5     5     6    1
     6     5     7   ar
     7     7     8    1
     8     8     9   am
     9     9    10    2
    10     9    11    1
    11    11    12   ar
    12    12    13   ar
    13    13    14   ar
    14    14    15    1
    15    15    16    1
    16    15    17    2
    17    14    18   ar
    18    18    19   ar
    19    11    19   ar
    20     7    20   ar
    21     2    20   ar
    22     1    21    1
    23     1    22    1
    24     1    23    1
    25     3    24    1
    26     4    25    1
    27     6    26    1
    28     6    27    1
    29     6    28    1
    30     8    29    1
    31    12    30    1
    32    13    31    1
    33    16    32    1
    34    16    33    1
    35    18    34    1
    36    19    35    1
    37    20    36    1
