@<TRIPOS>MOLECULE
*****
 57 60 0 0 0
SMALL
GASTEIGER

@<TRIPOS>ATOM
      1 C           0.9138    0.0477    0.0153 C.3     1  UNL1       -0.0647
      2 C           2.4292    0.0599    0.0440 C.3     1  UNL1       -0.0493
      3 C           3.0174    1.1912    0.9015 C.3     1  UNL1       -0.0189
      4 C           2.5197    1.0802    2.3579 C.3     1  UNL1       -0.0584
      5 C           4.5403    1.1970    0.8916 C.ar    1  UNL1       -0.0444
      6 C           5.3390    0.2311    0.2568 C.ar    1  UNL1       -0.0566
      7 C           6.7373    0.2040    0.4281 C.ar    1  UNL1       -0.0402
      8 C           7.3776    1.2002    1.1698 C.ar    1  UNL1        0.0334
      9 N           8.8057    1.2393    1.2561 N.am    1  UNL1       -0.2848
     10 C           9.5184    2.2617    1.8810 C.2     1  UNL1        0.2275
     11 O           8.9672    3.2130    2.4573 O.2     1  UNL1       -0.2746
     12 C          11.0565    2.2062    1.8309 C.3     1  UNL1        0.0780
     13 S          11.6816    3.6724    2.7661 S.3     1  UNL1       -0.0752
     14 C          13.3974    3.6123    2.7129 C.ar    1  UNL1        0.2091
     15 N          14.1705    2.5545    2.6682 N.ar    1  UNL1       -0.1205
     16 N          15.4814    3.0071    2.6331 N.ar    1  UNL1       -0.1250
     17 C          15.4706    4.3266    2.7331 C.ar    1  UNL1        0.2018
     18 C          16.6706    5.2188    2.7622 C.ar    1  UNL1        0.1316
     19 C          16.9038    6.2291    3.7259 C.ar    1  UNL1       -0.0055
     20 C          18.0995    6.8210    3.3744 C.ar    1  UNL1        0.0664
     21 C          18.9264    7.7956    4.0718 C.ar    1  UNL1       -0.0001
     22 C          19.3809    8.9642    3.4493 C.ar    1  UNL1       -0.0512
     23 C          20.2792    9.8096    4.1128 C.ar    1  UNL1       -0.0428
     24 C          20.6653    9.5262    5.4226 C.ar    1  UNL1        0.0410
     25 CL         21.7095   10.6048    6.2622 Cl      1  UNL1       -0.0835
     26 C          20.1882    8.3879    6.0651 C.ar    1  UNL1       -0.0428
     27 C          19.3211    7.5267    5.3900 C.ar    1  UNL1       -0.0512
     28 N          18.4989    6.1546    2.2424 N.ar    1  UNL1       -0.2763
     29 N          17.6728    5.1555    1.8764 N.ar    1  UNL1       -0.1701
     30 N          14.1627    4.7593    2.7863 N.ar    1  UNL1       -0.2225
     31 N          13.6945    6.1131    2.6467 N.pl3   1  UNL1       -0.2945
     32 C           6.5675    2.1630    1.7785 C.ar    1  UNL1       -0.0402
     33 C           5.1874    2.1837    1.6255 C.ar    1  UNL1       -0.0566
     34 H           0.5642   -0.7639   -0.6275 H       1  UNL1        0.0230
     35 H           0.5304    0.9962   -0.3705 H       1  UNL1        0.0230
     36 H           0.4939   -0.1244    1.0093 H       1  UNL1        0.0230
     37 H           2.7897    0.1570   -0.9881 H       1  UNL1        0.0268
     38 H           2.7783   -0.9099    0.4210 H       1  UNL1        0.0268
     39 H           2.6753    2.1522    0.4893 H       1  UNL1        0.0346
     40 H           2.8550    0.1390    2.8083 H       1  UNL1        0.0236
     41 H           1.4300    1.1253    2.4247 H       1  UNL1        0.0236
     42 H           2.8870    1.8958    2.9896 H       1  UNL1        0.0236
     43 H           4.8904   -0.5317   -0.3753 H       1  UNL1        0.0621
     44 H           7.2842   -0.6195   -0.0236 H       1  UNL1        0.0636
     45 H           9.3078    0.5179    0.7498 H       1  UNL1        0.1548
     46 H          11.3813    2.2631    0.7875 H       1  UNL1        0.0475
     47 H          11.4034    1.2791    2.2939 H       1  UNL1        0.0475
     48 H          16.3166    6.4490    4.6058 H       1  UNL1        0.0662
     49 H          19.0354    9.2389    2.4551 H       1  UNL1        0.0625
     50 H          20.6765   10.6849    3.6047 H       1  UNL1        0.0632
     51 H          20.4938    8.1548    7.0815 H       1  UNL1        0.0632
     52 H          18.9681    6.6298    5.8953 H       1  UNL1        0.0625
     53 H          19.3517    6.2944    1.7092 H       1  UNL1        0.1889
     54 H          14.3558    6.8550    2.8499 H       1  UNL1        0.1627
     55 H          12.7686    6.2947    3.0262 H       1  UNL1        0.1627
     56 H           6.9543    2.9418    2.4192 H       1  UNL1        0.0636
     57 H           4.6327    2.9756    2.1240 H       1  UNL1        0.0621
@<TRIPOS>BOND
     1     1     2    1
     2     2     3    1
     3     3     4    1
     4     3     5    1
     5     5     6   ar
     6     6     7   ar
     7     7     8   ar
     8     8     9    1
     9     9    10   am
    10    10    11    2
    11    10    12    1
    12    12    13    1
    13    13    14    1
    14    14    15   ar
    15    15    16   ar
    16    16    17   ar
    17    17    18    1
    18    18    19   ar
    19    19    20   ar
    20    20    21    1
    21    21    22   ar
    22    22    23   ar
    23    23    24   ar
    24    24    25    1
    25    24    26   ar
    26    26    27   ar
    27    21    27   ar
    28    20    28   ar
    29    28    29   ar
    30    18    29   ar
    31    17    30   ar
    32    14    30   ar
    33    30    31    1
    34     8    32   ar
    35    32    33   ar
    36     5    33   ar
    37     1    34    1
    38     1    35    1
    39     1    36    1
    40     2    37    1
    41     2    38    1
    42     3    39    1
    43     4    40    1
    44     4    41    1
    45     4    42    1
    46     6    43    1
    47     7    44    1
    48     9    45    1
    49    12    46    1
    50    12    47    1
    51    19    48    1
    52    22    49    1
    53    23    50    1
    54    26    51    1
    55    27    52    1
    56    28    53    1
    57    31    54    1
    58    31    55    1
    59    32    56    1
    60    33    57    1
