@<TRIPOS>MOLECULE
*****
 40 42 0 0 0
SMALL
GASTEIGER

@<TRIPOS>ATOM
      1 O           1.0368   -0.0946    0.1289 O.2     1  UNL1       -0.2743
      2 C           2.2664   -0.0737    0.0566 C.2     1  UNL1        0.2296
      3 C           2.9790    0.3254   -1.2206 C.3     1  UNL1        0.0338
      4 C           1.9985    0.6780   -2.3470 C.3     1  UNL1        0.0348
      5 C           2.7219    0.9743   -3.6088 C.ar    1  UNL1        0.2281
      6 N           3.3259    0.1419   -4.4247 N.ar    1  UNL1       -0.1913
      7 C           3.8293    0.9832   -5.3891 C.ar    1  UNL1        0.2021
      8 C           4.5844    0.4857   -6.5242 C.ar    1  UNL1        0.0224
      9 C           5.8892    0.9346   -6.7636 C.ar    1  UNL1       -0.0509
     10 C           6.5848    0.5016   -7.8951 C.ar    1  UNL1       -0.0611
     11 C           6.0069   -0.4305   -8.7564 C.ar    1  UNL1       -0.0617
     12 C           4.7171   -0.9005   -8.5118 C.ar    1  UNL1       -0.0611
     13 C           4.0049   -0.4408   -7.4010 C.ar    1  UNL1       -0.0509
     14 N           3.5575    2.2826   -5.1838 N.ar    1  UNL1       -0.0561
     15 O           2.8051    2.2772   -4.0053 O.2     1  UNL1       -0.3377
     16 N           3.0321   -0.4140    1.1513 N.am    1  UNL1       -0.2332
     17 N           4.4459   -0.4507    1.2161 N.am    1  UNL1       -0.2182
     18 C           5.0425   -0.8345    2.4133 C.2     1  UNL1        0.3162
     19 O           4.3802   -1.1267    3.4113 O.2     1  UNL1       -0.2513
     20 N           6.4284   -0.8588    2.3776 N.am    1  UNL1       -0.2954
     21 C           7.2252   -1.1946    3.5353 C.3     1  UNL1        0.0247
     22 C           8.0676   -2.4463    3.5536 C.3     1  UNL1       -0.0328
     23 C           8.7342   -1.1037    3.5396 C.3     1  UNL1       -0.0328
     24 H           3.6117   -0.5130   -1.5328 H       1  UNL1        0.0363
     25 H           3.6192    1.1881   -1.0059 H       1  UNL1        0.0363
     26 H           1.3645    1.5264   -2.0606 H       1  UNL1        0.0365
     27 H           1.3225   -0.1647   -2.5383 H       1  UNL1        0.0365
     28 H           6.3713    1.6177   -6.0681 H       1  UNL1        0.0625
     29 H           7.5744    0.8972   -8.1093 H       1  UNL1        0.0618
     30 H           6.5632   -0.7916   -9.6182 H       1  UNL1        0.0618
     31 H           4.2609   -1.6143   -9.1933 H       1  UNL1        0.0618
     32 H           2.9924   -0.7995   -7.2283 H       1  UNL1        0.0625
     33 H           2.5395   -0.6875    2.0051 H       1  UNL1        0.1728
     34 H           4.9858   -0.2053    0.3990 H       1  UNL1        0.1744
     35 H           6.9114   -0.5409    1.5501 H       1  UNL1        0.1506
     36 H           6.7445   -0.9149    4.4731 H       1  UNL1        0.0499
     37 H           8.1396   -3.0512    2.6580 H       1  UNL1        0.0284
     38 H           8.1024   -3.0265    4.4706 H       1  UNL1        0.0284
     39 H           9.2691   -0.8198    2.6422 H       1  UNL1        0.0284
     40 H           9.2350   -0.7901    4.4523 H       1  UNL1        0.0284
@<TRIPOS>BOND
     1     1     2    2
     2     2     3    1
     3     3     4    1
     4     4     5    1
     5     5     6   ar
     6     6     7   ar
     7     7     8    1
     8     8     9   ar
     9     9    10   ar
    10    10    11   ar
    11    11    12   ar
    12    12    13   ar
    13     8    13   ar
    14     7    14   ar
    15    14    15   ar
    16     5    15   ar
    17     2    16   am
    18    16    17    1
    19    17    18   am
    20    18    19    2
    21    18    20   am
    22    20    21    1
    23    21    22    1
    24    22    23    1
    25    21    23    1
    26     3    24    1
    27     3    25    1
    28     4    26    1
    29     4    27    1
    30     9    28    1
    31    10    29    1
    32    11    30    1
    33    12    31    1
    34    13    32    1
    35    16    33    1
    36    17    34    1
    37    20    35    1
    38    21    36    1
    39    22    37    1
    40    22    38    1
    41    23    39    1
    42    23    40    1
