@<TRIPOS>MOLECULE
*****
 49 50 0 0 0
SMALL
GASTEIGER

@<TRIPOS>ATOM
      1 C           1.0669    0.0729    0.0403 C.3     1  UNL1       -0.0570
      2 C           2.5928    0.0620    0.1178 C.3     1  UNL1        0.0215
      3 C           3.0258   -0.1943    1.5510 C.2     1  UNL1        0.2169
      4 O           2.1930   -0.3669    2.4407 O.2     1  UNL1       -0.2755
      5 N           4.3957   -0.1865    1.7775 N.am    1  UNL1       -0.2855
      6 C           4.9428   -0.4966    3.0476 C.ar    1  UNL1        0.0341
      7 C           6.0859    0.1523    3.5121 C.ar    1  UNL1       -0.0404
      8 C           6.6460   -0.2291    4.7381 C.ar    1  UNL1       -0.0593
      9 C           6.0535   -1.2433    5.5077 C.ar    1  UNL1       -0.0495
     10 C           4.9088   -1.9112    5.0481 C.ar    1  UNL1        0.0399
     11 C           4.3363   -3.0611    5.8324 C.2     1  UNL1        0.2602
     12 O           4.8533   -3.4025    6.9016 O.2     1  UNL1       -0.2687
     13 N           3.2435   -3.7283    5.3013 N.am    1  UNL1       -0.2304
     14 N           2.6790   -4.8320    5.9737 N.am    1  UNL1       -0.2342
     15 C           1.5856   -5.4462    5.3921 C.2     1  UNL1        0.2291
     16 O           1.1235   -5.0594    4.3167 O.2     1  UNL1       -0.2743
     17 C           1.0068   -6.6210    6.1698 C.3     1  UNL1        0.0257
     18 C          -0.1976   -7.2110    5.4301 C.3     1  UNL1       -0.0408
     19 C          -0.8317   -8.3892    6.1667 C.3     1  UNL1       -0.0272
     20 C          -2.0119   -8.9749    5.4249 C.ar    1  UNL1       -0.0473
     21 C          -3.0616   -8.1660    4.9626 C.ar    1  UNL1       -0.0586
     22 C          -4.1954   -8.7340    4.3825 C.ar    1  UNL1       -0.0615
     23 C          -4.2648  -10.1115    4.1965 C.ar    1  UNL1       -0.0617
     24 C          -3.2202  -10.9252    4.6300 C.ar    1  UNL1       -0.0615
     25 C          -2.1055  -10.3617    5.2521 C.ar    1  UNL1       -0.0586
     26 C           4.3653   -1.5130    3.8231 C.ar    1  UNL1       -0.0283
     27 H           0.7156    0.2573   -0.9778 H       1  UNL1        0.0234
     28 H           0.6519    0.8518    0.6913 H       1  UNL1        0.0234
     29 H           0.6528   -0.8855    0.3765 H       1  UNL1        0.0234
     30 H           2.9844    1.0269   -0.2195 H       1  UNL1        0.0356
     31 H           2.9863   -0.7270   -0.5320 H       1  UNL1        0.0356
     32 H           5.0211    0.1660    1.0632 H       1  UNL1        0.1548
     33 H           6.5168    0.9922    2.9719 H       1  UNL1        0.0636
     34 H           7.5517    0.2589    5.0959 H       1  UNL1        0.0618
     35 H           6.4984   -1.5113    6.4653 H       1  UNL1        0.0625
     36 H           2.7738   -3.4826    4.4312 H       1  UNL1        0.1731
     37 H           3.1005   -5.0994    6.8601 H       1  UNL1        0.1728
     38 H           0.6946   -6.2746    7.1617 H       1  UNL1        0.0359
     39 H           1.7788   -7.3878    6.2954 H       1  UNL1        0.0359
     40 H           0.1030   -7.5366    4.4256 H       1  UNL1        0.0273
     41 H          -0.9383   -6.4152    5.2889 H       1  UNL1        0.0273
     42 H          -1.1740   -8.0844    7.1636 H       1  UNL1        0.0313
     43 H          -0.0711   -9.1656    6.3200 H       1  UNL1        0.0313
     44 H          -3.0148   -7.0832    5.0503 H       1  UNL1        0.0620
     45 H          -5.0258   -8.0991    4.0854 H       1  UNL1        0.0618
     46 H          -5.1333  -10.5495    3.7133 H       1  UNL1        0.0618
     47 H          -3.2787  -12.0019    4.4981 H       1  UNL1        0.0618
     48 H          -1.3080  -11.0136    5.6009 H       1  UNL1        0.0620
     49 H           3.4979   -2.0183    3.4213 H       1  UNL1        0.0644
@<TRIPOS>BOND
     1     1     2    1
     2     2     3    1
     3     3     4    2
     4     3     5   am
     5     5     6    1
     6     6     7   ar
     7     7     8   ar
     8     8     9   ar
     9     9    10   ar
    10    10    11    1
    11    11    12    2
    12    11    13   am
    13    13    14    1
    14    14    15   am
    15    15    16    2
    16    15    17    1
    17    17    18    1
    18    18    19    1
    19    19    20    1
    20    20    21   ar
    21    21    22   ar
    22    22    23   ar
    23    23    24   ar
    24    24    25   ar
    25    20    25   ar
    26    10    26   ar
    27     6    26   ar
    28     1    27    1
    29     1    28    1
    30     1    29    1
    31     2    30    1
    32     2    31    1
    33     5    32    1
    34     7    33    1
    35     8    34    1
    36     9    35    1
    37    13    36    1
    38    14    37    1
    39    17    38    1
    40    17    39    1
    41    18    40    1
    42    18    41    1
    43    19    42    1
    44    19    43    1
    45    21    44    1
    46    22    45    1
    47    23    46    1
    48    24    47    1
    49    25    48    1
    50    26    49    1
