@<TRIPOS>MOLECULE
*****
 44 46 0 0 0
SMALL
GASTEIGER

@<TRIPOS>ATOM
      1 O           1.0238   -0.0353   -0.1245 O.2     1  UNL1       -0.2737
      2 C           2.2540    0.0706   -0.0909 C.2     1  UNL1        0.2344
      3 C           2.9474    1.1044    0.8281 C.3     1  UNL1        0.0887
      4 N           2.0389    1.9879    1.5378 N.am    1  UNL1       -0.3027
      5 C           2.5419    2.8758    2.4681 C.2     1  UNL1        0.2459
      6 O           3.7433    3.0809    2.6201 O.2     1  UNL1       -0.2701
      7 C           1.5701    3.6639    3.2680 C.ar    1  UNL1        0.0550
      8 C           1.8574    5.0312    3.4377 C.ar    1  UNL1       -0.0482
      9 C           1.0084    5.8539    4.1825 C.ar    1  UNL1       -0.0610
     10 C          -0.1308    5.3174    4.7748 C.ar    1  UNL1       -0.0603
     11 C          -0.4135    3.9577    4.6294 C.ar    1  UNL1       -0.0427
     12 C           0.4345    3.1264    3.8829 C.ar    1  UNL1        0.0531
     13 CL          0.0309    1.4485    3.8205 Cl      1  UNL1       -0.0828
     14 N           3.0213   -0.6888   -0.9611 N.am    1  UNL1       -0.2842
     15 C           4.4196   -0.8309   -0.9711 C.ar    1  UNL1        0.0352
     16 C           5.1404   -1.0091   -2.1403 C.ar    1  UNL1       -0.0404
     17 C           6.5339   -1.1701   -2.0638 C.ar    1  UNL1       -0.0583
     18 C           7.2080   -1.1218   -0.8235 C.ar    1  UNL1       -0.0404
     19 C           6.4779   -0.9946    0.3583 C.ar    1  UNL1        0.0354
     20 N           7.0916   -1.0007    1.6437 N.am    1  UNL1       -0.2810
     21 C           6.4026   -0.9426    2.8658 C.2     1  UNL1        0.2549
     22 O           5.1744   -0.8839    2.9783 O.2     1  UNL1       -0.2693
     23 C           7.2091   -0.9696    4.0650 C.ar    1  UNL1        0.0742
     24 C           8.3618   -0.2797    4.3728 C.ar    1  UNL1       -0.0425
     25 C           8.7694   -0.4992    5.7228 C.ar    1  UNL1       -0.0540
     26 C           7.9231   -1.3523    6.3955 C.ar    1  UNL1       -0.0236
     27 S           6.6281   -1.8666    5.4131 S.2     1  UNL1       -0.0921
     28 C           5.0977   -0.8946    0.2355 C.ar    1  UNL1       -0.0192
     29 H           3.6229    1.7240    0.2288 H       1  UNL1        0.0558
     30 H           3.5044    0.6051    1.6167 H       1  UNL1        0.0558
     31 H           1.0535    1.7477    1.5199 H       1  UNL1        0.1495
     32 H           2.7510    5.4591    2.9850 H       1  UNL1        0.0625
     33 H           1.2397    6.9100    4.3034 H       1  UNL1        0.0618
     34 H          -0.7932    5.9530    5.3586 H       1  UNL1        0.0618
     35 H          -1.2969    3.5469    5.1135 H       1  UNL1        0.0632
     36 H           2.4881   -1.2320   -1.6297 H       1  UNL1        0.1549
     37 H           4.6484   -0.9807   -3.1089 H       1  UNL1        0.0636
     38 H           7.0978   -1.3353   -2.9809 H       1  UNL1        0.0619
     39 H           8.2912   -1.2121   -0.8175 H       1  UNL1        0.0636
     40 H           8.0975   -1.1092    1.6773 H       1  UNL1        0.1551
     41 H           8.8482    0.4014    3.6875 H       1  UNL1        0.0630
     42 H           9.6297   -0.0357    6.1869 H       1  UNL1        0.0623
     43 H           7.9870   -1.6840    7.4231 H       1  UNL1        0.0693
     44 H           4.4778   -0.9569    1.1082 H       1  UNL1        0.0655
@<TRIPOS>BOND
     1     1     2    2
     2     2     3    1
     3     3     4    1
     4     4     5   am
     5     5     6    2
     6     5     7    1
     7     7     8   ar
     8     8     9   ar
     9     9    10   ar
    10    10    11   ar
    11    11    12   ar
    12     7    12   ar
    13    12    13    1
    14     2    14   am
    15    14    15    1
    16    15    16   ar
    17    16    17   ar
    18    17    18   ar
    19    18    19   ar
    20    19    20    1
    21    20    21   am
    22    21    22    2
    23    21    23    1
    24    23    24   ar
    25    24    25   ar
    26    25    26   ar
    27    26    27   ar
    28    23    27   ar
    29    19    28   ar
    30    15    28   ar
    31     3    29    1
    32     3    30    1
    33     4    31    1
    34     8    32    1
    35     9    33    1
    36    10    34    1
    37    11    35    1
    38    14    36    1
    39    16    37    1
    40    17    38    1
    41    18    39    1
    42    20    40    1
    43    24    41    1
    44    25    42    1
    45    26    43    1
    46    28    44    1
