REMARK  9 active torsions:
REMARK  status: ('A' for Active; 'I' for Inactive)
REMARK    1  A    between atoms: O_2  and  C_3 
REMARK    2  A    between atoms: C_9  and  C_10 
REMARK       I    between atoms: C_10  and  N_12 
REMARK    3  A    between atoms: N_12  and  N_13 
REMARK       I    between atoms: N_13  and  C_14 
REMARK    4  A    between atoms: C_14  and  C_16 
REMARK    5  A    between atoms: C_16  and  S_17 
REMARK    6  A    between atoms: S_17  and  C_18 
REMARK    7  A    between atoms: N_23  and  C_24 
REMARK    8  A    between atoms: C_24  and  C_25 
REMARK    9  A    between atoms: C_25  and  C_26 
ROOT
ATOM      1  N   UNL d   1       4.460   3.221   0.643  0.00  0.00    -0.267 N 
ATOM      2  C   UNL d   1       3.789   4.040  -0.269  0.00  0.00     0.245 C 
ATOM      3  O   UNL d   1       2.973   3.569  -1.062  0.00  0.00    -0.271 OA
ATOM      4  H   UNL d   1       5.241   3.514   1.227  0.00  0.00     0.190 HD
ENDROOT
BRANCH   2   5
ATOM      5  C   UNL d   1       4.200   5.533  -0.209  0.00  0.00     0.186 C 
BRANCH   5   6
ATOM      6  S   UNL d   1       3.337   6.515  -1.536  0.00  0.00    -0.081 SA
BRANCH   6   7
ATOM      7  C   UNL d   1       4.042   8.109  -1.723  0.00  0.00     0.192 A 
ATOM      8  N   UNL d   1       3.299   9.174  -1.570  0.00  0.00    -0.145 NA
ATOM      9  N   UNL d   1       4.127  10.228  -1.865  0.00  0.00    -0.226 N 
ATOM     10  C   UNL d   1       5.394   9.777  -2.186  0.00  0.00     0.344 A 
ATOM     11  H   UNL d   1       3.845  11.198  -1.828  0.00  0.00     0.194 HD
ATOM     12  O   UNL d   1       6.372  10.453  -2.415  0.00  0.00    -0.245 OA
ATOM     13  N   UNL d   1       5.300   8.401  -2.161  0.00  0.00    -0.275 N 
BRANCH  13  14
ATOM     14  C   UNL d   1       6.459   7.633  -2.546  0.00  0.00     0.140 C 
BRANCH  14  15
ATOM     15  C   UNL d   1       6.166   6.167  -2.656  0.00  0.00     0.059 C 
BRANCH  15  16
ATOM     16  C   UNL d   1       7.266   5.187  -2.731  0.00  0.00    -0.057 A 
ATOM     17  C   UNL d   1       6.983   3.814  -2.647  0.00  0.00     0.007 A 
ATOM     18  C   UNL d   1       8.037   2.914  -2.618  0.00  0.00     0.001 A 
ATOM     19  C   UNL d   1       9.347   3.384  -2.729  0.00  0.00     0.000 A 
ATOM     20  C   UNL d   1       9.616   4.748  -2.767  0.00  0.00     0.001 A 
ATOM     21  C   UNL d   1       8.576   5.647  -2.743  0.00  0.00     0.007 A 
ENDBRANCH  15  16
ENDBRANCH  14  15
ENDBRANCH  13  14
ENDBRANCH   6   7
ENDBRANCH   5   6
ENDBRANCH   2   5
BRANCH   1  22
ATOM     22  N   UNL d   1       4.117   1.852   0.702  0.00  0.00    -0.263 N 
ATOM     23  C   UNL d   1       4.668   1.012   1.660  0.00  0.00     0.273 C 
ATOM     24  O   UNL d   1       5.553   1.390   2.425  0.00  0.00    -0.266 OA
ATOM     25  H   UNL d   1       3.374   1.539   0.074  0.00  0.00     0.190 HD
BRANCH  23  26
ATOM     26  C   UNL d   1       4.140  -0.404   1.737  0.00  0.00     0.068 A 
ATOM     27  C   UNL d   1       4.718  -1.284   2.678  0.00  0.00     0.044 A 
ATOM     28  C   UNL d   1       4.270  -2.606   2.790  0.00  0.00     0.035 A 
ATOM     29  C   UNL d   1       3.272  -3.088   1.951  0.00  0.00     0.026 A 
ATOM     30 CL   UNL d   1       4.949  -3.665   3.967  0.00  0.00    -0.084 Cl
ATOM     31  C   UNL d   1       2.693  -2.232   1.018  0.00  0.00     0.039 A 
ATOM     32  C   UNL d   1       3.087  -0.887   0.936  0.00  0.00     0.084 A 
BRANCH  32  33
ATOM     33  O   UNL d   1       2.494  -0.057   0.019  0.00  0.00    -0.355 OA
ATOM     34  C   UNL d   1       1.064  -0.069   0.071  0.00  0.00     0.210 C 
ENDBRANCH  32  33
ENDBRANCH  23  26
ENDBRANCH   1  22
TORSDOF 9
