@<TRIPOS>MOLECULE
*****
 50 53 0 0 0
SMALL
GASTEIGER

@<TRIPOS>ATOM
      1 C           1.0097    0.0498   -0.0688 C.3     1  UNL1       -0.0645
      2 C           2.5335    0.0258   -0.0660 C.3     1  UNL1       -0.0465
      3 C           3.0925   -1.3975    0.0956 C.3     1  UNL1       -0.0001
      4 S           4.9175   -1.3184    0.1132 S.3     1  UNL1       -0.0988
      5 C           5.4313   -2.9878    0.3036 C.ar    1  UNL1        0.1357
      6 N           4.6192   -3.9993    0.1356 N.ar    1  UNL1       -0.2327
      7 C           5.3179   -5.1854    0.2990 C.ar    1  UNL1        0.0796
      8 C           4.7607   -6.4558    0.1744 C.ar    1  UNL1       -0.0334
      9 C           5.5606   -7.5804    0.3586 C.ar    1  UNL1       -0.0384
     10 C           6.9207   -7.5193    0.6670 C.ar    1  UNL1        0.0346
     11 N           7.6920   -8.7207    0.8396 N.am    1  UNL1       -0.2848
     12 C           7.1578  -10.0108    0.7110 C.2     1  UNL1        0.2275
     13 O           5.9732  -10.2437    0.4444 O.2     1  UNL1       -0.2746
     14 C           8.1033  -11.1864    0.9317 C.3     1  UNL1        0.0780
     15 S           7.1721  -12.7466    0.7282 S.3     1  UNL1       -0.0752
     16 C           8.2037  -14.1025    0.9623 C.ar    1  UNL1        0.2091
     17 N           7.7632  -15.3422    0.8933 N.ar    1  UNL1       -0.1205
     18 N           8.8276  -16.1868    1.0878 N.ar    1  UNL1       -0.1267
     19 C           9.9009  -15.4496    1.3041 C.ar    1  UNL1        0.1816
     20 C          11.2286  -15.9563    1.6213 C.ar    1  UNL1        0.0208
     21 C          11.8647  -16.8673    0.7704 C.ar    1  UNL1       -0.0510
     22 C          13.0802  -17.4439    1.1452 C.ar    1  UNL1       -0.0611
     23 C          13.6986  -17.0616    2.3354 C.ar    1  UNL1       -0.0617
     24 C          13.0866  -16.1319    3.1727 C.ar    1  UNL1       -0.0611
     25 C          11.8500  -15.5921    2.8238 C.ar    1  UNL1       -0.0510
     26 N           9.5549  -14.1136    1.2044 N.ar    1  UNL1       -0.2237
     27 N          10.4748  -12.9999    1.2238 N.pl3   1  UNL1       -0.2945
     28 C           7.5037   -6.2423    0.7992 C.ar    1  UNL1       -0.0246
     29 C           6.6786   -5.0889    0.6081 C.ar    1  UNL1        0.0418
     30 S           7.0625   -3.4026    0.6852 S.2     1  UNL1       -0.0609
     31 H           0.6442    1.0766   -0.1850 H       1  UNL1        0.0230
     32 H           0.6083   -0.3444    0.8698 H       1  UNL1        0.0230
     33 H           0.6080   -0.5445   -0.8953 H       1  UNL1        0.0230
     34 H           2.8850    0.6697    0.7503 H       1  UNL1        0.0271
     35 H           2.8863    0.4706   -1.0052 H       1  UNL1        0.0271
     36 H           2.7426   -2.0255   -0.7311 H       1  UNL1        0.0380
     37 H           2.7305   -1.8291    1.0351 H       1  UNL1        0.0380
     38 H           3.7118   -6.5859   -0.0675 H       1  UNL1        0.0640
     39 H           5.0230   -8.5089    0.2371 H       1  UNL1        0.0637
     40 H           8.6769   -8.6088    1.0582 H       1  UNL1        0.1548
     41 H           8.4774  -11.1184    1.9565 H       1  UNL1        0.0475
     42 H           8.9061  -11.1285    0.1927 H       1  UNL1        0.0475
     43 H          11.4115  -17.1433   -0.1804 H       1  UNL1        0.0625
     44 H          13.5346  -18.2076    0.5188 H       1  UNL1        0.0618
     45 H          14.6532  -17.4992    2.6164 H       1  UNL1        0.0618
     46 H          13.5547  -15.8523    4.1126 H       1  UNL1        0.0618
     47 H          11.3606  -14.9073    3.5119 H       1  UNL1        0.0625
     48 H          11.3481  -13.2412    1.6880 H       1  UNL1        0.1627
     49 H          10.1102  -12.2121    1.7404 H       1  UNL1        0.1627
     50 H           8.5558   -6.1085    1.0373 H       1  UNL1        0.0648
@<TRIPOS>BOND
     1     1     2    1
     2     2     3    1
     3     3     4    1
     4     4     5    1
     5     5     6   ar
     6     6     7   ar
     7     7     8   ar
     8     8     9   ar
     9     9    10   ar
    10    10    11    1
    11    11    12   am
    12    12    13    2
    13    12    14    1
    14    14    15    1
    15    15    16    1
    16    16    17   ar
    17    17    18   ar
    18    18    19   ar
    19    19    20    1
    20    20    21   ar
    21    21    22   ar
    22    22    23   ar
    23    23    24   ar
    24    24    25   ar
    25    20    25   ar
    26    19    26   ar
    27    16    26   ar
    28    26    27    1
    29    10    28   ar
    30    28    29   ar
    31     7    29   ar
    32    29    30   ar
    33     5    30   ar
    34     1    31    1
    35     1    32    1
    36     1    33    1
    37     2    34    1
    38     2    35    1
    39     3    36    1
    40     3    37    1
    41     8    38    1
    42     9    39    1
    43    11    40    1
    44    14    41    1
    45    14    42    1
    46    21    43    1
    47    22    44    1
    48    23    45    1
    49    24    46    1
    50    25    47    1
    51    27    48    1
    52    27    49    1
    53    28    50    1
