REMARK  4 active torsions:
REMARK  status: ('A' for Active; 'I' for Inactive)
REMARK       I    between atoms: C_2  and  N_3 
REMARK    1  A    between atoms: C_2  and  C_12 
REMARK    2  A    between atoms: N_3  and  N_4 
REMARK    3  A    between atoms: C_5  and  C_6 
REMARK    4  A    between atoms: C_14  and  C_15 
ROOT
ATOM      1  C   UNL d   1       3.127   1.040   0.661  0.00  0.00     0.121 A 
ATOM      2  C   UNL d   1       2.902   1.667   1.875  0.00  0.00     0.071 A 
ATOM      3  C   UNL d   1       3.819   2.749   1.954  0.00  0.00     0.089 A 
ATOM      4  N   UNL d   1       4.573   2.799   0.847  0.00  0.00    -0.174 NA
ATOM      5  N   UNL d   1       4.132   1.773   0.089  0.00  0.00    -0.272 N 
ATOM      6  H   UNL d   1       4.519   1.675  -0.843  0.00  0.00     0.189 HD
ENDROOT
BRANCH   1   7
ATOM      7  C   UNL d   1       2.368  -0.016   0.034  0.00  0.00     0.289 C 
ATOM      8  O   UNL d   1       1.127  -0.033   0.123  0.00  0.00    -0.264 OA
ATOM      9  N   UNL d   1       3.082  -1.008  -0.638  0.00  0.00    -0.242 N 
ATOM     10  H   UNL d   1       4.085  -1.110  -0.523  0.00  0.00     0.192 HD
BRANCH   9  11
ATOM     11  N   UNL d   1       2.376  -1.986  -1.300  0.00  0.00    -0.182 NA
ATOM     12  C   UNL d   1       2.985  -3.060  -1.696  0.00  0.00     0.170 C 
BRANCH  12  13
ATOM     13  C   UNL d   1       2.229  -4.135  -2.394  0.00  0.00     0.075 A 
ATOM     14  C   UNL d   1       1.144  -3.806  -3.199  0.00  0.00     0.033 A 
ATOM     15  C   UNL d   1       0.406  -4.838  -3.773  0.00  0.00     0.004 A 
ATOM     16  C   UNL d   1       0.760  -6.155  -3.509  0.00  0.00     0.019 A 
ATOM     17  C   UNL d   1       1.870  -6.388  -2.707  0.00  0.00     0.117 A 
ATOM     18  N   UNL d   1       2.633  -5.408  -2.158  0.00  0.00    -0.260 NA
ENDBRANCH  12  13
ENDBRANCH   9  11
ENDBRANCH   1   7
BRANCH   3  19
ATOM     19  C   UNL d   1       3.949   3.705   3.055  0.00  0.00    -0.006 A 
ATOM     20  C   UNL d   1       4.279   3.248   4.340  0.00  0.00     0.015 A 
ATOM     21  C   UNL d   1       4.315   4.131   5.426  0.00  0.00     0.024 A 
ATOM     22  C   UNL d   1       4.018   5.478   5.234  0.00  0.00     0.034 A 
ATOM     23 CL   UNL d   1       4.014   6.552   6.579  0.00  0.00    -0.084 Cl
ATOM     24  C   UNL d   1       3.712   5.955   3.959  0.00  0.00     0.024 A 
ATOM     25  C   UNL d   1       3.686   5.071   2.870  0.00  0.00     0.015 A 
ENDBRANCH   3  19
TORSDOF 4
