@<TRIPOS>MOLECULE
*****
 57 58 0 0 0
SMALL
GASTEIGER

@<TRIPOS>ATOM
      1 C           0.9781    0.0056    0.0809 C.3     1  UNL1       -0.0570
      2 C           2.5043   -0.0681    0.0300 C.3     1  UNL1        0.0215
      3 C           2.9426   -1.3265   -0.7154 C.2     1  UNL1        0.2169
      4 O           2.1128   -2.1129   -1.1700 O.2     1  UNL1       -0.2755
      5 N           4.3163   -1.5296   -0.7917 N.am    1  UNL1       -0.2855
      6 C           4.8703   -2.6794   -1.4186 C.ar    1  UNL1        0.0334
      7 C           5.9429   -3.3573   -0.8390 C.ar    1  UNL1       -0.0398
      8 C           6.4884   -4.5055   -1.4650 C.ar    1  UNL1       -0.0478
      9 C           5.9609   -5.0201   -2.6686 C.ar    1  UNL1        0.0383
     10 C           6.4990   -6.3358   -3.2261 C.2     1  UNL1        0.2601
     11 O           7.4062   -6.9346   -2.6365 O.2     1  UNL1       -0.2687
     12 N           5.9246   -6.8458   -4.3829 N.am    1  UNL1       -0.2311
     13 N           6.3208   -8.1153   -4.9766 N.am    1  UNL1       -0.2453
     14 C           5.6769   -8.5294   -6.1595 C.2     1  UNL1        0.1533
     15 S           4.4596   -7.5577   -6.8191 S.2     1  UNL1       -0.0170
     16 N           6.1235   -9.7552   -6.7090 N.am    1  UNL1       -0.2627
     17 C           5.6846  -10.3296   -7.9238 C.2     1  UNL1        0.2497
     18 O           4.7672   -9.8890   -8.6217 O.2     1  UNL1       -0.2698
     19 C           6.2984  -11.5803   -8.4614 C.ar    1  UNL1        0.0405
     20 C           6.4152  -11.7221   -9.8546 C.ar    1  UNL1       -0.0494
     21 C           6.7280  -12.9583  -10.4308 C.ar    1  UNL1       -0.0576
     22 C           6.9304  -14.0719   -9.6164 C.ar    1  UNL1       -0.0199
     23 C           6.7869  -13.9539   -8.2303 C.ar    1  UNL1        0.1216
     24 O           6.8440  -15.1375   -7.5305 O.3     1  UNL1       -0.4891
     25 C           6.5342  -15.0825   -6.1270 C.3     1  UNL1        0.0972
     26 C           5.0629  -14.7049   -5.8787 C.3     1  UNL1       -0.0278
     27 C           6.7998  -16.4683   -5.5086 C.3     1  UNL1       -0.0189
     28 C           6.5743  -16.4631   -3.9998 C.3     1  UNL1       -0.0619
     29 C           6.5219  -12.6942   -7.6588 C.ar    1  UNL1       -0.0078
     30 C           4.9168   -4.2980   -3.2615 C.ar    1  UNL1       -0.0478
     31 C           4.3763   -3.1530   -2.6376 C.ar    1  UNL1       -0.0398
     32 H           0.6320    0.9051    0.5981 H       1  UNL1        0.0234
     33 H           0.5646   -0.8656    0.6028 H       1  UNL1        0.0234
     34 H           0.5556    0.0111   -0.9306 H       1  UNL1        0.0234
     35 H           2.8990   -0.0811    1.0521 H       1  UNL1        0.0356
     36 H           2.8933    0.8181   -0.4829 H       1  UNL1        0.0356
     37 H           4.9169   -0.9852   -0.1843 H       1  UNL1        0.1548
     38 H           6.3152   -3.0638    0.1408 H       1  UNL1        0.0636
     39 H           7.3271   -5.0085   -0.9844 H       1  UNL1        0.0626
     40 H           5.1570   -6.3875   -4.8706 H       1  UNL1        0.1731
     41 H           7.0643   -8.6063   -4.4833 H       1  UNL1        0.1718
     42 H           6.8827  -10.2260   -6.2371 H       1  UNL1        0.1569
     43 H           6.2286  -10.8665  -10.5018 H       1  UNL1        0.0625
     44 H           6.7697  -13.0594  -11.5139 H       1  UNL1        0.0619
     45 H           7.1731  -15.0324  -10.0696 H       1  UNL1        0.0654
     46 H           7.2284  -14.3775   -5.6513 H       1  UNL1        0.0730
     47 H           4.3984  -15.4588   -6.3091 H       1  UNL1        0.0265
     48 H           4.7521  -13.7620   -6.3274 H       1  UNL1        0.0265
     49 H           4.8593  -14.5926   -4.8123 H       1  UNL1        0.0265
     50 H           7.8263  -16.7891   -5.7249 H       1  UNL1        0.0298
     51 H           6.1490  -17.2165   -5.9789 H       1  UNL1        0.0298
     52 H           7.2310  -15.7323   -3.5166 H       1  UNL1        0.0231
     53 H           6.7677  -17.4484   -3.5707 H       1  UNL1        0.0231
     54 H           5.5417  -16.2089   -3.7428 H       1  UNL1        0.0231
     55 H           6.3837  -12.5819   -6.5935 H       1  UNL1        0.0662
     56 H           4.4812   -4.5876   -4.2108 H       1  UNL1        0.0626
     57 H           3.5623   -2.6249   -3.1323 H       1  UNL1        0.0636
@<TRIPOS>BOND
     1     1     2    1
     2     2     3    1
     3     3     4    2
     4     3     5   am
     5     5     6    1
     6     6     7   ar
     7     7     8   ar
     8     8     9   ar
     9     9    10    1
    10    10    11    2
    11    10    12   am
    12    12    13    1
    13    13    14    1
    14    14    15    2
    15    14    16    1
    16    16    17   am
    17    17    18    2
    18    17    19    1
    19    19    20   ar
    20    20    21   ar
    21    21    22   ar
    22    22    23   ar
    23    23    24    1
    24    24    25    1
    25    25    26    1
    26    25    27    1
    27    27    28    1
    28    23    29   ar
    29    19    29   ar
    30     9    30   ar
    31    30    31   ar
    32     6    31   ar
    33     1    32    1
    34     1    33    1
    35     1    34    1
    36     2    35    1
    37     2    36    1
    38     5    37    1
    39     7    38    1
    40     8    39    1
    41    12    40    1
    42    13    41    1
    43    16    42    1
    44    20    43    1
    45    21    44    1
    46    22    45    1
    47    25    46    1
    48    26    47    1
    49    26    48    1
    50    26    49    1
    51    27    50    1
    52    27    51    1
    53    28    52    1
    54    28    53    1
    55    28    54    1
    56    29    55    1
    57    30    56    1
    58    31    57    1
