@<TRIPOS>MOLECULE
*****
 51 53 0 0 0
SMALL
GASTEIGER

@<TRIPOS>ATOM
      1 C           1.1162   -0.0041    0.0290 C.3     1  UNL1       -0.0380
      2 C           2.6587   -0.0136    0.0807 C.3     1  UNL1        0.0983
      3 N           3.1736    0.1533    1.4636 N.am    1  UNL1       -0.2881
      4 C           2.7941    1.2594    2.2079 C.2     1  UNL1        0.3045
      5 O           2.1221    2.1664    1.7068 O.2     1  UNL1       -0.2525
      6 N           3.2536    1.2834    3.5088 N.am    1  UNL1       -0.2695
      7 C           2.8760    2.2841    4.4535 C.ar    1  UNL1        0.0348
      8 C           3.7782    2.7163    5.4348 C.ar    1  UNL1       -0.0404
      9 C           3.3624    3.5952    6.4504 C.ar    1  UNL1       -0.0600
     10 C           2.0538    4.0747    6.4758 C.ar    1  UNL1       -0.0616
     11 C           1.1597    3.6733    5.4892 C.ar    1  UNL1       -0.0600
     12 C           1.5718    2.7931    4.4822 C.ar    1  UNL1       -0.0404
     13 C           3.1272   -1.3051   -0.6660 C.2     1  UNL1        0.2373
     14 O           2.3081   -2.1000   -1.1342 O.2     1  UNL1       -0.2734
     15 N           4.4997   -1.4943   -0.7952 N.am    1  UNL1       -0.2827
     16 C           5.0137   -2.6902   -1.3717 C.ar    1  UNL1        0.0520
     17 C           4.5119   -3.2115   -2.5616 C.ar    1  UNL1       -0.0340
     18 C           4.9937   -4.4240   -3.0617 C.ar    1  UNL1        0.0017
     19 C           5.9728   -5.1087   -2.3585 C.ar    1  UNL1        0.2151
     20 O           6.4965   -6.3171   -2.7405 O.3     1  UNL1       -0.4716
     21 C           6.0072   -6.8646   -3.9702 C.3     1  UNL1        0.1163
     22 C           6.6882   -8.1843   -4.2398 C.ar    1  UNL1       -0.0103
     23 C           5.9694   -9.3877   -4.1979 C.ar    1  UNL1       -0.0554
     24 C           6.6355  -10.6095   -4.3046 C.ar    1  UNL1       -0.0614
     25 C           8.0081  -10.6379   -4.5431 C.ar    1  UNL1       -0.0617
     26 C           8.7217   -9.4455   -4.6474 C.ar    1  UNL1       -0.0614
     27 C           8.0664   -8.2241   -4.4908 C.ar    1  UNL1       -0.0554
     28 N           6.4992   -4.6142   -1.2130 N.ar    1  UNL1       -0.2195
     29 C           6.0220   -3.4216   -0.7563 C.ar    1  UNL1        0.0526
     30 H           0.6707    0.8972    0.4537 H       1  UNL1        0.0252
     31 H           0.7034   -0.8597    0.5753 H       1  UNL1        0.0252
     32 H           0.7610   -0.0636   -1.0072 H       1  UNL1        0.0252
     33 H           3.0265    0.8459   -0.4946 H       1  UNL1        0.0592
     34 H           3.5867   -0.6406    1.9312 H       1  UNL1        0.1510
     35 H           3.9915    0.6535    3.7853 H       1  UNL1        0.1564
     36 H           4.8253    2.4282    5.4017 H       1  UNL1        0.0636
     37 H           4.0555    3.9040    7.2305 H       1  UNL1        0.0618
     38 H           1.7303    4.7596    7.2568 H       1  UNL1        0.0618
     39 H           0.1305    4.0232    5.5092 H       1  UNL1        0.0618
     40 H           0.8368    2.4742    3.7486 H       1  UNL1        0.0636
     41 H           5.1117   -0.9391   -0.2108 H       1  UNL1        0.1549
     42 H           3.7485   -2.6853   -3.1279 H       1  UNL1        0.0638
     43 H           4.5765   -4.7971   -3.9877 H       1  UNL1        0.0671
     44 H           6.2245   -6.1876   -4.8062 H       1  UNL1        0.0748
     45 H           4.9238   -7.0270   -3.9052 H       1  UNL1        0.0748
     46 H           4.8906   -9.3855   -4.0591 H       1  UNL1        0.0621
     47 H           6.0870  -11.5395   -4.1792 H       1  UNL1        0.0618
     48 H           8.5225  -11.5898   -4.6423 H       1  UNL1        0.0618
     49 H           9.7943   -9.4657   -4.8198 H       1  UNL1        0.0618
     50 H           8.6368   -7.2992   -4.5417 H       1  UNL1        0.0621
     51 H           6.4505   -3.1053    0.1899 H       1  UNL1        0.0850
@<TRIPOS>BOND
     1     1     2    1
     2     2     3    1
     3     3     4   am
     4     4     5    2
     5     4     6   am
     6     6     7    1
     7     7     8   ar
     8     8     9   ar
     9     9    10   ar
    10    10    11   ar
    11    11    12   ar
    12     7    12   ar
    13     2    13    1
    14    13    14    2
    15    13    15   am
    16    15    16    1
    17    16    17   ar
    18    17    18   ar
    19    18    19   ar
    20    19    20    1
    21    20    21    1
    22    21    22    1
    23    22    23   ar
    24    23    24   ar
    25    24    25   ar
    26    25    26   ar
    27    26    27   ar
    28    22    27   ar
    29    19    28   ar
    30    28    29   ar
    31    16    29   ar
    32     1    30    1
    33     1    31    1
    34     1    32    1
    35     2    33    1
    36     3    34    1
    37     6    35    1
    38     8    36    1
    39     9    37    1
    40    10    38    1
    41    11    39    1
    42    12    40    1
    43    15    41    1
    44    17    42    1
    45    18    43    1
    46    21    44    1
    47    21    45    1
    48    23    46    1
    49    24    47    1
    50    25    48    1
    51    26    49    1
    52    27    50    1
    53    29    51    1
