@<TRIPOS>MOLECULE
*****
 51 52 0 0 0
SMALL
GASTEIGER

@<TRIPOS>ATOM
      1 C           0.9586   -0.0650    0.0246 C.3     1  UNL1       -0.0307
      2 C           2.4751   -0.0734    0.0359 C.3     1  UNL1        0.0868
      3 O           2.8820   -1.2692   -0.6344 O.3     1  UNL1       -0.4915
      4 C           4.2357   -1.4325   -0.7493 C.ar    1  UNL1        0.1326
      5 C           5.1070   -1.2426    0.3428 C.ar    1  UNL1       -0.0181
      6 C           6.4780   -1.4981    0.2303 C.ar    1  UNL1       -0.0443
      7 C           6.9872   -1.9596   -0.9738 C.ar    1  UNL1        0.0188
      8 BR          8.8373   -2.3293   -1.1235 Br      1  UNL1       -0.0503
      9 C           6.1334   -2.1573   -2.0612 C.ar    1  UNL1       -0.0321
     10 C           4.7389   -1.8998   -1.9686 C.ar    1  UNL1        0.0797
     11 C           3.9159   -2.1306   -3.2122 C.2     1  UNL1        0.2531
     12 O           4.5620   -2.5173   -4.1905 O.2     1  UNL1       -0.2697
     13 N           2.5164   -1.9029   -3.2435 N.am    1  UNL1       -0.2626
     14 C           1.6474   -2.0740   -4.3486 C.2     1  UNL1        0.1533
     15 S           2.1242   -2.5909   -5.8849 S.2     1  UNL1       -0.0170
     16 N           0.2915   -1.7743   -4.1173 N.am    1  UNL1       -0.2454
     17 N          -0.6675   -1.9296   -5.2100 N.am    1  UNL1       -0.2323
     18 C          -2.0196   -1.6504   -5.0373 C.2     1  UNL1        0.2667
     19 O          -2.4480   -1.2614   -3.9497 O.2     1  UNL1       -0.2705
     20 C          -2.9281   -1.8711   -6.2926 C.3     1  UNL1        0.1666
     21 O          -4.2874   -1.5249   -5.9887 O.3     1  UNL1       -0.4825
     22 C          -5.2303   -1.6707   -6.9774 C.ar    1  UNL1        0.1241
     23 C          -5.3224   -2.7986   -7.7920 C.ar    1  UNL1       -0.0194
     24 C          -6.3589   -2.9176   -8.7296 C.ar    1  UNL1       -0.0554
     25 C          -7.3308   -1.9204   -8.8602 C.ar    1  UNL1       -0.0500
     26 C          -8.4300   -2.0524   -9.8768 C.3     1  UNL1       -0.0397
     27 C          -7.2569   -0.7997   -8.0234 C.ar    1  UNL1       -0.0525
     28 C          -6.2172   -0.6702   -7.0784 C.ar    1  UNL1       -0.0085
     29 C          -6.1616    0.5362   -6.1821 C.3     1  UNL1       -0.0362
     30 H           0.5700    0.8303    0.5151 H       1  UNL1        0.0262
     31 H           0.5707   -0.9505    0.5402 H       1  UNL1        0.0262
     32 H           0.5789   -0.1052   -1.0016 H       1  UNL1        0.0262
     33 H           2.8176   -0.0524    1.0745 H       1  UNL1        0.0694
     34 H           2.8586    0.8012   -0.5024 H       1  UNL1        0.0694
     35 H           4.7398   -0.9243    1.3142 H       1  UNL1        0.0655
     36 H           7.1322   -1.3508    1.0880 H       1  UNL1        0.0630
     37 H           6.5615   -2.5221   -2.9956 H       1  UNL1        0.0637
     38 H           2.1140   -1.6079   -2.3608 H       1  UNL1        0.1569
     39 H          -0.1143   -1.4642   -3.2350 H       1  UNL1        0.1718
     40 H          -0.2680   -2.2515   -6.0918 H       1  UNL1        0.1729
     41 H          -2.8502   -2.9226   -6.5896 H       1  UNL1        0.0795
     42 H          -2.5724   -1.2292   -7.1085 H       1  UNL1        0.0795
     43 H          -4.6259   -3.6228   -7.6940 H       1  UNL1        0.0654
     44 H          -6.4091   -3.8083   -9.3525 H       1  UNL1        0.0621
     45 H          -8.3463   -2.9924  -10.4342 H       1  UNL1        0.0278
     46 H          -8.3782   -1.2340  -10.6024 H       1  UNL1        0.0278
     47 H          -9.4118   -2.0433   -9.3920 H       1  UNL1        0.0278
     48 H          -8.0169   -0.0229   -8.1052 H       1  UNL1        0.0624
     49 H          -6.9655    1.2472   -6.4003 H       1  UNL1        0.0279
     50 H          -5.2099    1.0588   -6.3231 H       1  UNL1        0.0279
     51 H          -6.2570    0.2327   -5.1346 H       1  UNL1        0.0279
@<TRIPOS>BOND
     1     1     2    1
     2     2     3    1
     3     3     4    1
     4     4     5   ar
     5     5     6   ar
     6     6     7   ar
     7     7     8    1
     8     7     9   ar
     9     9    10   ar
    10     4    10   ar
    11    10    11    1
    12    11    12    2
    13    11    13   am
    14    13    14    1
    15    14    15    2
    16    14    16    1
    17    16    17    1
    18    17    18   am
    19    18    19    2
    20    18    20    1
    21    20    21    1
    22    21    22    1
    23    22    23   ar
    24    23    24   ar
    25    24    25   ar
    26    25    26    1
    27    25    27   ar
    28    27    28   ar
    29    22    28   ar
    30    28    29    1
    31     1    30    1
    32     1    31    1
    33     1    32    1
    34     2    33    1
    35     2    34    1
    36     5    35    1
    37     6    36    1
    38     9    37    1
    39    13    38    1
    40    16    39    1
    41    17    40    1
    42    20    41    1
    43    20    42    1
    44    23    43    1
    45    24    44    1
    46    26    45    1
    47    26    46    1
    48    26    47    1
    49    27    48    1
    50    29    49    1
    51    29    50    1
    52    29    51    1
