@<TRIPOS>MOLECULE
*****
 63 68 0 0 0
SMALL
GASTEIGER

@<TRIPOS>ATOM
      1 O           1.0601    0.0271   -0.0742 O.2     1  UNL1       -0.2452
      2 C           2.2811    0.0203    0.0201 C.2     1  UNL1        0.3373
      3 C           3.0074   -0.9413    0.8801 C.2     1  UNL1        0.0264
      4 C           2.3655   -1.9179    1.5349 C.2     1  UNL1       -0.0126
      5 C           3.0862   -2.8526    2.3318 C.ar    1  UNL1        0.1279
      6 C           4.2259   -2.6831    3.1151 C.ar    1  UNL1       -0.0165
      7 C           4.5043   -3.9114    3.7592 C.ar    1  UNL1       -0.0233
      8 C           3.5511   -4.7889    3.3126 C.ar    1  UNL1        0.0925
      9 O           2.6977   -4.1679    2.4621 O.2     1  UNL1       -0.4635
     10 O           3.0709    0.9682   -0.6511 O.3     1  UNL1       -0.4228
     11 C           4.4752    0.9498   -0.8399 C.ar    1  UNL1        0.1320
     12 C           5.1582    2.1596   -0.7846 C.ar    1  UNL1       -0.0188
     13 C           6.5461    2.1527   -0.9500 C.ar    1  UNL1       -0.0518
     14 C           7.2556    0.9359   -1.0463 C.ar    1  UNL1       -0.0093
     15 C           8.7619    0.9241   -1.0593 C.3     1  UNL1        0.1141
     16 N           9.2858    0.3781   -2.2753 N.am    1  UNL1       -0.2891
     17 C          10.6314    0.4183   -2.4474 C.2     1  UNL1        0.2483
     18 O          11.1885    0.6990   -3.5106 O.2     1  UNL1       -0.2701
     19 C          11.3434   -0.0427   -1.2742 C.ar    1  UNL1        0.0687
     20 C          10.6697   -0.1442   -0.0735 C.ar    1  UNL1        0.0799
     21 S          11.7048   -0.6710    1.1730 S.2     1  UNL1       -0.0724
     22 C          13.0292   -0.8280    0.0910 C.ar    1  UNL1        0.0400
     23 C          12.6800   -0.5300   -1.2094 C.ar    1  UNL1       -0.0131
     24 C          13.6578   -0.4789   -2.3502 C.3     1  UNL1        0.0144
     25 C          15.1259   -0.7348   -1.9888 C.3     1  UNL1       -0.0271
     26 N          15.4891   -0.8619   -0.5067 N.4     1  UNL1        0.2424
     27 C          16.4071    0.2763   -0.0623 C.3     1  UNL1       -0.0056
     28 C          15.7977    1.6619   -0.0694 C.ar    1  UNL1       -0.0029
     29 C          14.5780    1.9481   -0.6777 C.ar    1  UNL1       -0.0535
     30 C          14.0692    3.1850   -1.0041 C.ar    1  UNL1       -0.0613
     31 C          14.7279    4.2599   -0.4906 C.ar    1  UNL1       -0.0617
     32 C          15.8960    4.0462    0.2546 C.ar    1  UNL1       -0.0613
     33 C          16.4479    2.7634    0.4446 C.ar    1  UNL1       -0.0535
     34 C          14.4087   -1.1277    0.5492 C.3     1  UNL1        0.0010
     35 N           9.3466    0.1436    0.0235 N.pl3   1  UNL1       -0.3162
     36 C           6.5328   -0.2570   -1.1513 C.ar    1  UNL1       -0.0518
     37 C           5.1453   -0.2401   -1.1123 C.ar    1  UNL1       -0.0188
     38 H           4.0794   -0.8685    0.9633 H       1  UNL1        0.0690
     39 H           1.2873   -2.0299    1.4648 H       1  UNL1        0.0656
     40 H           4.7681   -1.7564    3.2425 H       1  UNL1        0.0655
     41 H           5.2897   -4.1267    4.4699 H       1  UNL1        0.0649
     42 H           3.3428   -5.8314    3.5111 H       1  UNL1        0.1029
     43 H           4.6284    3.0942   -0.6098 H       1  UNL1        0.0654
     44 H           7.0697    3.1074   -0.9941 H       1  UNL1        0.0623
     45 H           9.1219    1.9595   -0.9772 H       1  UNL1        0.0759
     46 H           8.6980    0.1978   -3.0736 H       1  UNL1        0.1511
     47 H          13.6163    0.5249   -2.8077 H       1  UNL1        0.0366
     48 H          13.3464   -1.1585   -3.1431 H       1  UNL1        0.0366
     49 H          15.7447    0.0769   -2.4027 H       1  UNL1        0.0818
     50 H          15.4788   -1.6420   -2.4841 H       1  UNL1        0.0818
     51 H          16.0660   -1.7110   -0.4798 H       1  UNL1        0.2041
     52 H          16.7950   -0.0057    0.9242 H       1  UNL1        0.0867
     53 H          17.2591    0.2479   -0.7570 H       1  UNL1        0.0867
     54 H          13.8870    1.1902   -0.8863 H       1  UNL1        0.0622
     55 H          13.1608    3.2525   -1.6016 H       1  UNL1        0.0618
     56 H          14.3031    5.2453   -0.6409 H       1  UNL1        0.0618
     57 H          16.3964    4.9079    0.6791 H       1  UNL1        0.0618
     58 H          17.3707    2.6476    1.0054 H       1  UNL1        0.0622
     59 H          14.6724   -0.5214    1.4267 H       1  UNL1        0.0872
     60 H          14.5094   -2.1784    0.8332 H       1  UNL1        0.0872
     61 H           8.8048    0.0367    0.8751 H       1  UNL1        0.1486
     62 H           7.0467   -1.2086   -1.2654 H       1  UNL1        0.0623
     63 H           4.6041   -1.1732   -1.2317 H       1  UNL1        0.0654
@<TRIPOS>UNITY_ATOM_ATTR
26 1
charge 1
@<TRIPOS>BOND
     1     1     2    2
     2     2     3    1
     3     3     4    2
     4     4     5    1
     5     5     6   ar
     6     6     7   ar
     7     7     8   ar
     8     8     9   ar
     9     5     9   ar
    10     2    10    1
    11    10    11    1
    12    11    12   ar
    13    12    13   ar
    14    13    14   ar
    15    14    15    1
    16    15    16    1
    17    16    17   am
    18    17    18    2
    19    17    19    1
    20    19    20   ar
    21    20    21   ar
    22    21    22   ar
    23    22    23   ar
    24    19    23   ar
    25    23    24    1
    26    24    25    1
    27    25    26    1
    28    27    28    1
    29    28    29   ar
    30    29    30   ar
    31    30    31   ar
    32    31    32   ar
    33    32    33   ar
    34    28    33   ar
    35    26    34    1
    36    22    34    1
    37    20    35    1
    38    15    35    1
    39    14    36   ar
    40    36    37   ar
    41    11    37   ar
    42    26    27    1
    43     3    38    1
    44     4    39    1
    45     6    40    1
    46     7    41    1
    47     8    42    1
    48    12    43    1
    49    13    44    1
    50    15    45    1
    51    16    46    1
    52    24    47    1
    53    24    48    1
    54    25    49    1
    55    25    50    1
    56    26    51    1
    57    27    52    1
    58    27    53    1
    59    29    54    1
    60    30    55    1
    61    31    56    1
    62    32    57    1
    63    33    58    1
    64    34    59    1
    65    34    60    1
    66    35    61    1
    67    36    62    1
    68    37    63    1
