@<TRIPOS>MOLECULE
*****
 52 53 0 0 0
SMALL
GASTEIGER

@<TRIPOS>ATOM
      1 C           0.9500   -0.0626   -0.0563 C.3     1  UNL1       -0.0416
      2 C           2.4654   -0.0660   -0.0419 C.3     1  UNL1        0.0450
      3 O           2.9532    0.2206   -1.3530 O.3     1  UNL1       -0.3767
      4 C           4.3835    0.2089   -1.3776 C.3     1  UNL1        0.0817
      5 C           4.8864    0.5074   -2.7894 C.3     1  UNL1        0.1128
      6 O           6.3160    0.4207   -2.8043 O.3     1  UNL1       -0.4897
      7 C           6.9262    0.7840   -3.9747 C.ar    1  UNL1        0.1207
      8 C           8.0669    0.0706   -4.3257 C.ar    1  UNL1       -0.0192
      9 C           8.8102    0.4508   -5.4553 C.ar    1  UNL1       -0.0462
     10 C           8.3991    1.5100   -6.3033 C.ar    1  UNL1        0.0373
     11 C           9.1871    1.7453   -7.5696 C.2     1  UNL1        0.2495
     12 O          10.1549    0.9910   -7.7161 O.2     1  UNL1       -0.2698
     13 N           8.8189    2.7306   -8.5248 N.am    1  UNL1       -0.2627
     14 C           9.4621    2.9923   -9.7634 C.2     1  UNL1        0.1533
     15 S          10.8121    2.1676  -10.3550 S.2     1  UNL1       -0.0170
     16 N           8.9025    4.0312  -10.5340 N.am    1  UNL1       -0.2454
     17 N           9.5154    4.3773  -11.8159 N.am    1  UNL1       -0.2323
     18 C           9.0149    5.4093  -12.6052 C.2     1  UNL1        0.2667
     19 O           8.0251    6.0509  -12.2507 O.2     1  UNL1       -0.2705
     20 C           9.7776    5.6731  -13.9464 C.3     1  UNL1        0.1666
     21 O           9.2412    6.8137  -14.6358 O.3     1  UNL1       -0.4827
     22 C           9.7270    7.1022  -15.8857 C.ar    1  UNL1        0.1213
     23 C           9.8390    8.4611  -16.2157 C.ar    1  UNL1       -0.0185
     24 C          10.2377    8.8606  -17.4997 C.ar    1  UNL1       -0.0399
     25 C          10.5756    7.8973  -18.4447 C.ar    1  UNL1        0.0412
     26 CL         11.1938    8.3736  -19.9790 Cl      1  UNL1       -0.0835
     27 C          10.4418    6.5447  -18.1386 C.ar    1  UNL1       -0.0399
     28 C          10.0026    6.1486  -16.8658 C.ar    1  UNL1       -0.0185
     29 C           7.2692    2.2316   -5.9224 C.ar    1  UNL1       -0.0462
     30 C           6.5467    1.8726   -4.7635 C.ar    1  UNL1       -0.0192
     31 H           0.5562   -0.2803    0.9410 H       1  UNL1        0.0252
     32 H           0.5668   -0.8112   -0.7572 H       1  UNL1        0.0252
     33 H           0.5667    0.9096   -0.3820 H       1  UNL1        0.0252
     34 H           2.8275   -1.0495    0.2767 H       1  UNL1        0.0557
     35 H           2.8287    0.6948    0.6575 H       1  UNL1        0.0557
     36 H           4.7542   -0.7677   -1.0463 H       1  UNL1        0.0594
     37 H           4.7664    0.9666   -0.6825 H       1  UNL1        0.0594
     38 H           4.5238    1.5013   -3.0695 H       1  UNL1        0.0720
     39 H           4.4701   -0.2230   -3.4929 H       1  UNL1        0.0720
     40 H           8.3792   -0.7896   -3.7342 H       1  UNL1        0.0654
     41 H           9.7270   -0.1024   -5.6682 H       1  UNL1        0.0626
     42 H           8.0040    3.2866   -8.3150 H       1  UNL1        0.1569
     43 H           8.0930    4.5995  -10.2870 H       1  UNL1        0.1718
     44 H          10.3310    3.8188  -12.0695 H       1  UNL1        0.1729
     45 H           9.7012    4.7654  -14.5551 H       1  UNL1        0.0795
     46 H          10.8320    5.8758  -13.7225 H       1  UNL1        0.0795
     47 H           9.6240    9.2231  -15.4696 H       1  UNL1        0.0654
     48 H          10.2835    9.9171  -17.7546 H       1  UNL1        0.0633
     49 H          10.6666    5.7916  -18.8899 H       1  UNL1        0.0633
     50 H           9.8591    5.0905  -16.6825 H       1  UNL1        0.0654
     51 H           6.9229    3.0878   -6.4856 H       1  UNL1        0.0626
     52 H           5.6936    2.4824   -4.4860 H       1  UNL1        0.0654
@<TRIPOS>BOND
     1     1     2    1
     2     2     3    1
     3     3     4    1
     4     4     5    1
     5     5     6    1
     6     6     7    1
     7     7     8   ar
     8     8     9   ar
     9     9    10   ar
    10    10    11    1
    11    11    12    2
    12    11    13   am
    13    13    14    1
    14    14    15    2
    15    14    16    1
    16    16    17    1
    17    17    18   am
    18    18    19    2
    19    18    20    1
    20    20    21    1
    21    21    22    1
    22    22    23   ar
    23    23    24   ar
    24    24    25   ar
    25    25    26    1
    26    25    27   ar
    27    27    28   ar
    28    22    28   ar
    29    10    29   ar
    30    29    30   ar
    31     7    30   ar
    32     1    31    1
    33     1    32    1
    34     1    33    1
    35     2    34    1
    36     2    35    1
    37     4    36    1
    38     4    37    1
    39     5    38    1
    40     5    39    1
    41     8    40    1
    42     9    41    1
    43    13    42    1
    44    16    43    1
    45    17    44    1
    46    20    45    1
    47    20    46    1
    48    23    47    1
    49    24    48    1
    50    27    49    1
    51    28    50    1
    52    29    51    1
    53    30    52    1
