REMARK  11 active torsions:
REMARK  status: ('A' for Active; 'I' for Inactive)
REMARK    1  A    between atoms: C_2  and  N_3 
REMARK    2  A    between atoms: N_3  and  C_4 
REMARK    3  A    between atoms: N_3  and  C_32 
REMARK    4  A    between atoms: C_4  and  C_5 
REMARK    5  A    between atoms: C_5  and  C_6 
REMARK    6  A    between atoms: C_6  and  N_7 
REMARK       I    between atoms: N_7  and  C_8 
REMARK    7  A    between atoms: C_8  and  C_10 
REMARK    8  A    between atoms: C_10  and  C_11 
REMARK    9  A    between atoms: C_11  and  C_12 
REMARK       I    between atoms: C_12  and  N_14 
REMARK   10  A    between atoms: N_14  and  C_15 
REMARK   11  A    between atoms: C_20  and  N_21 
ROOT
ATOM      1  C   UNL d   1      -6.717  -1.607   3.045  0.00  0.00     0.222 C 
ATOM      2  O   UNL d   1      -6.878  -1.017   1.984  0.00  0.00    -0.273 OA
ATOM      3  N   UNL d   1      -7.768  -2.034   3.851  0.00  0.00    -0.327 N 
ATOM      4  H   UNL d   1      -7.569  -2.263   4.819  0.00  0.00     0.169 HD
ENDROOT
BRANCH   1   5
ATOM      5  C   UNL d   1      -5.332  -1.885   3.603  0.00  0.00     0.112 C 
BRANCH   5   6
ATOM      6  C   UNL d   1      -4.242  -1.356   2.654  0.00  0.00     0.112 C 
BRANCH   6   7
ATOM      7  C   UNL d   1      -2.870  -1.667   3.222  0.00  0.00     0.217 C 
ATOM      8  N   UNL d   1      -1.793  -1.253   2.473  0.00  0.00    -0.361 N 
ATOM      9  H   UNL d   1      -1.926  -0.765   1.591  0.00  0.00     0.162 HD
ATOM     10  O   UNL d   1      -2.723  -2.251   4.284  0.00  0.00    -0.274 OA
BRANCH   8  11
ATOM     11  C   UNL d   1      -0.440  -1.528   2.974  0.00  0.00     0.124 C 
BRANCH  11  12
ATOM     12  C   UNL d   1       0.581  -0.994   2.011  0.00  0.00     0.039 C 
BRANCH  12  13
ATOM     13  C   UNL d   1       2.063  -1.162   2.288  0.00  0.00     0.124 C 
BRANCH  13  14
ATOM     14  N   UNL d   1       2.960  -0.560   1.271  0.00  0.00    -0.381 N 
BRANCH  14  15
ATOM     15  C   UNL d   1       2.587   0.126   0.000  0.00  0.00     0.118 C 
ATOM     16  C   UNL d   1       1.120   0.313  -0.366  0.00  0.00     0.026 C 
ENDBRANCH  14  15
BRANCH  14  17
ATOM     17  C   UNL d   1       4.353  -0.723   1.480  0.00  0.00     0.030 C 
ATOM     18  C   UNL d   1       5.250   0.344   1.288  0.00  0.00     0.029 C 
ATOM     19  C   UNL d   1       6.635   0.192   1.447  0.00  0.00     0.003 C 
ATOM     20  C   UNL d   1       7.177  -1.065   1.682  0.00  0.00     0.007 C 
ATOM     21  C   UNL d   1       6.328  -2.154   1.873  0.00  0.00    -0.060 C 
ATOM     22  C   UNL d   1       6.907  -3.532   2.035  0.00  0.00     0.048 C 
ATOM     23  C   UNL d   1       4.928  -1.954   1.856  0.00  0.00     0.036 C 
ENDBRANCH  14  17
ENDBRANCH  13  14
ENDBRANCH  12  13
ENDBRANCH  11  12
ENDBRANCH   8  11
ENDBRANCH   6   7
ENDBRANCH   5   6
ENDBRANCH   1   5
BRANCH   3  24
ATOM     24  C   UNL d   1      -9.118  -1.872   3.465  0.00  0.00     0.035 C 
ATOM     25  C   UNL d   1      -9.543  -2.189   2.175  0.00  0.00     0.032 C 
ATOM     26  C   UNL d   1     -10.906  -2.197   1.857  0.00  0.00     0.033 C 
ATOM     27  C   UNL d   1     -11.827  -1.613   2.731  0.00  0.00     0.044 A 
ATOM     28  N   UNL d   1     -13.103  -1.407   2.350  0.00  0.00    -0.342 N 
ATOM     29  C   UNL d   1     -11.396  -1.160   3.997  0.00  0.00    -0.001 A 
ATOM     30  C   UNL d   1     -14.005  -0.704   3.053  0.00  0.00     0.104 A 
ATOM     31  H   UNL d   1     -13.403  -1.699   1.426  0.00  0.00     0.167 HD
ATOM     32  C   UNL d   1     -13.607  -0.192   4.288  0.00  0.00     0.056 A 
ATOM     33  C   UNL d   1     -12.316  -0.435   4.782  0.00  0.00    -0.046 A 
ATOM     34  C   UNL d   1     -11.907   0.148   6.109  0.00  0.00     0.049 C 
ATOM     35  C   UNL d   1     -10.057  -1.417   4.390  0.00  0.00     0.043 C 
BRANCH  30  36
ATOM     36  N   UNL d   1     -15.209  -0.456   2.452  0.00  0.00    -0.363 N 
ATOM     37  C   UNL d   1     -15.798   0.903   2.420  0.00  0.00     0.150 C 
ATOM     38  C   UNL d   1     -17.081   1.008   3.260  0.00  0.00     0.187 C 
ATOM     39  O   UNL d   1     -18.012  -0.021   2.905  0.00  0.00    -0.388 OA
ATOM     40  C   UNL d   1     -17.447  -1.315   3.144  0.00  0.00     0.187 C 
ATOM     41  C   UNL d   1     -16.198  -1.539   2.271  0.00  0.00     0.150 C 
ENDBRANCH  30  36
ENDBRANCH   3  24
TORSDOF 11
