@<TRIPOS>MOLECULE
*****
 57 59 0 0 0
SMALL
GASTEIGER

@<TRIPOS>ATOM
      1 C           0.9119   -0.0651   -0.1081 C.2     1  UNL1       -0.1010
      2 C           2.2405   -0.1196   -0.2523 C.2     1  UNL1       -0.0715
      3 C           3.1187   -0.9755    0.5609 C.3     1  UNL1        0.0448
      4 N           4.5451   -0.7705    0.4663 N.ar    1  UNL1       -0.3006
      5 C           5.2748    0.4012    0.4339 C.ar    1  UNL1        0.1924
      6 S           4.8294    2.0948    0.5307 S.3     1  UNL1       -0.0766
      7 C           3.0598    2.4014    0.7628 C.3     1  UNL1        0.0779
      8 C           2.6736    3.8679    0.9337 C.2     1  UNL1        0.2275
      9 O           3.5117    4.7461    1.1078 O.2     1  UNL1       -0.2746
     10 N           1.2836    4.1104    0.8768 N.am    1  UNL1       -0.2846
     11 C           0.7472    5.4318    0.8937 C.ar    1  UNL1        0.0364
     12 C          -0.2677    5.7576    1.8138 C.ar    1  UNL1       -0.0388
     13 C          -0.7718    7.0691    1.8908 C.ar    1  UNL1       -0.0416
     14 C          -0.3149    8.0413    1.0081 C.ar    1  UNL1        0.0413
     15 CL         -0.9217    9.6502    1.0859 Cl      1  UNL1       -0.0835
     16 C           0.6390    7.7149    0.0522 C.ar    1  UNL1       -0.0387
     17 C           1.1839    6.4185   -0.0141 C.ar    1  UNL1       -0.0279
     18 C           2.1809    6.1449   -1.1055 C.3     1  UNL1       -0.0379
     19 N           6.5422    0.0756    0.2721 N.ar    1  UNL1       -0.1224
     20 N           6.6589   -1.2888    0.2300 N.ar    1  UNL1       -0.1315
     21 C           5.4664   -1.8300    0.4048 C.ar    1  UNL1        0.1570
     22 CA          5.2450   -3.3613    0.4922 C.3     1  UNL1        0.1063
     23 C           6.0722   -3.9674    1.6559 C.3     1  UNL1        0.0697
     24 O           7.4806   -3.8235    1.5299 O.3     1  UNL1       -0.3927
     25 N           3.8304   -3.7508    0.6415 N.am    1  UNL1       -0.2993
     26 C           3.3647   -5.0415    0.6431 C.2     1  UNL1        0.2447
     27 O           4.0771   -6.0376    0.5447 O.2     1  UNL1       -0.2702
     28 C           1.8910   -5.1832    0.8361 C.ar    1  UNL1        0.0367
     29 C           1.4007   -6.1675    1.6997 C.ar    1  UNL1       -0.0496
     30 C           0.0338   -6.4606    1.7197 C.ar    1  UNL1       -0.0610
     31 C          -0.8552   -5.7196    0.9408 C.ar    1  UNL1       -0.0617
     32 C          -0.3766   -4.6992    0.1192 C.ar    1  UNL1       -0.0610
     33 C           0.9952   -4.4299    0.0623 C.ar    1  UNL1       -0.0496
     34 H           0.3352    0.6252   -0.7138 H       1  UNL1        0.0532
     35 H           0.3787   -0.7198    0.5760 H       1  UNL1        0.0532
     36 H           2.7345    0.4542   -1.0306 H       1  UNL1        0.0584
     37 H           2.9181   -1.9002    0.0403 H       1  UNL1        0.0536
     38 H           2.8650   -1.0419    1.6262 H       1  UNL1        0.0536
     39 H           2.6929    1.8395    1.6238 H       1  UNL1        0.0475
     40 H           2.5487    2.1653   -0.1650 H       1  UNL1        0.0475
     41 H           0.6532    3.3612    1.1417 H       1  UNL1        0.1548
     42 H          -0.6333    5.0324    2.5369 H       1  UNL1        0.0637
     43 H          -1.5039    7.3370    2.6502 H       1  UNL1        0.0633
     44 H           0.9708    8.4749   -0.6519 H       1  UNL1        0.0635
     45 H           2.2893    7.0047   -1.7722 H       1  UNL1        0.0278
     46 H           1.8620    5.2882   -1.7069 H       1  UNL1        0.0278
     47 H           3.1764    5.9722   -0.7025 H       1  UNL1        0.0278
     48 HA          5.6078   -3.7892   -0.4548 H       1  UNL1        0.0603
     49 H1          5.8887   -5.0415    1.7431 H       1  UNL1        0.0580
     50 H2          5.7608   -3.5145    2.6028 H       1  UNL1        0.0580
     51 H           7.7391   -4.1274    0.6429 H       1  UNL1        0.2095
     52 H           3.2588   -3.1801    1.2379 H       1  UNL1        0.1498
     53 H           2.0809   -6.7284    2.3364 H       1  UNL1        0.0625
     54 H          -0.3350   -7.2940    2.3142 H       1  UNL1        0.0618
     55 H          -1.9185   -5.9516    0.9620 H       1  UNL1        0.0618
     56 H          -1.0703   -4.1515   -0.5154 H       1  UNL1        0.0618
     57 H           1.3545   -3.6778   -0.6340 H       1  UNL1        0.0625
@<TRIPOS>BOND
     1     1     2    2
     2     2     3    1
     3     3     4    1
     4     4     5   ar
     5     5     6    1
     6     6     7    1
     7     7     8    1
     8     8     9    2
     9     8    10   am
    10    10    11    1
    11    11    12   ar
    12    12    13   ar
    13    13    14   ar
    14    14    15    1
    15    14    16   ar
    16    16    17   ar
    17    11    17   ar
    18    17    18    1
    19     5    19   ar
    20    19    20   ar
    21    20    21   ar
    22     4    21   ar
    23    21    22    1
    24    22    23    1
    25    23    24    1
    26    22    25    1
    27    25    26   am
    28    26    27    2
    29    26    28    1
    30    28    29   ar
    31    29    30   ar
    32    30    31   ar
    33    31    32   ar
    34    32    33   ar
    35    28    33   ar
    36     1    34    1
    37     1    35    1
    38     2    36    1
    39     3    37    1
    40     3    38    1
    41     7    39    1
    42     7    40    1
    43    10    41    1
    44    12    42    1
    45    13    43    1
    46    16    44    1
    47    18    45    1
    48    18    46    1
    49    18    47    1
    50    22    48    1
    51    23    49    1
    52    23    50    1
    53    24    51    1
    54    25    52    1
    55    29    53    1
    56    30    54    1
    57    31    55    1
    58    32    56    1
    59    33    57    1
