REMARK  9 active torsions:
REMARK  status: ('A' for Active; 'I' for Inactive)
REMARK    1  A    between atoms: C_2  and  O_3 
REMARK    2  A    between atoms: C_2  and  C_11 
REMARK    3  A    between atoms: O_3  and  C_4 
REMARK       I    between atoms: C_11  and  N_13 
REMARK    4  A    between atoms: N_13  and  C_14 
REMARK    5  A    between atoms: C_17  and  N_18 
REMARK    6  A    between atoms: N_18  and  C_19 
REMARK    7  A    between atoms: C_19  and  N_21 
REMARK       I    between atoms: N_21  and  C_22 
REMARK    8  A    between atoms: C_22  and  C_24 
REMARK    9  A    between atoms: C_28  and  N_29 
ROOT
ATOM      1  C   UNL d   1       4.998  -2.479   1.434  0.00  0.00     0.034 A 
ATOM      2  C   UNL d   1       6.195  -2.492   2.160  0.00  0.00     0.032 A 
ATOM      3  C   UNL d   1       6.789  -3.723   2.604  0.00  0.00     0.032 A 
ATOM      4  C   UNL d   1       6.177  -4.960   2.335  0.00  0.00     0.034 A 
ATOM      5  C   UNL d   1       5.030  -4.862   1.558  0.00  0.00     0.032 A 
ATOM      6  C   UNL d   1       4.417  -3.689   1.161  0.00  0.00     0.032 A 
ENDROOT
BRANCH   4   7
ATOM      7  N   UNL d   1       6.676  -6.247   2.827  0.00  0.00    -0.333 N 
ATOM      8  H   UNL d   1       7.516  -6.174   3.391  0.00  0.00     0.168 HD
BRANCH   7   9
ATOM      9  C   UNL d   1       6.034  -7.521   2.690  0.00  0.00     0.179 C 
ATOM     10  S   UNL d   1       4.552  -7.812   1.926  0.00  0.00    -0.040 SA
BRANCH   9  11
ATOM     11  N   UNL d   1       6.723  -8.619   3.262  0.00  0.00    -0.299 N 
ATOM     12  C   UNL d   1       6.263  -9.952   3.126  0.00  0.00     0.257 C 
ATOM     13  O   UNL d   1       5.266 -10.334   2.525  0.00  0.00    -0.267 OA
ATOM     14  H   UNL d   1       7.572  -8.458   3.781  0.00  0.00     0.171 HD
BRANCH  12  15
ATOM     15  C   UNL d   1       6.937 -11.099   3.739  0.00  0.00     0.034 A 
ATOM     16  C   UNL d   1       6.836 -12.318   3.025  0.00  0.00     0.017 A 
ATOM     17  C   UNL d   1       7.092 -13.536   3.642  0.00  0.00     0.003 A 
ATOM     18  C   UNL d   1       7.519 -13.542   4.963  0.00  0.00     0.036 A 
ATOM     19  C   UNL d   1       7.618 -12.330   5.670  0.00  0.00     0.103 A 
ATOM     20  C   UNL d   1       7.317 -11.096   5.070  0.00  0.00     0.053 A 
BRANCH  19  21
ATOM     21  N   UNL d   1       7.979 -12.349   7.089  0.00  0.00    -0.116 N 
ATOM     22  O   UNL d   1       8.244 -13.451   7.601  0.00  0.00    -0.532 OA
ATOM     23  O   UNL d   1       8.006 -11.270   7.688  0.00  0.00    -0.532 OA
ENDBRANCH  19  21
ENDBRANCH  12  15
ENDBRANCH   9  11
ENDBRANCH   7   9
ENDBRANCH   4   7
BRANCH   1  24
ATOM     24  N   UNL d   1       4.421  -1.309   0.889  0.00  0.00    -0.325 N 
ATOM     25  C   UNL d   1       3.046  -1.174   0.725  0.00  0.00     0.251 C 
ATOM     26  O   UNL d   1       2.237  -2.001   1.158  0.00  0.00    -0.270 OA
ATOM     27  H   UNL d   1       5.029  -0.540   0.650  0.00  0.00     0.169 HD
BRANCH  25  28
ATOM     28  C   UNL d   1       2.554   0.077  -0.047  0.00  0.00     0.217 C 
ATOM     29  C   UNL d   1       1.057  -0.148  -0.220  0.00  0.00     0.050 C 
BRANCH  28  30
ATOM     30  O   UNL d   1       2.847   1.282   0.697  0.00  0.00    -0.335 OA
BRANCH  30  31
ATOM     31  C   UNL d   1       2.542   2.485   0.092  0.00  0.00     0.091 C 
ATOM     32  C   UNL d   1       3.621   3.360  -0.111  0.00  0.00     0.038 C 
ATOM     33  C   UNL d   1       3.428   4.622  -0.697  0.00  0.00     0.003 C 
ATOM     34  C   UNL d   1       2.167   5.001  -1.146  0.00  0.00     0.002 C 
ATOM     35  C   UNL d   1       1.086   4.169  -0.911  0.00  0.00     0.026 C 
ATOM     36  C   UNL d   1       1.254   2.982  -0.191  0.00  0.00     0.067 C 
ATOM     37 CL   UNL d   1      -0.233   2.422   0.507  0.00  0.00    -0.081 Cl
ENDBRANCH  30  31
ENDBRANCH  28  30
ENDBRANCH  25  28
ENDBRANCH   1  24
TORSDOF 9
