@<TRIPOS>MOLECULE
*****
 69 71 0 0 0
SMALL
GASTEIGER

@<TRIPOS>ATOM
      1 C           0.9606   -0.9308   -0.4114 C.3     1  UNL1       -0.0652
      2 C           2.4512   -0.7288   -0.3822 C.3     1  UNL1       -0.0528
      3 C           3.0385   -1.5755    0.6913 C.3     1  UNL1       -0.0189
      4 C           4.5338   -1.5497    0.5509 C.3     1  UNL1        0.0896
      5 O           4.9293   -2.1798    1.7530 O.3     1  UNL1       -0.4912
      6 C           6.2585   -2.1890    1.9893 C.ar    1  UNL1        0.1326
      7 C           6.8080   -3.4834    2.1211 C.ar    1  UNL1       -0.0192
      8 C           8.1369   -3.6671    2.4889 C.ar    1  UNL1       -0.0583
      9 C           8.9473   -2.5543    2.6360 C.ar    1  UNL1       -0.0608
     10 C           8.3919   -1.2694    2.5113 C.ar    1  UNL1       -0.0461
     11 C           7.0156   -1.0477    2.2360 C.ar    1  UNL1        0.0786
     12 C           6.5484    0.3989    2.1688 C.2     1  UNL1        0.2530
     13 O           7.4754    1.2109    2.1928 O.2     1  UNL1       -0.2697
     14 N           5.1647    0.7935    2.0938 N.am    1  UNL1       -0.2635
     15 C           4.6694    1.9619    1.4276 C.2     1  UNL1        0.1401
     16 S           5.7104    3.2312    0.9826 S.2     1  UNL1       -0.0183
     17 N           3.2571    2.0399    1.0864 N.am    1  UNL1       -0.2988
     18 C           2.8122    2.9909    0.0217 C.3     1  UNL1        0.0301
     19 C           1.8353    2.3389   -0.9518 C.3     1  UNL1        0.0274
     20 N           0.6554    1.9316   -0.2168 N.am    1  UNL1       -0.3123
     21 C           0.7087    1.4300    1.0635 C.2     1  UNL1        0.2341
     22 O          -0.3255    0.9892    1.5741 O.2     1  UNL1       -0.2738
     23 C           2.0537    1.5271    1.8701 C.3     1  UNL1        0.1113
     24 C           1.5437    2.4374    2.9745 C.3     1  UNL1        0.0719
     25 C           2.6745    3.0612    3.6438 C.2     1  UNL1        0.3094
     26 O           3.7970    2.5481    3.7286 O.2     1  UNL1       -0.2508
     27 O           2.3495    4.2377    4.1808 O.3     1  UNL1       -0.4646
     28 C           3.5362    4.8620    4.6324 C.3     1  UNL1        0.0928
     29 C           3.1091    5.8798    5.6363 C.3     1  UNL1       -0.0146
     30 C           4.3279    6.6341    6.0992 C.3     1  UNL1       -0.0246
     31 C           3.9406    7.6759    7.0964 C.ar    1  UNL1       -0.0472
     32 C           3.8979    9.0170    6.7127 C.ar    1  UNL1       -0.0586
     33 C           3.7455   10.0015    7.6801 C.ar    1  UNL1       -0.0615
     34 C           3.5097    9.6442    9.0071 C.ar    1  UNL1       -0.0617
     35 C           3.4565    8.3009    9.3760 C.ar    1  UNL1       -0.0615
     36 C           3.6729    7.3146    8.4214 C.ar    1  UNL1       -0.0586
     37 H           0.4882   -0.2316   -1.1018 H       1  UNL1        0.0230
     38 H           0.5716   -0.8216    0.6021 H       1  UNL1        0.0230
     39 H           0.6597   -1.9270   -0.7061 H       1  UNL1        0.0230
     40 H           2.7346    0.2654   -0.0939 H       1  UNL1        0.0264
     41 H           2.9145   -0.8403   -1.3623 H       1  UNL1        0.0264
     42 H           2.6516   -2.5891    0.6285 H       1  UNL1        0.0298
     43 H           2.7405   -1.2316    1.6953 H       1  UNL1        0.0298
     44 H           4.8960   -0.5294    0.4227 H       1  UNL1        0.0696
     45 H           4.8648   -2.0596   -0.3531 H       1  UNL1        0.0696
     46 H           6.1862   -4.3596    1.9416 H       1  UNL1        0.0654
     47 H           8.5330   -4.6653    2.6632 H       1  UNL1        0.0619
     48 H          10.0062   -2.6784    2.8572 H       1  UNL1        0.0618
     49 H           9.0644   -0.4231    2.6509 H       1  UNL1        0.0626
     50 H           4.5078    0.0790    2.3721 H       1  UNL1        0.1568
     51 H           3.6335    3.4091   -0.5520 H       1  UNL1        0.0480
     52 H           2.2789    3.7995    0.5320 H       1  UNL1        0.0480
     53 H           2.2891    1.4916   -1.4777 H       1  UNL1        0.0477
     54 H           1.5130    3.0039   -1.7548 H       1  UNL1        0.0477
     55 H          -0.1970    1.7021   -0.7185 H       1  UNL1        0.1488
     56 H           2.3162    0.5727    2.3253 H       1  UNL1        0.0602
     57 H           0.8709    3.2028    2.5589 H       1  UNL1        0.0401
     58 H           0.9727    1.8536    3.7072 H       1  UNL1        0.0401
     59 H           4.0333    5.3115    3.7651 H       1  UNL1        0.0697
     60 H           4.2304    4.1603    5.1195 H       1  UNL1        0.0697
     61 H           2.6087    5.3655    6.4671 H       1  UNL1        0.0301
     62 H           2.3631    6.5408    5.1829 H       1  UNL1        0.0301
     63 H           4.8372    7.0952    5.2429 H       1  UNL1        0.0314
     64 H           5.0636    5.9565    6.5530 H       1  UNL1        0.0314
     65 H           4.0184    9.2950    5.6681 H       1  UNL1        0.0620
     66 H           3.8402   11.0462    7.4013 H       1  UNL1        0.0618
     67 H           3.3675   10.4173    9.7554 H       1  UNL1        0.0618
     68 H           3.2844    8.0221   10.4111 H       1  UNL1        0.0618
     69 H           3.6557    6.2663    8.7129 H       1  UNL1        0.0620
@<TRIPOS>BOND
     1     1     2    1
     2     2     3    1
     3     3     4    1
     4     4     5    1
     5     5     6    1
     6     6     7   ar
     7     7     8   ar
     8     8     9   ar
     9     9    10   ar
    10    10    11   ar
    11     6    11   ar
    12    11    12    1
    13    12    13    2
    14    12    14   am
    15    14    15    1
    16    15    16    2
    17    15    17    1
    18    17    18    1
    19    18    19    1
    20    19    20    1
    21    20    21   am
    22    21    22    2
    23    21    23    1
    24    17    23    1
    25    24    25    1
    26    25    26    2
    27    25    27    1
    28    27    28    1
    29    28    29    1
    30    29    30    1
    31    30    31    1
    32    31    32   ar
    33    32    33   ar
    34    33    34   ar
    35    34    35   ar
    36    35    36   ar
    37    31    36   ar
    38    23    24    1
    39     1    37    1
    40     1    38    1
    41     1    39    1
    42     2    40    1
    43     2    41    1
    44     3    42    1
    45     3    43    1
    46     4    44    1
    47     4    45    1
    48     7    46    1
    49     8    47    1
    50     9    48    1
    51    10    49    1
    52    14    50    1
    53    18    51    1
    54    18    52    1
    55    19    53    1
    56    19    54    1
    57    20    55    1
    58    23    56    1
    59    24    57    1
    60    24    58    1
    61    28    59    1
    62    28    60    1
    63    29    61    1
    64    29    62    1
    65    30    63    1
    66    30    64    1
    67    32    65    1
    68    33    66    1
    69    34    67    1
    70    35    68    1
    71    36    69    1
