@<TRIPOS>MOLECULE
*****
 38 40 0 0 0
SMALL
GASTEIGER

@<TRIPOS>ATOM
      1 O           0.9796   -0.0776    0.0545 O.2     1  UNL1       -0.2702
      2 C           2.2086   -0.0119    0.0769 C.2     1  UNL1        0.2448
      3 N           2.9306    0.7480   -0.8230 N.am    1  UNL1       -0.3113
      4 C           2.2388    1.5004   -1.8631 C.3     1  UNL1        0.0122
      5 C           3.2014    2.2164   -2.8034 C.3     1  UNL1       -0.0334
      6 C           2.4525    3.0215   -3.8704 C.3     1  UNL1       -0.0262
      7 C           3.3910    3.7474   -4.8044 C.ar    1  UNL1       -0.0446
      8 C           3.3232    5.1429   -4.9303 C.ar    1  UNL1       -0.0584
      9 C           4.1619    5.8195   -5.8200 C.ar    1  UNL1       -0.0588
     10 C           5.0764    5.1075   -6.5933 C.ar    1  UNL1       -0.0264
     11 C           5.1527    3.7269   -6.4627 C.ar    1  UNL1        0.1237
     12 F           6.0360    3.0409   -7.2001 F       1  UNL1       -0.2055
     13 C           4.3213    3.0432   -5.5820 C.ar    1  UNL1       -0.0233
     14 C           2.9467   -0.8141    1.0829 C.ar    1  UNL1        0.0473
     15 C           2.5100   -2.1289    1.3429 C.ar    1  UNL1       -0.0489
     16 C           3.0789   -2.8998    2.3607 C.ar    1  UNL1       -0.0590
     17 C           4.0932   -2.3856    3.1697 C.ar    1  UNL1       -0.0363
     18 C           4.5190   -1.0812    2.8996 C.ar    1  UNL1        0.0665
     19 N           5.4605   -0.3007    3.5184 N.ar    1  UNL1       -0.2769
     20 N           5.5953    0.9212    2.9777 N.ar    1  UNL1       -0.1812
     21 C           4.6858    0.9313    1.9993 C.ar    1  UNL1        0.0576
     22 C           3.9840   -0.2894    1.8799 C.ar    1  UNL1        0.0316
     23 H           3.9393    0.6680   -0.8572 H       1  UNL1        0.1490
     24 H           1.5777    2.2227   -1.3697 H       1  UNL1        0.0462
     25 H           1.6019    0.8086   -2.4288 H       1  UNL1        0.0462
     26 H           3.8549    1.4741   -3.2771 H       1  UNL1        0.0283
     27 H           3.8545    2.8851   -2.2293 H       1  UNL1        0.0283
     28 H           1.7886    3.7449   -3.3791 H       1  UNL1        0.0314
     29 H           1.8050    2.3691   -4.4702 H       1  UNL1        0.0314
     30 H           2.6114    5.7146   -4.3377 H       1  UNL1        0.0620
     31 H           4.0958    6.9005   -5.9113 H       1  UNL1        0.0619
     32 H           5.7258    5.6172   -7.2969 H       1  UNL1        0.0646
     33 H           4.4088    1.9629   -5.5177 H       1  UNL1        0.0649
     34 H           1.6986   -2.5492    0.7506 H       1  UNL1        0.0625
     35 H           2.7119   -3.9087    2.5415 H       1  UNL1        0.0618
     36 H           4.5175   -2.9730    3.9795 H       1  UNL1        0.0639
     37 H           6.0376   -0.5445    4.3165 H       1  UNL1        0.1889
     38 H           4.5713    1.8306    1.4096 H       1  UNL1        0.0854
@<TRIPOS>BOND
     1     1     2    2
     2     2     3   am
     3     3     4    1
     4     4     5    1
     5     5     6    1
     6     6     7    1
     7     7     8   ar
     8     8     9   ar
     9     9    10   ar
    10    10    11   ar
    11    11    12    1
    12    11    13   ar
    13     7    13   ar
    14     2    14    1
    15    14    15   ar
    16    15    16   ar
    17    16    17   ar
    18    17    18   ar
    19    18    19   ar
    20    19    20   ar
    21    20    21   ar
    22    21    22   ar
    23    14    22   ar
    24    18    22   ar
    25     3    23    1
    26     4    24    1
    27     4    25    1
    28     5    26    1
    29     5    27    1
    30     6    28    1
    31     6    29    1
    32     8    30    1
    33     9    31    1
    34    10    32    1
    35    13    33    1
    36    15    34    1
    37    16    35    1
    38    17    36    1
    39    19    37    1
    40    21    38    1
