@<TRIPOS>MOLECULE
*****
 65 68 0 0 0
SMALL
GASTEIGER

@<TRIPOS>ATOM
      1 C           1.0506    0.0482    0.0701 C.3     1  UNL1       -0.0307
      2 C           2.5676    0.0483    0.0679 C.3     1  UNL1        0.0870
      3 O           3.0056   -1.3059   -0.0407 O.3     1  UNL1       -0.4885
      4 C           4.3561   -1.4962    0.0537 C.ar    1  UNL1        0.1633
      5 C           5.2042   -0.7968    0.9043 C.ar    1  UNL1       -0.0162
      6 C           6.5508   -1.1588    0.9995 C.ar    1  UNL1       -0.0575
      7 C           7.0232   -2.3023    0.3541 C.ar    1  UNL1       -0.0508
      8 C           6.2205   -2.9355   -0.5901 C.ar    1  UNL1        0.0222
      9 C           6.7429   -3.9726   -1.4750 C.ar    1  UNL1       -0.0289
     10 C           5.9972   -4.4759   -2.4777 C.ar    1  UNL1        0.1507
     11 C           6.6634   -5.5009   -3.3761 C.2     1  UNL1        0.2540
     12 O           7.8294   -5.8291   -3.1723 O.2     1  UNL1       -0.2698
     13 N           5.9579   -6.0601   -4.4208 N.am    1  UNL1       -0.3108
     14 C           6.5217   -7.0638   -5.3014 C.3     1  UNL1        0.0159
     15 C           5.4393   -7.4486   -6.3163 C.3     1  UNL1       -0.0119
     16 C           5.8922   -8.5157   -7.2441 C.ar    1  UNL1       -0.0422
     17 C           6.4212   -8.1980   -8.4892 C.ar    1  UNL1       -0.0548
     18 C           6.7395   -9.2184   -9.3757 C.ar    1  UNL1       -0.0160
     19 C           6.4099  -10.5466   -9.0747 C.ar    1  UNL1        0.1615
     20 O           6.5281  -11.5801   -9.9695 O.3     1  UNL1       -0.4915
     21 C           6.9780  -11.2449  -11.2768 C.3     1  UNL1        0.0790
     22 C           5.9119  -10.8674   -7.7977 C.ar    1  UNL1        0.1617
     23 O           5.5846  -12.1768   -7.5481 O.3     1  UNL1       -0.4914
     24 C           5.0182  -12.4664   -6.2732 C.3     1  UNL1        0.0790
     25 C           5.7450   -9.8497   -6.8631 C.ar    1  UNL1       -0.0131
     26 C           4.6248   -3.9568   -2.5970 C.ar    1  UNL1        0.4092
     27 N           3.8126   -4.3072   -3.5040 N.2     1  UNL1       -0.0949
     28 N           2.5170   -3.9298   -3.7612 N.am    1  UNL1       -0.0821
     29 C           1.9069   -4.6086   -4.8103 C.2     1  UNL1        0.3035
     30 O           2.5507   -5.4741   -5.4225 O.2     1  UNL1       -0.2643
     31 C           0.5495   -4.2134   -5.0472 C.ar    1  UNL1        0.0789
     32 C           0.0512   -2.9289   -5.1167 C.ar    1  UNL1       -0.0423
     33 C          -1.3659   -2.9131   -5.2197 C.ar    1  UNL1       -0.0540
     34 C          -1.8964   -4.1837   -5.2603 C.ar    1  UNL1       -0.0236
     35 S          -0.6775   -5.3871   -5.2158 S.2     1  UNL1       -0.0919
     36 O           4.0811   -3.0524   -1.7352 O.2     1  UNL1       -0.3982
     37 C           4.9020   -2.5099   -0.7354 C.ar    1  UNL1        0.1831
     38 H           0.6659    1.0714    0.0852 H       1  UNL1        0.0262
     39 H           0.6692   -0.4834    0.9489 H       1  UNL1        0.0262
     40 H           0.6599   -0.4696   -0.8114 H       1  UNL1        0.0262
     41 H           2.9096    0.5273    0.9894 H       1  UNL1        0.0694
     42 H           2.9374    0.6031   -0.8008 H       1  UNL1        0.0694
     43 H           4.8502    0.0114    1.5349 H       1  UNL1        0.0655
     44 H           7.2330   -0.5491    1.5891 H       1  UNL1        0.0619
     45 H           8.0246   -2.6620    0.5821 H       1  UNL1        0.0625
     46 H           7.7784   -4.2749   -1.3116 H       1  UNL1        0.0635
     47 H           5.0259   -5.9868   -4.7361 H       1  UNL1        0.1490
     48 H           6.8164   -7.9181   -4.6863 H       1  UNL1        0.0465
     49 H           7.3959   -6.6327   -5.7936 H       1  UNL1        0.0465
     50 H           5.1008   -6.5707   -6.8876 H       1  UNL1        0.0328
     51 H           4.5266   -7.7927   -5.8009 H       1  UNL1        0.0328
     52 H           6.5730   -7.1629   -8.7856 H       1  UNL1        0.0621
     53 H           7.2137   -8.9407  -10.3102 H       1  UNL1        0.0655
     54 H           6.9611  -12.1524  -11.8856 H       1  UNL1        0.0660
     55 H           8.0106  -10.8824  -11.2436 H       1  UNL1        0.0660
     56 H           6.3192  -10.5115  -11.7573 H       1  UNL1        0.0660
     57 H           4.7433  -13.5239   -6.2503 H       1  UNL1        0.0660
     58 H           4.1053  -11.8855   -6.0893 H       1  UNL1        0.0660
     59 H           5.7543  -12.2944   -5.4805 H       1  UNL1        0.0660
     60 H           5.4531  -10.0639   -5.8404 H       1  UNL1        0.0658
     61 H           4.1420   -4.9832   -4.1655 H       1  UNL1        0.4882
     62 H           2.0512   -3.2643   -3.1547 H       1  UNL1        0.2260
     63 H           0.6652   -2.0370   -5.0870 H       1  UNL1        0.0630
     64 H          -1.9689   -2.0137   -5.2617 H       1  UNL1        0.0623
     65 H          -2.9422   -4.4569   -5.3291 H       1  UNL1        0.0693
@<TRIPOS>UNITY_ATOM_ATTR
27 1
charge 1
@<TRIPOS>BOND
     1     1     2    1
     2     2     3    1
     3     3     4    1
     4     4     5   ar
     5     5     6   ar
     6     6     7   ar
     7     7     8   ar
     8     8     9   ar
     9     9    10   ar
    10    10    11    1
    11    11    12    2
    12    11    13   am
    13    13    14    1
    14    14    15    1
    15    15    16    1
    16    16    17   ar
    17    17    18   ar
    18    18    19   ar
    19    19    20    1
    20    20    21    1
    21    19    22   ar
    22    22    23    1
    23    23    24    1
    24    22    25   ar
    25    16    25   ar
    26    10    26   ar
    27    26    27    2
    28    27    28    1
    29    28    29   am
    30    29    30    2
    31    29    31    1
    32    31    32   ar
    33    32    33   ar
    34    33    34   ar
    35    34    35   ar
    36    31    35   ar
    37    26    36   ar
    38    36    37   ar
    39     4    37   ar
    40     8    37   ar
    41     1    38    1
    42     1    39    1
    43     1    40    1
    44     2    41    1
    45     2    42    1
    46     5    43    1
    47     6    44    1
    48     7    45    1
    49     9    46    1
    50    13    47    1
    51    14    48    1
    52    14    49    1
    53    15    50    1
    54    15    51    1
    55    17    52    1
    56    18    53    1
    57    21    54    1
    58    21    55    1
    59    21    56    1
    60    24    57    1
    61    24    58    1
    62    24    59    1
    63    25    60    1
    64    27    61    1
    65    28    62    1
    66    32    63    1
    67    33    64    1
    68    34    65    1
