@<TRIPOS>MOLECULE
*****
 41 44 0 0 0
SMALL
GASTEIGER

@<TRIPOS>ATOM
      1 N           1.9465   -2.1689    3.3762 N.pl3   1  UNL1       -0.3575
      2 C           1.9278   -0.9763    2.6569 C.ar    1  UNL1        0.0324
      3 C           1.4574   -1.0680    1.3375 C.ar    1  UNL1       -0.0404
      4 C           1.2607    0.0678    0.5968 C.ar    1  UNL1       -0.0594
      5 C           1.4787    1.2894    1.1976 C.ar    1  UNL1       -0.0521
      6 C           2.1148    1.4766    2.4242 C.ar    1  UNL1        0.0051
      7 C           2.4871    2.7836    2.8711 C.ar    1  UNL1        0.0412
      8 N           2.3653    4.0014    2.0701 N.am    1  UNL1       -0.2847
      9 C           2.2448    4.1154    0.6639 C.2     1  UNL1        0.2209
     10 O           2.6248    3.3266   -0.1678 O.2     1  UNL1       -0.2751
     11 C           1.3818    5.2294    0.1563 C.3     1  UNL1        0.0432
     12 C           1.5768    6.6860    0.4417 C.3     1  UNL1       -0.0338
     13 C           1.7726    6.1801   -0.9777 C.3     1  UNL1       -0.0040
     14 C           0.7240    6.4451   -2.0722 C.ar    1  UNL1       -0.0435
     15 C           1.0282    6.3221   -3.4418 C.ar    1  UNL1       -0.0583
     16 C           0.0994    6.6724   -4.4340 C.ar    1  UNL1       -0.0615
     17 C          -1.1928    7.0522   -4.0821 C.ar    1  UNL1       -0.0617
     18 C          -1.5435    7.1217   -2.7416 C.ar    1  UNL1       -0.0615
     19 C          -0.5956    6.8271   -1.7607 C.ar    1  UNL1       -0.0583
     20 C           2.9394    2.8995    4.2019 C.ar    1  UNL1       -0.0399
     21 C           3.0886    1.7637    5.0205 C.ar    1  UNL1       -0.0594
     22 C           2.7779    0.4871    4.5338 C.ar    1  UNL1       -0.0522
     23 C           2.2893    0.3020    3.2189 C.ar    1  UNL1        0.0045
     24 H           1.6928   -3.0258    2.8998 H       1  UNL1        0.1423
     25 H           2.3194   -2.2243    4.3079 H       1  UNL1        0.1423
     26 H           1.1813   -2.0182    0.8916 H       1  UNL1        0.0636
     27 H           0.8894    0.0532   -0.4213 H       1  UNL1        0.0618
     28 H           1.0712    2.1259    0.6595 H       1  UNL1        0.0624
     29 H           2.4629    4.8705    2.5750 H       1  UNL1        0.1548
     30 H           0.3909    4.8295   -0.0520 H       1  UNL1        0.0400
     31 H           2.4638    7.0342    0.9576 H       1  UNL1        0.0279
     32 H           0.6888    7.2397    0.7241 H       1  UNL1        0.0279
     33 H           2.8056    6.2335   -1.3205 H       1  UNL1        0.0356
     34 H           2.0039    5.9530   -3.7540 H       1  UNL1        0.0620
     35 H           0.3889    6.6624   -5.4825 H       1  UNL1        0.0618
     36 H          -1.9257    7.2889   -4.8482 H       1  UNL1        0.0618
     37 H          -2.5443    7.4237   -2.4463 H       1  UNL1        0.0618
     38 H          -0.9082    6.8922   -0.7229 H       1  UNL1        0.0620
     39 H           3.1981    3.8635    4.6353 H       1  UNL1        0.0636
     40 H           3.4570    1.8632    6.0431 H       1  UNL1        0.0618
     41 H           2.9088   -0.3639    5.2010 H       1  UNL1        0.0624
@<TRIPOS>BOND
     1     1     2    1
     2     2     3   ar
     3     3     4   ar
     4     4     5   ar
     5     5     6   ar
     6     6     7   ar
     7     7     8    1
     8     8     9   am
     9     9    10    2
    10    11    12    1
    11    12    13    1
    12    11    13    1
    13    13    14    1
    14    14    15   ar
    15    15    16   ar
    16    16    17   ar
    17    17    18   ar
    18    18    19   ar
    19    14    19   ar
    20     7    20   ar
    21    20    21   ar
    22    21    22   ar
    23    22    23   ar
    24     2    23   ar
    25     6    23   ar
    26    11     9    1
    27     1    24    1
    28     1    25    1
    29     3    26    1
    30     4    27    1
    31     5    28    1
    32     8    29    1
    33    11    30    1
    34    12    31    1
    35    12    32    1
    36    13    33    1
    37    15    34    1
    38    16    35    1
    39    17    36    1
    40    18    37    1
    41    19    38    1
    42    20    39    1
    43    21    40    1
    44    22    41    1
