REMARK  12 active torsions:
REMARK  status: ('A' for Active; 'I' for Inactive)
REMARK    1  A    between atoms: C_2  and  C_4 
REMARK    2  A    between atoms: C_4  and  C_5 
REMARK    3  A    between atoms: C_5  and  C_6 
REMARK    4  A    between atoms: C_7  and  C_6 
REMARK    5  A    between atoms: C_7  and  N_9 
REMARK       I    between atoms: N_9  and  C_10 
REMARK    6  A    between atoms: C_10  and  C_12 
REMARK    7  A    between atoms: C_12  and  C_13 
REMARK    8  A    between atoms: C_14  and  C_13 
REMARK    9  A    between atoms: C_16  and  O_17 
REMARK   10  A    between atoms: N_18  and  C_19 
REMARK   11  A    between atoms: C_19  and  C_20 
REMARK   12  A    between atoms: C_20  and  C_21 
ROOT
ATOM      1  C   UNL d   1      11.031   1.157  -7.326  0.00  0.00     0.205 C 
ATOM      2  N   UNL d   1      10.400   0.175  -8.258  0.00  0.00    -0.236 NA
ATOM      3  C   UNL d   1      10.091   0.919  -9.267  0.00  0.00     0.244 C 
ATOM      4  N   UNL d   1      10.332   2.236  -9.217  0.00  0.00    -0.280 N 
ATOM      5  C   UNL d   1      10.665   2.494  -7.927  0.00  0.00     0.252 C 
ATOM      6  O   UNL d   1      10.707   3.570  -7.345  0.00  0.00    -0.271 OA
ENDROOT
BRANCH   1   7
ATOM      7  C   UNL d   1      12.560   1.009  -7.309  0.00  0.00     0.046 C 
BRANCH   7   8
ATOM      8  C   UNL d   1      13.196   0.760  -8.689  0.00  0.00     0.105 C 
BRANCH   8   9
ATOM      9  C   UNL d   1      14.701   0.674  -8.593  0.00  0.00     0.217 C 
ATOM     10  N   UNL d   1      15.335   0.487  -9.806  0.00  0.00    -0.357 N 
ATOM     11  H   UNL d   1      14.792   0.371 -10.652  0.00  0.00     0.162 HD
ATOM     12  O   UNL d   1      15.297   0.776  -7.527  0.00  0.00    -0.274 OA
BRANCH  10  13
ATOM     13  C   UNL d   1      16.789   0.418  -9.886  0.00  0.00     0.080 C 
ATOM     14  C   UNL d   1      17.250   0.077 -11.308  0.00  0.00     0.032 C 
BRANCH  13  15
ATOM     15  C   UNL d   1      17.409   1.743  -9.410  0.00  0.00     0.024 C 
BRANCH  15  16
ATOM     16  C   UNL d   1      18.909   1.734  -9.603  0.00  0.00     0.002 C 
BRANCH  16  17
ATOM     17  C   UNL d   1      19.551   3.041  -9.191  0.00  0.00     0.004 C 
BRANCH  17  18
ATOM     18  C   UNL d   1      21.061   2.979  -9.447  0.00  0.00    -0.023 C 
ATOM     19  C   UNL d   1      21.683   4.321  -9.090  0.00  0.00     0.009 C 
ATOM     20  C   UNL d   1      21.721   1.859  -8.639  0.00  0.00     0.009 C 
ENDBRANCH  17  18
ENDBRANCH  16  17
ENDBRANCH  15  16
ENDBRANCH  13  15
ENDBRANCH  10  13
ENDBRANCH   8   9
ENDBRANCH   7   8
ENDBRANCH   1   7
BRANCH   3  21
ATOM     21  O   UNL d   1       9.544   0.399 -10.365  0.00  0.00    -0.331 OA
ATOM     22  H   UNL d   1       9.379  -0.545 -10.190  0.00  0.00     0.221 HD
ENDBRANCH   3  21
BRANCH   4  23
ATOM     23  C   UNL d   1      10.325   3.188 -10.325  0.00  0.00     0.140 C 
BRANCH  23  24
ATOM     24  C   UNL d   1      10.741   4.613  -9.945  0.00  0.00     0.061 C 
BRANCH  24  25
ATOM     25  C   UNL d   1      10.775   5.559 -11.101  0.00  0.00    -0.029 A 
ATOM     26  C   UNL d   1      11.554   5.450 -12.236  0.00  0.00     0.096 A 
ATOM     27  N   UNL d   1      11.305   6.532 -13.035  0.00  0.00    -0.365 N 
ATOM     28  C   UNL d   1      10.370   7.353 -12.447  0.00  0.00     0.043 A 
ATOM     29  H   UNL d   1      11.732   6.703 -13.934  0.00  0.00     0.165 HD
ATOM     30  C   UNL d   1       9.815   8.554 -12.902  0.00  0.00     0.032 A 
ATOM     31  C   UNL d   1      10.016   6.767 -11.232  0.00  0.00    -0.000 A 
ATOM     32  C   UNL d   1       8.847   9.164 -12.098  0.00  0.00     0.026 A 
ATOM     33  C   UNL d   1       8.468   8.595 -10.885  0.00  0.00     0.035 A 
ATOM     34 CL   UNL d   1       7.243   9.352  -9.940  0.00  0.00    -0.084 Cl
ATOM     35  C   UNL d   1       9.051   7.410 -10.428  0.00  0.00     0.038 A 
ENDBRANCH  24  25
ENDBRANCH  23  24
ENDBRANCH   4  23
TORSDOF 12
