@<TRIPOS>MOLECULE
*****
 32 33 0 0 0
SMALL
GASTEIGER

@<TRIPOS>ATOM
      1 O           4.8148    1.3268   -2.0325 O.2     1  UNL1       -0.2740
      2 C           4.5176    0.3549   -1.3365 C.2     1  UNL1        0.2324
      3 N           5.3965   -0.2419   -0.4440 N.am    1  UNL1       -0.2363
      4 N           6.7127    0.1652   -0.4138 N.pl3   1  UNL1       -0.2645
      5 C           7.6260   -0.5421    0.3707 C.ar    1  UNL1        0.0446
      6 C           7.5770   -1.9369    0.5306 C.ar    1  UNL1       -0.0367
      7 C           8.4939   -2.5996    1.3559 C.ar    1  UNL1       -0.0247
      8 C           9.4466   -1.8661    2.0498 C.ar    1  UNL1        0.1235
      9 F          10.3236   -2.4982    2.8408 F       1  UNL1       -0.2055
     10 C           9.4995   -0.4845    1.9329 C.ar    1  UNL1       -0.0247
     11 C           8.5914    0.1719    1.0958 C.ar    1  UNL1       -0.0367
     12 C           3.1461   -0.3217   -1.3633 C.3     1  UNL1        0.0407
     13 C           3.3546   -1.8402   -1.5101 C.3     1  UNL1       -0.0236
     14 C           2.1249   -2.5997   -1.8824 C.2     1  UNL1       -0.0872
     15 C           1.0234   -2.0069   -2.3577 C.2     1  UNL1       -0.0879
     16 C           0.9216   -0.5283   -2.5877 C.3     1  UNL1       -0.0341
     17 C           2.2670    0.2033   -2.5086 C.3     1  UNL1       -0.0382
     18 H           5.1015   -0.9197    0.2496 H       1  UNL1        0.1727
     19 H           6.9914    0.9603   -0.9879 H       1  UNL1        0.1700
     20 H           6.8578   -2.5299   -0.0282 H       1  UNL1        0.0637
     21 H           8.4770   -3.6806    1.4542 H       1  UNL1        0.0647
     22 H          10.2420    0.0743    2.4933 H       1  UNL1        0.0647
     23 H           8.6243    1.2568    1.0297 H       1  UNL1        0.0637
     24 H           2.6431   -0.1014   -0.4108 H       1  UNL1        0.0398
     25 H           3.7229   -2.2510   -0.5628 H       1  UNL1        0.0315
     26 H           4.1281   -2.0399   -2.2629 H       1  UNL1        0.0315
     27 H           2.1501   -3.6785   -1.7510 H       1  UNL1        0.0569
     28 H           0.1558   -2.6147   -2.6017 H       1  UNL1        0.0569
     29 H           0.2301   -0.1131   -1.8452 H       1  UNL1        0.0308
     30 H           0.4785   -0.3506   -3.5744 H       1  UNL1        0.0308
     31 H           2.0867    1.2802   -2.3998 H       1  UNL1        0.0276
     32 H           2.7987    0.0777   -3.4616 H       1  UNL1        0.0276
@<TRIPOS>BOND
     1     1     2    2
     2     2     3   am
     3     3     4    1
     4     4     5    1
     5     5     6   ar
     6     6     7   ar
     7     7     8   ar
     8     8     9    1
     9     8    10   ar
    10    10    11   ar
    11     5    11   ar
    12    12    13    1
    13    13    14    1
    14    14    15    2
    15    15    16    1
    16    16    17    1
    17    12    17    1
    18    12     2    1
    19     3    18    1
    20     4    19    1
    21     6    20    1
    22     7    21    1
    23    10    22    1
    24    11    23    1
    25    12    24    1
    26    13    25    1
    27    13    26    1
    28    14    27    1
    29    15    28    1
    30    16    29    1
    31    16    30    1
    32    17    31    1
    33    17    32    1
