REMARK  8 active torsions:
REMARK  status: ('A' for Active; 'I' for Inactive)
REMARK       I    between atoms: N_1  and  C_2 
REMARK    1  A    between atoms: C_2  and  C_4 
REMARK    2  A    between atoms: C_7  and  C_8 
REMARK       I    between atoms: C_8  and  N_10 
REMARK    3  A    between atoms: N_10  and  C_11 
REMARK    4  A    between atoms: N_10  and  C_21 
REMARK    5  A    between atoms: C_11  and  C_12 
REMARK       I    between atoms: C_12  and  N_14 
REMARK    6  A    between atoms: N_14  and  C_15 
REMARK    7  A    between atoms: C_25  and  C_26 
REMARK    8  A    between atoms: C_31  and  N_32 
ROOT
ATOM      1  C   UNL d   1       3.708  -4.753   2.000  0.00  0.00     0.269 C 
ATOM      2  O   UNL d   1       4.294  -5.337   2.927  0.00  0.00    -0.266 OA
ATOM      3  N   UNL d   1       2.969  -5.651   0.906  0.00  0.00    -0.304 N 
ENDROOT
BRANCH   3   4
ATOM      4  C   UNL d   1       1.852  -5.110  -0.359  0.00  0.00     0.235 C 
BRANCH   4   5
ATOM      5  C   UNL d   1       2.266  -3.763  -0.621  0.00  0.00     0.236 C 
ATOM      6  O   UNL d   1       2.177  -3.865   0.607  0.00  0.00    -0.272 OA
ATOM      7  N   UNL d   1       1.764  -2.590  -1.202  0.00  0.00    -0.355 N 
ATOM      8  H   UNL d   1       0.928  -2.599  -1.756  0.00  0.00     0.162 HD
BRANCH   7   9
ATOM      9  C   UNL d   1       1.895  -1.037  -0.628  0.00  0.00     0.084 C 
ATOM     10  C   UNL d   1       1.099   0.260  -1.858  0.00  0.00     0.025 C 
ATOM     11  C   UNL d   1       1.614   2.036  -1.420  0.00  0.00     0.002 C 
ATOM     12  C   UNL d   1       1.890   2.564   0.380  0.00  0.00     0.000 C 
ATOM     13  C   UNL d   1       2.604   1.492   1.563  0.00  0.00     0.002 C 
ATOM     14  C   UNL d   1       1.973  -0.317   1.388  0.00  0.00     0.025 C 
ENDBRANCH   7   9
ENDBRANCH   4   5
ENDBRANCH   3   4
BRANCH   3  15
ATOM     15  C   UNL d   1       2.466  -6.910   1.234  0.00  0.00     0.038 C 
ATOM     16  C   UNL d   1       2.127  -7.675   0.114  0.00  0.00     0.030 C 
ATOM     17  C   UNL d   1       1.595  -8.921   0.240  0.00  0.00     0.003 C 
ATOM     18  C   UNL d   1       1.526  -9.451   1.511  0.00  0.00     0.016 C 
ATOM     19  C   UNL d   1       1.765  -8.655   2.648  0.00  0.00     0.050 C 
ATOM     20  C   UNL d   1       2.196  -7.345   2.510  0.00  0.00     0.046 C 
BRANCH  19  21
ATOM     21  C   UNL d   1       1.566  -9.212   4.015  0.00  0.00     0.417 C 
ATOM     22  F   UNL d   1       0.297  -9.671   4.184  0.00  0.00    -0.166 F 
ATOM     23  F   UNL d   1       2.397 -10.257   4.262  0.00  0.00    -0.166 F 
ATOM     24  F   UNL d   1       1.775  -8.305   5.006  0.00  0.00    -0.166 F 
ENDBRANCH  19  21
ENDBRANCH   3  15
BRANCH   1  25
ATOM     25  C   UNL d   1       3.847  -3.191   1.856  0.00  0.00     0.115 C 
ATOM     26  S   UNL d   1       5.059  -2.199   2.593  0.00  0.00     0.019 SA
ATOM     27  N   UNL d   1       4.881  -0.789   1.631  0.00  0.00    -0.203 NA
ATOM     28  C   UNL d   1       3.889  -0.965   0.727  0.00  0.00     0.155 C 
ATOM     29  C   UNL d   1       3.027  -2.211   1.260  0.00  0.00     0.065 C 
BRANCH  28  30
ATOM     30  C   UNL d   1       3.077   0.427  -0.150  0.00  0.00     0.270 C 
ATOM     31  N   UNL d   1       1.227   0.614   0.068  0.00  0.00    -0.365 N 
ATOM     32  H   UNL d   1       0.437   1.261  -0.096  0.00  0.00     0.159 HD
ATOM     33  H   UNL d   1       0.567  -0.198   0.320  0.00  0.00     0.159 HD
ATOM     34  O   UNL d   1       3.814   1.038  -0.952  0.00  0.00    -0.266 OA
ENDBRANCH  28  30
BRANCH  29  35
ATOM     35  N   UNL d   1       1.316  -2.283   1.133  0.00  0.00    -0.299 NA
ATOM     36  H   UNL d   1       1.004  -3.253   1.205  0.00  0.00     0.124 HD
ATOM     37  H   UNL d   1       1.074  -2.392   0.122  0.00  0.00     0.124 HD
ENDBRANCH  29  35
ENDBRANCH   1  25
TORSDOF 8
