REMARK  11 active torsions:
REMARK  status: ('A' for Active; 'I' for Inactive)
REMARK    1  A    between atoms: C_2  and  C_3 
REMARK    2  A    between atoms: C_3  and  C_4 
REMARK    3  A    between atoms: C_4  and  C_5 
REMARK       I    between atoms: C_5  and  N_7 
REMARK    4  A    between atoms: N_7  and  C_8 
REMARK    5  A    between atoms: C_11  and  C_12 
REMARK       I    between atoms: C_12  and  N_14 
REMARK    6  A    between atoms: N_14  and  N_15 
REMARK    7  A    between atoms: N_15  and  C_16 
REMARK    8  A    between atoms: C_16  and  N_18 
REMARK       I    between atoms: N_18  and  C_19 
REMARK    9  A    between atoms: C_19  and  C_21 
REMARK   10  A    between atoms: C_25  and  O_26 
REMARK   11  A    between atoms: O_26  and  C_27 
ROOT
ATOM      1  C   UNL d   1       8.829   4.726   7.085  0.00  0.00     0.270 C 
ATOM      2  O   UNL d   1       9.883   5.354   6.941  0.00  0.00    -0.266 OA
ATOM      3  N   UNL d   1       8.168   4.679   8.307  0.00  0.00    -0.264 N 
ATOM      4  H   UNL d   1       7.287   4.186   8.444  0.00  0.00     0.190 HD
ENDROOT
BRANCH   3   5
ATOM      5  N   UNL d   1       8.639   5.369   9.498  0.00  0.00    -0.273 N 
ATOM      6  H   UNL d   1       9.503   5.893   9.375  0.00  0.00     0.189 HD
BRANCH   5   7
ATOM      7  C   UNL d   1       7.890   5.236  10.685  0.00  0.00     0.193 C 
ATOM      8  S   UNL d   1       6.468   4.320  10.668  0.00  0.00    -0.039 SA
BRANCH   7   9
ATOM      9  N   UNL d   1       8.409   5.903  11.820  0.00  0.00    -0.298 N 
ATOM     10  C   UNL d   1       7.864   5.874  13.128  0.00  0.00     0.258 C 
ATOM     11  O   UNL d   1       6.854   5.248  13.457  0.00  0.00    -0.267 OA
ATOM     12  H   UNL d   1       9.269   6.419  11.699  0.00  0.00     0.171 HD
BRANCH  10  13
ATOM     13  C   UNL d   1       8.464   6.668  14.242  0.00  0.00     0.035 A 
ATOM     14  C   UNL d   1       8.333   6.198  15.565  0.00  0.00     0.017 A 
ATOM     15  C   UNL d   1       8.571   7.042  16.656  0.00  0.00     0.004 A 
ATOM     16  C   UNL d   1       9.000   8.349  16.435  0.00  0.00     0.037 A 
ATOM     17  C   UNL d   1       9.150   8.821  15.126  0.00  0.00     0.069 A 
ATOM     18  C   UNL d   1       8.884   7.978  14.034  0.00  0.00     0.053 A 
BRANCH  17  19
ATOM     19  O   UNL d   1       9.510  10.142  15.014  0.00  0.00    -0.351 OA
BRANCH  19  20
ATOM     20  C   UNL d   1       9.569  10.641  13.678  0.00  0.00     0.171 C 
ATOM     21  C   UNL d   1       9.954  12.102  13.700  0.00  0.00     0.034 C 
ENDBRANCH  19  20
ENDBRANCH  17  19
ENDBRANCH  10  13
ENDBRANCH   7   9
ENDBRANCH   5   7
ENDBRANCH   3   5
BRANCH   1  22
ATOM     22  C   UNL d   1       8.203   3.995   5.902  0.00  0.00     0.033 A 
ATOM     23  C   UNL d   1       8.809   4.049   4.628  0.00  0.00     0.019 A 
ATOM     24  C   UNL d   1       8.213   3.448   3.488  0.00  0.00     0.030 A 
ATOM     25  C   UNL d   1       7.014   2.743   3.609  0.00  0.00     0.034 A 
ATOM     26  C   UNL d   1       6.419   2.683   4.872  0.00  0.00     0.030 A 
ATOM     27  C   UNL d   1       7.004   3.282   6.002  0.00  0.00     0.019 A 
BRANCH  25  28
ATOM     28  N   UNL d   1       6.449   2.034   2.512  0.00  0.00    -0.327 N 
ATOM     29  C   UNL d   1       5.080   1.846   2.365  0.00  0.00     0.222 C 
ATOM     30  O   UNL d   1       4.240   2.405   3.070  0.00  0.00    -0.273 OA
ATOM     31  H   UNL d   1       7.077   1.702   1.790  0.00  0.00     0.169 HD
BRANCH  29  32
ATOM     32  C   UNL d   1       4.647   0.915   1.236  0.00  0.00     0.103 C 
BRANCH  32  33
ATOM     33  C   UNL d   1       3.110   0.862   1.183  0.00  0.00     0.009 C 
BRANCH  33  34
ATOM     34  C   UNL d   1       2.571  -0.037   0.078  0.00  0.00    -0.004 C 
ATOM     35  C   UNL d   1       1.048  -0.038   0.077  0.00  0.00     0.005 C 
ENDBRANCH  33  34
ENDBRANCH  32  33
ENDBRANCH  29  32
ENDBRANCH  25  28
ENDBRANCH   1  22
TORSDOF 11
