REMARK  12 active torsions:
REMARK  status: ('A' for Active; 'I' for Inactive)
REMARK    1  A    between atoms: C_20  and  O_21 
REMARK    2  A    between atoms: C_20  and  C_22 
REMARK    3  A    between atoms: C_22  and  C_24 
REMARK    4  A    between atoms: C_24  and  O_25 
REMARK    5  A    between atoms: O_25  and  C_26 
REMARK    6  A    between atoms: C_26  and  C_28 
REMARK    7  A    between atoms: C_28  and  C_29 
REMARK    8  A    between atoms: C_29  and  C_30 
REMARK       I    between atoms: C_30  and  N_32 
REMARK    9  A    between atoms: N_32  and  C_33 
REMARK   10  A    between atoms: C_33  and  C_34 
REMARK   11  A    between atoms: C_34  and  C_35 
REMARK   12  A    between atoms: C_35  and  N_36 
ROOT
ATOM      1  C   UNL d   1       1.149  -0.294  -0.579  0.00  0.00     0.016 C 
ATOM      2  C   UNL d   1       2.667  -0.304  -0.435  0.00  0.00    -0.030 C 
ATOM      3  C   UNL d   1       3.212   0.319   0.788  0.00  0.00     0.017 C 
ATOM      4  C   UNL d   1       4.568   0.054   1.394  0.00  0.00     0.079 C 
ATOM      5  C   UNL d   1       4.100  -0.845   2.396  0.00  0.00     0.132 C 
ATOM      6  O   UNL d   1       4.025  -0.433   3.557  0.00  0.00    -0.298 OA
ATOM      7  C   UNL d   1       3.247  -1.993   1.472  0.00  0.00     0.077 C 
ATOM      8  C   UNL d   1       3.302  -1.662   0.093  0.00  0.00    -0.013 C 
ATOM      9  C   UNL d   1       4.705  -1.778  -0.426  0.00  0.00     0.012 C 
ATOM     10  C   UNL d   1       5.096  -0.836  -1.585  0.00  0.00     0.006 C 
ATOM     11  C   UNL d   1       4.563   0.678  -1.741  0.00  0.00    -0.005 C 
ATOM     12  C   UNL d   1       3.068   0.693  -1.586  0.00  0.00    -0.001 C 
ATOM     13  C   UNL d   1       2.519   2.214  -1.515  0.00  0.00     0.007 C 
ATOM     14  C   UNL d   1       2.881   3.087  -0.322  0.00  0.00     0.013 C 
ATOM     15  C   UNL d   1       4.345   2.890   0.077  0.00  0.00    -0.002 C 
ATOM     16  C   UNL d   1       4.806   4.355  -0.271  0.00  0.00     0.019 C 
ATOM     17  C   UNL d   1       5.170   1.674  -0.752  0.00  0.00     0.002 C 
ATOM     18  C   UNL d   1       6.492   2.267  -0.852  0.00  0.00     0.009 C 
ATOM     19  C   UNL d   1       6.425   2.731   0.757  0.00  0.00     0.047 C 
ATOM     20  C   UNL d   1       4.710   2.889   1.639  0.00  0.00     0.128 C 
ENDROOT
BRANCH  20  21
ATOM     21  O   UNL d   1       5.597   2.118   2.633  0.00  0.00    -0.381 OA
ATOM     22  H   UNL d   1       5.187   1.893   3.489  0.00  0.00     0.211 HD
ENDBRANCH  20  21
BRANCH  20  23
ATOM     23  C   UNL d   1       3.036   2.259   2.590  0.00  0.00     0.185 C 
ATOM     24  O   UNL d   1       3.063   2.339   3.784  0.00  0.00    -0.292 OA
BRANCH  23  25
ATOM     25  C   UNL d   1       1.304   1.562   2.035  0.00  0.00     0.260 C 
BRANCH  25  26
ATOM     26  O   UNL d   1       0.310   0.630   2.742  0.00  0.00    -0.314 OA
BRANCH  26  27
ATOM     27  C   UNL d   1      -0.601  -0.149   1.998  0.00  0.00     0.259 C 
ATOM     28  O   UNL d   1      -0.896  -0.021   0.806  0.00  0.00    -0.265 OA
BRANCH  27  29
ATOM     29  C   UNL d   1      -1.372  -1.157   2.772  0.00  0.00     0.120 C 
BRANCH  29  30
ATOM     30  C   UNL d   1      -2.439  -1.804   1.849  0.00  0.00     0.112 C 
BRANCH  30  31
ATOM     31  C   UNL d   1      -3.483  -2.436   2.714  0.00  0.00     0.217 C 
ATOM     32  O   UNL d   1      -3.412  -2.445   3.938  0.00  0.00    -0.274 OA
ATOM     33  N   UNL d   1      -4.539  -3.002   2.042  0.00  0.00    -0.361 N 
ATOM     34  H   UNL d   1      -4.579  -2.968   1.029  0.00  0.00     0.162 HD
BRANCH  33  35
ATOM     35  C   UNL d   1      -5.576  -3.613   2.834  0.00  0.00     0.124 C 
BRANCH  35  36
ATOM     36  C   UNL d   1      -6.670  -4.196   1.976  0.00  0.00     0.040 C 
BRANCH  36  37
ATOM     37  C   UNL d   1      -7.761  -4.832   2.827  0.00  0.00     0.130 C 
BRANCH  37  38
ATOM     38  N   UNL d   1      -8.805  -5.421   1.975  0.00  0.00    -0.352 N 
ATOM     39  C   UNL d   1      -9.363  -4.845   0.836  0.00  0.00     0.108 A 
ATOM     40  C   UNL d   1     -10.193  -5.775   0.285  0.00  0.00     0.106 A 
ATOM     41  N   UNL d   1     -10.167  -6.858   1.129  0.00  0.00    -0.361 N 
ATOM     42  C   UNL d   1      -9.351  -6.634   2.164  0.00  0.00     0.182 A 
ATOM     43  H   UNL d   1     -10.694  -7.718   0.993  0.00  0.00     0.166 HD
ENDBRANCH  37  38
ENDBRANCH  36  37
ENDBRANCH  35  36
ENDBRANCH  33  35
ENDBRANCH  30  31
ENDBRANCH  29  30
ENDBRANCH  27  29
ENDBRANCH  26  27
ENDBRANCH  25  26
ENDBRANCH  23  25
ENDBRANCH  20  23
TORSDOF 12
