REMARK  9 active torsions:
REMARK  status: ('A' for Active; 'I' for Inactive)
REMARK    1  A    between atoms: C_2  and  C_3 
REMARK       I    between atoms: C_2  and  N_21 
REMARK    2  A    between atoms: C_3  and  S_4 
REMARK    3  A    between atoms: S_4  and  C_5 
REMARK    4  A    between atoms: C_8  and  N_9 
REMARK    5  A    between atoms: N_9  and  N_10 
REMARK    6  A    between atoms: C_11  and  C_12 
REMARK    7  A    between atoms: N_21  and  C_22 
REMARK    8  A    between atoms: C_22  and  C_23 
REMARK    9  A    between atoms: C_23  and  C_24 
ROOT
ATOM      1  C   UNL d   1       2.853  -4.137   1.023  0.00  0.00     0.226 A 
ATOM      2  N   UNL d   1       2.354  -5.366   0.840  0.00  0.00    -0.132 NA
ATOM      3  N   UNL d   1       3.344  -6.136   1.323  0.00  0.00    -0.103 N 
ATOM      4  C   UNL d   1       4.389  -5.381   1.791  0.00  0.00     0.739 A 
ATOM      5  N   UNL d   1       4.093  -4.108   1.596  0.00  0.00    -0.034 NA
ATOM      6  H   UNL d   1       3.228  -7.142   1.309  0.00  0.00     0.208 HD
ENDROOT
BRANCH   1   7
ATOM      7  S   UNL d   1       1.876  -2.740   0.649  0.00  0.00    -0.079 SA
BRANCH   7   8
ATOM      8  C   UNL d   1       3.064  -1.404   0.312  0.00  0.00     0.185 C 
BRANCH   8   9
ATOM      9  C   UNL d   1       2.329  -0.096  -0.042  0.00  0.00     0.227 C 
ATOM     10  O   UNL d   1       1.101   0.034  -0.078  0.00  0.00    -0.273 OA
ATOM     11  N   UNL d   1       3.073   1.019  -0.345  0.00  0.00    -0.360 N 
ATOM     12  H   UNL d   1       2.508   1.833  -0.564  0.00  0.00     0.162 HD
BRANCH  11  13
ATOM     13  C   UNL d   1       4.518   1.119  -0.373  0.00  0.00     0.127 C 
BRANCH  13  14
ATOM     14  C   UNL d   1       5.021   2.517  -0.751  0.00  0.00     0.058 C 
BRANCH  14  15
ATOM     15  C   UNL d   1       6.530   2.556  -0.764  0.00  0.00    -0.057 A 
ATOM     16  C   UNL d   1       7.239   2.256  -1.937  0.00  0.00     0.010 A 
ATOM     17  C   UNL d   1       8.635   2.247  -1.933  0.00  0.00     0.043 A 
ATOM     18  C   UNL d   1       9.320   2.541  -0.761  0.00  0.00     0.116 A 
ATOM     19  F   UNL d   1      10.659   2.536  -0.759  0.00  0.00    -0.206 F 
ATOM     20  C   UNL d   1       8.636   2.838   0.412  0.00  0.00     0.043 A 
ATOM     21  C   UNL d   1       7.240   2.840   0.413  0.00  0.00     0.010 A 
ENDBRANCH  14  15
ENDBRANCH  13  14
ENDBRANCH  11  13
ENDBRANCH   8   9
ENDBRANCH   7   8
ENDBRANCH   1   7
BRANCH   4  22
ATOM     22  N   UNL d   1       5.499  -5.945   2.351  0.00  0.00    -0.106 N 
ATOM     23  H   UNL d   1       5.599  -6.957   2.412  0.00  0.00     0.208 HD
BRANCH  22  24
ATOM     24  N   UNL d   1       6.492  -5.145   2.846  0.00  0.00    -0.172 NA
ATOM     25  C   UNL d   1       7.574  -5.699   3.293  0.00  0.00     0.152 C 
BRANCH  25  26
ATOM     26  C   UNL d   1       8.681  -4.850   3.810  0.00  0.00     0.006 A 
ATOM     27  C   UNL d   1       8.345  -3.713   4.562  0.00  0.00     0.015 A 
ATOM     28  C   UNL d   1       9.343  -2.868   5.055  0.00  0.00     0.003 A 
ATOM     29  C   UNL d   1      10.682  -3.154   4.802  0.00  0.00     0.026 A 
ATOM     30  C   UNL d   1      11.027  -4.290   4.061  0.00  0.00     0.056 A 
ATOM     31 CL   UNL d   1      12.717  -4.578   3.812  0.00  0.00    -0.083 Cl
ATOM     32  C   UNL d   1      10.030  -5.146   3.556  0.00  0.00     0.067 A 
ATOM     33 CL   UNL d   1      10.459  -6.522   2.592  0.00  0.00    -0.082 Cl
ENDBRANCH  25  26
ENDBRANCH  22  24
ENDBRANCH   4  22
TORSDOF 9
