@<TRIPOS>MOLECULE
*****
 42 43 0 0 0
SMALL
GASTEIGER

@<TRIPOS>ATOM
      1 C           3.2029    0.2137   -1.4188 C.3     1  UNL1       -0.0381
      2 C           2.4903    0.1049   -0.0642 C.3     1  UNL1        0.0949
      3 N           1.0116    0.0343   -0.2409 N.pl3   1  UNL1       -0.3331
      4 C           0.2660    1.0555   -0.8329 C.ar    1  UNL1        0.0306
      5 C           0.8503    2.1331   -1.5034 C.ar    1  UNL1       -0.0372
      6 C           0.1444    3.0137   -2.3115 C.ar    1  UNL1       -0.0153
      7 C          -1.2311    2.9410   -2.3484 C.ar    1  UNL1        0.1561
      8 O          -1.8084    3.9394   -3.0819 O.3     1  UNL1       -0.4845
      9 C          -3.2237    3.9579   -3.0308 C.3     1  UNL1        0.1149
     10 C          -3.7469    5.1391   -3.7963 C.ar    1  UNL1       -0.0077
     11 C          -4.3212    6.2131   -3.1013 C.ar    1  UNL1       -0.0552
     12 C          -4.9303    7.2568   -3.7934 C.ar    1  UNL1       -0.0587
     13 C          -4.9543    7.2412   -5.1862 C.ar    1  UNL1       -0.0264
     14 C          -4.3426    6.1989   -5.8752 C.ar    1  UNL1        0.1238
     15 F          -4.3676    6.1905   -7.2145 F       1  UNL1       -0.2055
     16 C          -3.7298    5.1532   -5.1962 C.ar    1  UNL1       -0.0201
     17 C          -1.8590    1.9215   -1.6224 C.ar    1  UNL1        0.1665
     18 F          -3.1960    1.8234   -1.5773 F       1  UNL1       -0.2016
     19 C          -1.1242    0.9661   -0.9084 C.ar    1  UNL1       -0.0019
     20 C           2.8911    1.1637    1.0065 C.2     1  UNL1        0.2404
     21 O           2.0423    1.7454    1.6920 O.2     1  UNL1       -0.2733
     22 N           4.2501    1.3485    1.2225 N.am    1  UNL1       -0.2388
     23 C           4.8384    2.2323    2.0967 C.2     1  UNL1        0.3034
     24 N           4.0027    2.9949    2.8380 N.am    1  UNL1       -0.3130
     25 O           6.0511    2.3274    2.1943 O.2     1  UNL1       -0.2527
     26 H           4.2721    0.0183   -1.3330 H       1  UNL1        0.0252
     27 H           3.1673    1.1987   -1.8807 H       1  UNL1        0.0252
     28 H           2.7584   -0.4794   -2.1418 H       1  UNL1        0.0252
     29 H           2.7840   -0.8657    0.3586 H       1  UNL1        0.0591
     30 H           0.5309   -0.3965    0.5496 H       1  UNL1        0.1468
     31 H           1.8903    2.3811   -1.3858 H       1  UNL1        0.0637
     32 H           0.6878    3.7751   -2.8639 H       1  UNL1        0.0656
     33 H          -3.5612    4.0387   -1.9901 H       1  UNL1        0.0748
     34 H          -3.6279    3.0465   -3.4845 H       1  UNL1        0.0748
     35 H          -4.3162    6.2237   -2.0128 H       1  UNL1        0.0621
     36 H          -5.3978    8.0681   -3.2428 H       1  UNL1        0.0619
     37 H          -5.4475    8.0334   -5.7384 H       1  UNL1        0.0646
     38 H          -3.2691    4.3470   -5.7601 H       1  UNL1        0.0650
     39 H          -1.6735    0.1774   -0.4023 H       1  UNL1        0.0666
     40 H           4.9333    0.8166    0.7026 H       1  UNL1        0.1591
     41 H           2.9958    2.8831    2.7462 H       1  UNL1        0.1465
     42 H           4.3664    3.6608    3.5032 H       1  UNL1        0.1465
@<TRIPOS>BOND
     1     3     4    1
     2     4     5   ar
     3     5     6   ar
     4     6     7   ar
     5     7     8    1
     6     8     9    1
     7     9    10    1
     8    10    11   ar
     9    11    12   ar
    10    12    13   ar
    11    13    14   ar
    12    14    15    1
    13    14    16   ar
    14    10    16   ar
    15     7    17   ar
    16    17    18    1
    17    17    19   ar
    18     4    19   ar
    19     2    20    1
    20    20    21    2
    21    20    22   am
    22    22    23   am
    23    23    24   am
    24    23    25    2
    25     2     3    1
    26     2     1    1
    27     1    26    1
    28     1    27    1
    29     1    28    1
    30     2    29    1
    31     3    30    1
    32     5    31    1
    33     6    32    1
    34     9    33    1
    35     9    34    1
    36    11    35    1
    37    12    36    1
    38    13    37    1
    39    16    38    1
    40    19    39    1
    41    22    40    1
    42    24    41    1
    43    24    42    1
