@<TRIPOS>MOLECULE
*****
 75 78 0 0 0
SMALL
GASTEIGER

@<TRIPOS>ATOM
      1 C           0.6433    0.1231    0.1531 C.3     1  UNL1       -0.0639
      2 C           2.1265    0.2164    0.1045 C.3     1  UNL1       -0.0400
      3 C           3.0206    0.7826    1.1609 C.3     1  UNL1        0.0156
      4 N           4.5164    0.6263    1.0598 N.am    1  UNL1       -0.2827
      5 C           5.2452    0.1703   -0.0782 C.2     1  UNL1        0.2574
      6 O           6.3887    0.5615   -0.3017 O.2     1  UNL1       -0.2716
      7 C           4.6048   -0.7832   -1.1398 C.3     1  UNL1        0.1924
      8 O           3.9022   -1.8402   -0.4559 O.3     1  UNL1       -0.3711
      9 C           3.8244    0.1289   -2.1198 C.ar    1  UNL1       -0.0027
     10 C           4.1161    1.5293   -2.1403 C.ar    1  UNL1       -0.0550
     11 C           3.2201    2.4426   -2.6698 C.ar    1  UNL1       -0.0614
     12 C           2.0931    1.9694   -3.3244 C.ar    1  UNL1       -0.0617
     13 C           1.8378    0.5922   -3.4017 C.ar    1  UNL1       -0.0614
     14 C           2.6999   -0.3362   -2.8100 C.ar    1  UNL1       -0.0550
     15 C           5.6119   -1.5475   -1.9745 C.ar    1  UNL1       -0.0027
     16 C           5.4998   -2.9375   -2.1487 C.ar    1  UNL1       -0.0550
     17 C           6.4529   -3.6217   -2.8762 C.ar    1  UNL1       -0.0614
     18 C           7.4645   -2.9119   -3.5177 C.ar    1  UNL1       -0.0617
     19 C           7.5517   -1.5281   -3.4062 C.ar    1  UNL1       -0.0614
     20 C           6.6269   -0.8513   -2.6415 C.ar    1  UNL1       -0.0550
     21 C           5.2840    1.4883    2.0585 C.3     1  UNL1        0.1342
     22 C           4.9460    1.0762    3.5213 C.2     1  UNL1        0.2386
     23 O           5.7912    0.5962    4.2553 O.2     1  UNL1       -0.2734
     24 N           3.6423    1.2352    3.9664 N.am    1  UNL1       -0.3106
     25 C           3.2808    0.7334    5.2817 C.3     1  UNL1        0.0232
     26 C           3.4182   -0.8010    5.3497 C.3     1  UNL1       -0.0345
     27 C           3.2686   -1.3344    6.7672 C.3     1  UNL1       -0.0514
     28 C           4.1968   -0.6071    7.7337 C.3     1  UNL1       -0.0529
     29 C           3.9252    0.8933    7.7327 C.3     1  UNL1       -0.0514
     30 C           4.0931    1.4766    6.3484 C.3     1  UNL1       -0.0345
     31 C           6.8093    1.4016    1.9796 C.ar    1  UNL1        0.0648
     32 C           7.4734    0.1467    2.0313 C.ar    1  UNL1        0.1292
     33 O           6.8145   -1.0584    2.0960 O.3     1  UNL1       -0.5062
     34 C           8.8459    0.0439    1.9070 C.ar    1  UNL1        0.0219
     35 C           9.5857    1.2035    1.7442 C.ar    1  UNL1        0.1238
     36 O          10.9359    1.1356    1.5582 O.3     1  UNL1       -0.5065
     37 C           8.9809    2.4601    1.7456 C.ar    1  UNL1        0.0219
     38 C           7.5930    2.5565    1.8541 C.ar    1  UNL1        0.1292
     39 O           6.9818    3.7818    1.8212 O.3     1  UNL1       -0.5062
     40 H           0.3560   -0.5233   -0.6945 H       1  UNL1        0.0230
     41 H           0.2087    1.1037   -0.0204 H       1  UNL1        0.0230
     42 H           0.3128   -0.3515    1.0712 H       1  UNL1        0.0230
     43 H           2.2810    0.8658   -0.7282 H       1  UNL1        0.0278
     44 H           2.3469   -0.8136   -0.0585 H       1  UNL1        0.0278
     45 H           2.7097    0.3157    2.0884 H       1  UNL1        0.0465
     46 H           2.8271    1.8645    1.1915 H       1  UNL1        0.0465
     47 H           3.9521   -1.6915    0.5045 H       1  UNL1        0.2116
     48 H           4.9698    1.9498   -1.6065 H       1  UNL1        0.0621
     49 H           3.3747    3.5053   -2.4980 H       1  UNL1        0.0618
     50 H           1.3922    2.6817   -3.7465 H       1  UNL1        0.0618
     51 H           0.9082    0.2484   -3.8445 H       1  UNL1        0.0618
     52 H           2.4175   -1.3852   -2.7438 H       1  UNL1        0.0621
     53 H           4.6702   -3.4968   -1.7163 H       1  UNL1        0.0621
     54 H           6.3987   -4.7030   -2.9297 H       1  UNL1        0.0618
     55 H           8.1901   -3.4421   -4.1190 H       1  UNL1        0.0618
     56 H           8.3378   -0.9616   -3.8908 H       1  UNL1        0.0618
     57 H           6.7046    0.2314   -2.5584 H       1  UNL1        0.0621
     58 H           4.9428    2.5225    1.9091 H       1  UNL1        0.0650
     59 H           2.9570    1.7601    3.4462 H       1  UNL1        0.1490
     60 H           2.2184    0.9766    5.4193 H       1  UNL1        0.0498
     61 H           4.3918   -1.1307    4.9702 H       1  UNL1        0.0283
     62 H           2.6792   -1.2744    4.6898 H       1  UNL1        0.0283
     63 H           3.4927   -2.4073    6.7767 H       1  UNL1        0.0266
     64 H           2.2298   -1.2167    7.0945 H       1  UNL1        0.0266
     65 H           5.2414   -0.7987    7.4526 H       1  UNL1        0.0265
     66 H           4.0591   -0.9992    8.7457 H       1  UNL1        0.0265
     67 H           4.6267    1.3957    8.4073 H       1  UNL1        0.0266
     68 H           2.9116    1.0960    8.0905 H       1  UNL1        0.0266
     69 H           5.1648    1.4465    6.1371 H       1  UNL1        0.0283
     70 H           3.8339    2.5414    6.3282 H       1  UNL1        0.0283
     71 H           5.8862   -0.9048    1.8759 H       1  UNL1        0.2922
     72 H           9.2911   -0.9439    1.9061 H       1  UNL1        0.0691
     73 H          11.1655    0.1955    1.4552 H       1  UNL1        0.2921
     74 H           9.6070    3.3399    1.6501 H       1  UNL1        0.0691
     75 H           7.6669    4.4646    1.7122 H       1  UNL1        0.2922
@<TRIPOS>BOND
     1     1     2    1
     2     2     3    1
     3     3     4    1
     4     4     5   am
     5     5     6    2
     6     5     7    1
     7     7     8    1
     8     7     9    1
     9     9    10   ar
    10    10    11   ar
    11    11    12   ar
    12    12    13   ar
    13    13    14   ar
    14     9    14   ar
    15     7    15    1
    16    15    16   ar
    17    16    17   ar
    18    17    18   ar
    19    18    19   ar
    20    19    20   ar
    21    15    20   ar
    22     4    21    1
    23    21    22    1
    24    22    23    2
    25    22    24   am
    26    24    25    1
    27    25    26    1
    28    26    27    1
    29    27    28    1
    30    28    29    1
    31    29    30    1
    32    25    30    1
    33    21    31    1
    34    31    32   ar
    35    32    33    1
    36    32    34   ar
    37    34    35   ar
    38    35    36    1
    39    35    37   ar
    40    37    38   ar
    41    31    38   ar
    42    38    39    1
    43     1    40    1
    44     1    41    1
    45     1    42    1
    46     2    43    1
    47     2    44    1
    48     3    45    1
    49     3    46    1
    50     8    47    1
    51    10    48    1
    52    11    49    1
    53    12    50    1
    54    13    51    1
    55    14    52    1
    56    16    53    1
    57    17    54    1
    58    18    55    1
    59    19    56    1
    60    20    57    1
    61    21    58    1
    62    24    59    1
    63    25    60    1
    64    26    61    1
    65    26    62    1
    66    27    63    1
    67    27    64    1
    68    28    65    1
    69    28    66    1
    70    29    67    1
    71    29    68    1
    72    30    69    1
    73    30    70    1
    74    33    71    1
    75    34    72    1
    76    36    73    1
    77    37    74    1
    78    39    75    1
