@<TRIPOS>MOLECULE
*****
 57 60 0 0 0
SMALL
GASTEIGER

@<TRIPOS>ATOM
      1 C           0.9010    0.1114    0.0826 C.3     1  UNL1        0.0379
      2 O           2.3070   -0.0265    0.0460 O.3     1  UNL1       -0.3659
      3 C           2.7728   -1.2989   -0.4199 C.3     1  UNL1        0.1592
      4 C           2.3163   -1.6018   -1.8920 C.2     1  UNL1        0.2506
      5 O           3.1202   -1.5278   -2.8360 O.2     1  UNL1       -0.2722
      6 N           0.9665   -1.9385   -2.0965 N.am    1  UNL1       -0.2828
      7 C           0.4742   -2.2192   -3.4020 C.ar    1  UNL1        0.0386
      8 C          -0.5687   -1.4213   -3.9633 C.ar    1  UNL1       -0.0109
      9 C          -0.9487   -1.7701   -5.2912 C.ar    1  UNL1        0.1149
     10 N          -1.8048   -1.1809   -6.1551 N.ar    1  UNL1       -0.1470
     11 N          -1.8093   -2.0388   -7.2136 N.ar    1  UNL1       -0.1492
     12 C          -2.5767   -1.8310   -8.3898 C.ar    1  UNL1        0.0862
     13 C          -3.3166   -2.8883   -8.9392 C.ar    1  UNL1       -0.0343
     14 C          -3.9149   -2.7535  -10.1998 C.ar    1  UNL1       -0.0563
     15 C          -3.8310   -1.5462  -10.9107 C.ar    1  UNL1       -0.0447
     16 C          -4.3979   -1.4538  -12.3271 C.3     1  UNL1       -0.0215
     17 C          -5.8955   -1.7743  -12.3667 C.3     1  UNL1       -0.0587
     18 C          -4.1612   -0.0893  -12.9874 C.3     1  UNL1       -0.0587
     19 C          -3.1670   -0.4695  -10.2927 C.ar    1  UNL1       -0.0563
     20 C          -2.5157   -0.6120   -9.0607 C.ar    1  UNL1       -0.0343
     21 N          -0.9911   -3.1100   -7.1338 N.ar    1  UNL1       -0.1471
     22 C          -0.3704   -2.9305   -5.9621 C.ar    1  UNL1        0.1135
     23 C           0.6404   -3.7131   -5.3803 C.ar    1  UNL1       -0.0277
     24 C           1.0421   -3.3438   -4.0790 C.ar    1  UNL1       -0.0271
     25 C           2.0246   -4.2509   -3.3701 C.3     1  UNL1       -0.0379
     26 C           4.3180   -1.3027   -0.3351 C.ar    1  UNL1       -0.0100
     27 C           5.0452   -0.0970   -0.3474 C.ar    1  UNL1       -0.0543
     28 C           6.4289   -0.0880   -0.5532 C.ar    1  UNL1       -0.0430
     29 C           7.1226   -1.2891   -0.6399 C.ar    1  UNL1        0.0410
     30 CL          8.8135   -1.2793   -0.9642 Cl      1  UNL1       -0.0835
     31 C           6.4462   -2.4976   -0.4946 C.ar    1  UNL1       -0.0430
     32 C           5.0466   -2.5074   -0.3888 C.ar    1  UNL1       -0.0543
     33 H           0.6437    1.0872    0.4931 H       1  UNL1        0.0524
     34 H           0.4610   -0.6791    0.6973 H       1  UNL1        0.0524
     35 H           0.4831    0.1108   -0.9255 H       1  UNL1        0.0524
     36 H           2.4048   -2.0800    0.2603 H       1  UNL1        0.0744
     37 H           0.2751   -1.7057   -1.3983 H       1  UNL1        0.1549
     38 H          -1.0174   -0.5703   -3.4661 H       1  UNL1        0.0659
     39 H          -3.4563   -3.8137   -8.3847 H       1  UNL1        0.0639
     40 H          -4.4383   -3.6079  -10.6265 H       1  UNL1        0.0621
     41 H          -3.8717   -2.2007  -12.9404 H       1  UNL1        0.0343
     42 H          -6.4598   -1.0730  -11.7435 H       1  UNL1        0.0235
     43 H          -6.1064   -2.7865  -12.0068 H       1  UNL1        0.0235
     44 H          -6.2823   -1.7101  -13.3902 H       1  UNL1        0.0235
     45 H          -4.6646    0.7056  -12.4247 H       1  UNL1        0.0235
     46 H          -4.5423   -0.0623  -14.0124 H       1  UNL1        0.0235
     47 H          -3.0908    0.1444  -13.0295 H       1  UNL1        0.0235
     48 H          -3.1144    0.5048  -10.7717 H       1  UNL1        0.0621
     49 H          -1.9066    0.2085   -8.6902 H       1  UNL1        0.0639
     50 H           1.0661   -4.5619   -5.8962 H       1  UNL1        0.0643
     51 H           2.2857   -5.1126   -3.9860 H       1  UNL1        0.0278
     52 H           1.5839   -4.6176   -2.4357 H       1  UNL1        0.0278
     53 H           2.9682   -3.7547   -3.1454 H       1  UNL1        0.0278
     54 H           4.5310    0.8563   -0.2470 H       1  UNL1        0.0622
     55 H           6.9481    0.8593   -0.6718 H       1  UNL1        0.0632
     56 H           6.9996   -3.4334   -0.5055 H       1  UNL1        0.0632
     57 H           4.5355   -3.4670   -0.4010 H       1  UNL1        0.0622
@<TRIPOS>BOND
     1     1     2    1
     2     2     3    1
     3     3     4    1
     4     4     5    2
     5     4     6   am
     6     6     7    1
     7     7     8   ar
     8     8     9   ar
     9     9    10   ar
    10    10    11   ar
    11    11    12    1
    12    12    13   ar
    13    13    14   ar
    14    14    15   ar
    15    15    16    1
    16    16    17    1
    17    16    18    1
    18    15    19   ar
    19    19    20   ar
    20    12    20   ar
    21    11    21   ar
    22    21    22   ar
    23     9    22   ar
    24    22    23   ar
    25    23    24   ar
    26     7    24   ar
    27    24    25    1
    28     3    26    1
    29    26    27   ar
    30    27    28   ar
    31    28    29   ar
    32    29    30    1
    33    29    31   ar
    34    31    32   ar
    35    26    32   ar
    36     1    33    1
    37     1    34    1
    38     1    35    1
    39     3    36    1
    40     6    37    1
    41     8    38    1
    42    13    39    1
    43    14    40    1
    44    16    41    1
    45    17    42    1
    46    17    43    1
    47    17    44    1
    48    18    45    1
    49    18    46    1
    50    18    47    1
    51    19    48    1
    52    20    49    1
    53    23    50    1
    54    25    51    1
    55    25    52    1
    56    25    53    1
    57    27    54    1
    58    28    55    1
    59    31    56    1
    60    32    57    1
