REMARK  3 active torsions:
REMARK  status: ('A' for Active; 'I' for Inactive)
REMARK       I    between atoms: C_2  and  N_3 
REMARK    1  A    between atoms: C_2  and  C_11 
REMARK    2  A    between atoms: N_3  and  C_4 
REMARK    3  A    between atoms: C_9  and  O_10 
ROOT
ATOM      1  O   UNL d   1       0.965   0.178   0.209  0.00  0.00    -0.267 OA
ATOM      2  C   UNL d   1       2.183   0.018   0.101  0.00  0.00     0.258 C 
ATOM      3  N   UNL d   1       2.863  -1.169   0.333  0.00  0.00    -0.320 N 
ATOM      4  H   UNL d   1       3.863  -1.154   0.486  0.00  0.00     0.169 HD
ENDROOT
BRANCH   2   5
ATOM      5  C   UNL d   1       2.992   1.238  -0.148  0.00  0.00     0.054 A 
ATOM      6  C   UNL d   1       2.570   2.412   0.506  0.00  0.00     0.020 A 
ATOM      7  C   UNL d   1       3.235   3.623   0.305  0.00  0.00     0.025 A 
ATOM      8  C   UNL d   1       4.318   3.671  -0.565  0.00  0.00     0.035 A 
ATOM      9 CL   UNL d   1       5.145   5.160  -0.812  0.00  0.00    -0.084 Cl
ATOM     10  C   UNL d   1       4.736   2.523  -1.238  0.00  0.00     0.048 A 
ATOM     11  C   UNL d   1       4.073   1.304  -1.033  0.00  0.00     0.051 A 
ATOM     12 CL   UNL d   1       4.627  -0.053  -1.946  0.00  0.00    -0.083 Cl
ENDBRANCH   2   5
BRANCH   3  13
ATOM     13  C   UNL d   1       2.197  -2.407   0.491  0.00  0.00     0.068 A 
ATOM     14  C   UNL d   1       2.624  -3.303   1.478  0.00  0.00     0.032 A 
ATOM     15  C   UNL d   1       1.932  -4.505   1.679  0.00  0.00     0.002 A 
ATOM     16  C   UNL d   1       0.841  -4.834   0.872  0.00  0.00     0.003 A 
ATOM     17  C   UNL d   1       0.442  -3.969  -0.147  0.00  0.00     0.039 A 
ATOM     18  C   UNL d   1       1.128  -2.771  -0.340  0.00  0.00     0.092 A 
BRANCH  18  19
ATOM     19  O   UNL d   1       0.842  -2.002  -1.438  0.00  0.00    -0.358 OA
ATOM     20  H   UNL d   1      -0.067  -2.179  -1.720  0.00  0.00     0.217 HD
ENDBRANCH  18  19
ENDBRANCH   3  13
TORSDOF 3
