@<TRIPOS>MOLECULE
*****
 42 43 0 0 0
SMALL
GASTEIGER

@<TRIPOS>ATOM
      1 C           5.4149   -5.2241   -6.9563 C.3     1  UNL1        0.0788
      2 O           4.9063   -4.0413   -7.5632 O.3     1  UNL1       -0.4951
      3 C           5.0273   -2.9083   -6.8060 C.ar    1  UNL1        0.1201
      4 C           3.9495   -2.0285   -6.8430 C.ar    1  UNL1       -0.0196
      5 C           4.0219   -0.7896   -6.1924 C.ar    1  UNL1       -0.0534
      6 C           5.1888   -0.3813   -5.5272 C.ar    1  UNL1       -0.0272
      7 C           5.2661    0.9703   -4.8027 C.3     1  UNL1        0.0470
      8 C           4.5363    0.7586   -3.4728 C.3     1  UNL1       -0.0424
      9 N           4.7053    2.1167   -5.5586 N.am    1  UNL1       -0.2926
     10 C           5.4222    2.7711   -6.5510 C.2     1  UNL1        0.3044
     11 O           6.6272    2.5675   -6.7269 O.2     1  UNL1       -0.2525
     12 N           4.6209    3.4903   -7.4353 N.am    1  UNL1       -0.2664
     13 C           5.0374    3.7857   -8.7749 C.ar    1  UNL1        0.0767
     14 C           5.0869    5.1300   -9.1894 C.ar    1  UNL1       -0.0369
     15 C           5.4795    5.4772  -10.4975 C.ar    1  UNL1       -0.0598
     16 C           5.8453    4.4940  -11.4081 C.ar    1  UNL1       -0.0582
     17 C           5.7551    3.1654  -11.0289 C.ar    1  UNL1       -0.0181
     18 C           5.3352    2.7982   -9.7395 C.ar    1  UNL1        0.1412
     19 O           5.2031    1.4411   -9.6929 O.3     1  UNL1       -0.4933
     20 C           4.6169    0.8674   -8.5619 C.3     1  UNL1        0.0789
     21 C           6.2600   -1.2911   -5.4789 C.ar    1  UNL1       -0.0534
     22 C           6.1785   -2.5439   -6.1105 C.ar    1  UNL1       -0.0196
     23 H           5.2981   -6.0447   -7.6719 H       1  UNL1        0.0660
     24 H           4.8313   -5.4667   -6.0630 H       1  UNL1        0.0660
     25 H           6.4800   -5.1570   -6.7188 H       1  UNL1        0.0660
     26 H           3.0608   -2.2846   -7.4148 H       1  UNL1        0.0654
     27 H           3.1905   -0.0972   -6.2968 H       1  UNL1        0.0622
     28 H           6.3183    1.2080   -4.6028 H       1  UNL1        0.0546
     29 H           3.4900    0.4671   -3.6307 H       1  UNL1        0.0251
     30 H           4.5436    1.6629   -2.8610 H       1  UNL1        0.0251
     31 H           5.0080   -0.0493   -2.8973 H       1  UNL1        0.0251
     32 H           3.7942    2.4640   -5.3022 H       1  UNL1        0.1508
     33 H           3.8489    4.0252   -7.0640 H       1  UNL1        0.1565
     34 H           4.8933    5.9384   -8.4893 H       1  UNL1        0.0637
     35 H           5.5205    6.5187  -10.8081 H       1  UNL1        0.0618
     36 H           6.1942    4.7449  -12.4062 H       1  UNL1        0.0619
     37 H           5.9886    2.3805  -11.7472 H       1  UNL1        0.0655
     38 H           4.4656   -0.1908   -8.7556 H       1  UNL1        0.0660
     39 H           3.6506    1.3149   -8.2950 H       1  UNL1        0.0660
     40 H           5.3407    0.8899   -7.7612 H       1  UNL1        0.0660
     41 H           7.1832   -1.0313   -4.9640 H       1  UNL1        0.0622
     42 H           7.0443   -3.1971   -6.0793 H       1  UNL1        0.0654
@<TRIPOS>BOND
     1     1     2    1
     2     2     3    1
     3     3     4   ar
     4     4     5   ar
     5     5     6   ar
     6     7     9    1
     7     9    10   am
     8    10    11    2
     9    10    12   am
    10    12    13    1
    11    13    14   ar
    12    14    15   ar
    13    15    16   ar
    14    16    17   ar
    15    17    18   ar
    16    13    18   ar
    17    18    19    1
    18    19    20    1
    19     6    21   ar
    20    21    22   ar
    21     3    22   ar
    22     7     8    1
    23     7     6    1
    24     1    23    1
    25     1    24    1
    26     1    25    1
    27     4    26    1
    28     5    27    1
    29     7    28    1
    30     8    29    1
    31     8    30    1
    32     8    31    1
    33     9    32    1
    34    12    33    1
    35    14    34    1
    36    15    35    1
    37    16    36    1
    38    17    37    1
    39    20    38    1
    40    20    39    1
    41    20    40    1
    42    21    41    1
    43    22    42    1
