@<TRIPOS>MOLECULE
*****
 72 74 0 0 0
SMALL
GASTEIGER

@<TRIPOS>ATOM
      1 C          10.6089   -6.0442    1.2758 C.3     1  UNL1       -0.0653
      2 C           9.9842   -4.6978    0.9917 C.3     1  UNL1       -0.0559
      3 C          10.1377   -4.3499   -0.4713 C.3     1  UNL1       -0.0533
      4 C           9.5078   -2.9913   -0.7248 C.3     1  UNL1       -0.0516
      5 C           9.6808   -2.6843   -2.1766 C.3     1  UNL1       -0.0371
      6 C           9.0922   -1.3491   -2.5793 C.3     1  UNL1        0.0166
      7 N           9.3402   -1.0143   -3.9765 N.am    1  UNL1       -0.2751
      8 C          10.1871   -1.8767   -4.6837 C.2     1  UNL1        0.2923
      9 O          10.0144   -3.0924   -4.6882 O.2     1  UNL1       -0.2604
     10 C          11.1782   -1.3905   -5.5930 C.1     1  UNL1       -0.0025
     11 C          11.8855   -1.1114   -6.5072 C.1     1  UNL1       -0.0566
     12 C          12.7374   -0.7353   -7.5775 C.ar    1  UNL1        0.0254
     13 C          12.5731   -1.2132   -8.8787 C.ar    1  UNL1       -0.0463
     14 C          13.4990   -0.8475   -9.8546 C.ar    1  UNL1       -0.0606
     15 C          14.5728   -0.0204   -9.5174 C.ar    1  UNL1       -0.0617
     16 C          14.7120    0.4642   -8.2175 C.ar    1  UNL1       -0.0606
     17 C          13.7836    0.1168   -7.2505 C.ar    1  UNL1       -0.0463
     18 C           8.6323    0.1787   -4.5650 C.3     1  UNL1        0.1350
     19 C           7.0760    0.1677   -4.2655 C.2     1  UNL1        0.2386
     20 O           6.2634   -0.1280   -5.1449 O.2     1  UNL1       -0.2734
     21 N           6.6343    0.4714   -2.9784 N.am    1  UNL1       -0.3106
     22 C           5.1990    0.4441   -2.6481 C.3     1  UNL1        0.0232
     23 C           4.9389    0.7376   -1.1569 C.3     1  UNL1       -0.0345
     24 C           3.4424    0.8334   -0.8333 C.3     1  UNL1       -0.0514
     25 C           2.7346    1.8482   -1.7242 C.3     1  UNL1       -0.0529
     26 C           2.9592    1.5173   -3.1888 C.3     1  UNL1       -0.0514
     27 C           4.4407    1.4591   -3.5152 C.3     1  UNL1       -0.0345
     28 C           8.7794    0.3037   -6.0878 C.ar    1  UNL1        0.0648
     29 C           8.7153   -0.8049   -6.9617 C.ar    1  UNL1        0.1292
     30 O           8.4196   -2.0927   -6.6061 O.3     1  UNL1       -0.5062
     31 C           9.0143   -0.7012   -8.3127 C.ar    1  UNL1        0.0219
     32 C           9.1483    0.5491   -8.8735 C.ar    1  UNL1        0.1238
     33 O           9.3362    0.6913  -10.2150 O.3     1  UNL1       -0.5065
     34 C           9.0527    1.6871   -8.0832 C.ar    1  UNL1        0.0219
     35 C           8.9051    1.5630   -6.6955 C.ar    1  UNL1        0.1292
     36 O           8.8491    2.6946   -5.9253 O.3     1  UNL1       -0.5062
     37 H          10.4967   -6.2896    2.3337 H       1  UNL1        0.0230
     38 H          11.6753   -6.0333    1.0290 H       1  UNL1        0.0230
     39 H          10.1261   -6.8260    0.6809 H       1  UNL1        0.0230
     40 H          10.4639   -3.9247    1.6021 H       1  UNL1        0.0263
     41 H           8.9202   -4.7145    1.2535 H       1  UNL1        0.0263
     42 H           9.6593   -5.1145   -1.0996 H       1  UNL1        0.0265
     43 H          11.1994   -4.3323   -0.7535 H       1  UNL1        0.0265
     44 H           9.9931   -2.2151   -0.1267 H       1  UNL1        0.0266
     45 H           8.4403   -3.0089   -0.4822 H       1  UNL1        0.0266
     46 H           9.1684   -3.4807   -2.7318 H       1  UNL1        0.0280
     47 H          10.7515   -2.7074   -2.4199 H       1  UNL1        0.0280
     48 H           9.5233   -0.5415   -1.9750 H       1  UNL1        0.0465
     49 H           8.0202   -1.3964   -2.3847 H       1  UNL1        0.0465
     50 H          11.7485   -1.8726   -9.1391 H       1  UNL1        0.0630
     51 H          13.3971   -1.2155  -10.8721 H       1  UNL1        0.0618
     52 H          15.3086    0.2480  -10.2690 H       1  UNL1        0.0618
     53 H          15.5456    1.1019   -7.9466 H       1  UNL1        0.0618
     54 H          13.8759    0.4860   -6.2324 H       1  UNL1        0.0630
     55 H           9.0647    1.0526   -4.0554 H       1  UNL1        0.0650
     56 H           7.2946    0.6358   -2.2311 H       1  UNL1        0.1490
     57 H           4.8324   -0.5689   -2.8691 H       1  UNL1        0.0498
     58 H           5.4199    1.6844   -0.8803 H       1  UNL1        0.0283
     59 H           5.3908   -0.0399   -0.5293 H       1  UNL1        0.0283
     60 H           3.3025    1.1137    0.2169 H       1  UNL1        0.0266
     61 H           2.9750   -0.1503   -0.9675 H       1  UNL1        0.0266
     62 H           3.1126    2.8559   -1.5115 H       1  UNL1        0.0265
     63 H           1.6602    1.8533   -1.5114 H       1  UNL1        0.0265
     64 H           2.4810    2.2696   -3.8242 H       1  UNL1        0.0266
     65 H           2.4976    0.5502   -3.4241 H       1  UNL1        0.0266
     66 H           4.8965    2.4488   -3.3872 H       1  UNL1        0.0283
     67 H           4.5259    1.2133   -4.5756 H       1  UNL1        0.0283
     68 H           8.2821   -2.1938   -5.6490 H       1  UNL1        0.2922
     69 H           9.1354   -1.6183   -8.8800 H       1  UNL1        0.0691
     70 H           9.3547   -0.1975  -10.6110 H       1  UNL1        0.2921
     71 H           9.0964    2.6548   -8.5691 H       1  UNL1        0.0691
     72 H           8.8931    3.4666   -6.5195 H       1  UNL1        0.2922
@<TRIPOS>BOND
     1     1     2    1
     2     2     3    1
     3     3     4    1
     4     4     5    1
     5     5     6    1
     6     6     7    1
     7     7     8   am
     8     8     9    2
     9     8    10    1
    10    10    11    3
    11    11    12    1
    12    12    13   ar
    13    13    14   ar
    14    14    15   ar
    15    15    16   ar
    16    16    17   ar
    17    12    17   ar
    18    19    20    2
    19    19    21   am
    20    21    22    1
    21    22    23    1
    22    23    24    1
    23    24    25    1
    24    25    26    1
    25    26    27    1
    26    22    27    1
    27    18    28    1
    28    28    29   ar
    29    29    30    1
    30    29    31   ar
    31    31    32   ar
    32    32    33    1
    33    32    34   ar
    34    34    35   ar
    35    28    35   ar
    36    35    36    1
    37    18    19    1
    38    18     7    1
    39     1    37    1
    40     1    38    1
    41     1    39    1
    42     2    40    1
    43     2    41    1
    44     3    42    1
    45     3    43    1
    46     4    44    1
    47     4    45    1
    48     5    46    1
    49     5    47    1
    50     6    48    1
    51     6    49    1
    52    13    50    1
    53    14    51    1
    54    15    52    1
    55    16    53    1
    56    17    54    1
    57    18    55    1
    58    21    56    1
    59    22    57    1
    60    23    58    1
    61    23    59    1
    62    24    60    1
    63    24    61    1
    64    25    62    1
    65    25    63    1
    66    26    64    1
    67    26    65    1
    68    27    66    1
    69    27    67    1
    70    30    68    1
    71    31    69    1
    72    33    70    1
    73    34    71    1
    74    36    72    1
