REMARK  4 active torsions:
REMARK  status: ('A' for Active; 'I' for Inactive)
REMARK       I    between atoms: N_2  and  C_3 
REMARK    1  A    between atoms: C_3  and  C_5 
REMARK    2  A    between atoms: C_9  and  N_10 
REMARK    3  A    between atoms: C_11  and  C_12 
REMARK    4  A    between atoms: C_18  and  O_19 
ROOT
ATOM      1  C   UNL d   1       2.888   2.387  -0.763  0.00  0.00     0.040 A 
ATOM      2  C   UNL d   1       3.695   3.297  -1.457  0.00  0.00     0.018 A 
ATOM      3  C   UNL d   1       3.391   4.669  -1.432  0.00  0.00     0.003 A 
ATOM      4  C   UNL d   1       2.269   5.148  -0.724  0.00  0.00     0.032 A 
ATOM      5  C   UNL d   1       1.447   4.286   0.007  0.00  0.00     0.063 A 
ATOM      6  C   UNL d   1       1.823   2.934   0.006  0.00  0.00    -0.018 A 
ATOM      7  C   UNL d   1       1.056   1.954   0.759  0.00  0.00     0.052 C 
ENDROOT
BRANCH   5   8
ATOM      8  N   UNL d   1       0.379   4.817   0.789  0.00  0.00    -0.260 NA
ATOM      9  C   UNL d   1      -0.630   4.095   1.172  0.00  0.00     0.131 C 
BRANCH   9  10
ATOM     10  C   UNL d   1      -1.753   4.454   2.042  0.00  0.00     0.016 A 
ATOM     11  C   UNL d   1      -2.430   3.423   2.736  0.00  0.00     0.039 A 
ATOM     12  C   UNL d   1      -3.606   3.723   3.413  0.00  0.00     0.035 A 
ATOM     13 CL   UNL d   1      -4.460   2.493   4.266  0.00  0.00    -0.084 Cl
ATOM     14  C   UNL d   1      -4.100   5.025   3.385  0.00  0.00     0.026 A 
ATOM     15  C   UNL d   1      -3.416   6.035   2.689  0.00  0.00     0.039 A 
ATOM     16  C   UNL d   1      -2.239   5.745   2.016  0.00  0.00     0.077 A 
BRANCH  16  17
ATOM     17  O   UNL d   1      -1.587   6.674   1.268  0.00  0.00    -0.360 OA
ATOM     18  H   UNL d   1      -1.995   7.545   1.332  0.00  0.00     0.217 HD
ENDBRANCH  16  17
ENDBRANCH   9  10
ENDBRANCH   5   8
BRANCH   1  19
ATOM     19  C   UNL d   1       3.252   0.884  -0.760  0.00  0.00     0.251 C 
ATOM     20  N   UNL d   1       2.603  -0.109  -0.006  0.00  0.00    -0.361 N 
ATOM     21  C   UNL d   1       1.203  -0.593  -0.053  0.00  0.00     0.149 C 
ATOM     22  H   UNL d   1       3.246  -0.853   0.227  0.00  0.00     0.162 HD
ATOM     23  O   UNL d   1       4.300   0.538  -1.337  0.00  0.00    -0.268 OA
ENDBRANCH   1  19
TORSDOF 4
