REMARK  4 active torsions:
REMARK  status: ('A' for Active; 'I' for Inactive)
REMARK    1  A    between atoms: O_2  and  C_3 
REMARK    2  A    between atoms: C_3  and  C_5 
REMARK    3  A    between atoms: C_9  and  N_10 
REMARK       I    between atoms: N_10  and  C_11 
REMARK       I    between atoms: C_11  and  N_13 
REMARK    4  A    between atoms: C_21  and  C_22 
ROOT
ATOM      1  N   UNL d   1       7.249  -0.593   1.895  0.00  0.00    -0.309 N 
ATOM      2  C   UNL d   1       6.560  -0.318   3.065  0.00  0.00     0.323 C 
ATOM      3  O   UNL d   1       5.341  -0.311   3.215  0.00  0.00    -0.247 OA
ATOM      4  N   UNL d   1       7.337  -0.160   4.203  0.00  0.00    -0.319 N 
ATOM      5  C   UNL d   1       8.556   0.645   4.185  0.00  0.00     0.135 A 
ATOM      6  C   UNL d   1       9.308   0.922   5.496  0.00  0.00     0.079 A 
ATOM      7  C   UNL d   1       8.647   0.349   6.665  0.00  0.00     0.036 A 
ATOM      8  N   UNL d   1       9.089   0.361   7.973  0.00  0.00    -0.354 N 
ATOM      9  C   UNL d   1       8.260  -0.333   8.759  0.00  0.00     0.181 A 
ATOM     10  N   UNL d   1       7.285  -0.791   7.966  0.00  0.00    -0.352 N 
ATOM     11  C   UNL d   1       7.486  -0.368   6.653  0.00  0.00     0.061 A 
ATOM     12  C   UNL d   1       6.722  -0.708   5.427  0.00  0.00     0.177 A 
ATOM     13  H   UNL d   1       8.236  -0.805   1.953  0.00  0.00     0.170 HD
ATOM     14  H   UNL d   1       9.942   0.812   8.299  0.00  0.00     0.166 HD
ATOM     15  H   UNL d   1       6.526  -1.392   8.288  0.00  0.00     0.166 HD
ENDROOT
BRANCH  12  16
ATOM     16  C   UNL d   1       6.690  -2.212   5.281  0.00  0.00     0.013 A 
ATOM     17  C   UNL d   1       5.488  -2.916   5.393  0.00  0.00     0.016 A 
ATOM     18  C   UNL d   1       5.508  -4.307   5.336  0.00  0.00     0.046 A 
ATOM     19  C   UNL d   1       6.701  -4.979   5.061  0.00  0.00     0.158 A 
ATOM     20  F   UNL d   1       6.689  -6.312   4.959  0.00  0.00    -0.203 F 
ATOM     21  C   UNL d   1       7.886  -4.285   4.889  0.00  0.00     0.193 A 
ATOM     22  F   UNL d   1       9.039  -4.925   4.654  0.00  0.00    -0.200 F 
ATOM     23  C   UNL d   1       7.880  -2.910   5.005  0.00  0.00     0.166 A 
ATOM     24  F   UNL d   1       9.031  -2.235   4.851  0.00  0.00    -0.202 F 
ENDBRANCH  12  16
BRANCH   1  25
ATOM     25  C   UNL d   1       6.621  -0.898   0.653  0.00  0.00     0.037 A 
ATOM     26  C   UNL d   1       7.377  -1.343  -0.442  0.00  0.00     0.029 A 
ATOM     27  C   UNL d   1       6.736  -1.672  -1.651  0.00  0.00     0.003 A 
ATOM     28  C   UNL d   1       5.349  -1.528  -1.785  0.00  0.00     0.018 A 
ATOM     29  C   UNL d   1       4.591  -1.114  -0.693  0.00  0.00     0.041 A 
ATOM     30  C   UNL d   1       5.234  -0.794   0.500  0.00  0.00     0.047 A 
BRANCH  29  31
ATOM     31  C   UNL d   1       3.110  -1.163  -0.722  0.00  0.00     0.293 C 
ATOM     32  O   UNL d   1       2.497  -2.067  -1.281  0.00  0.00    -0.259 OA
BRANCH  31  33
ATOM     33  O   UNL d   1       2.558  -0.123  -0.047  0.00  0.00    -0.323 OA
ATOM     34  C   UNL d   1       1.123  -0.125  -0.033  0.00  0.00     0.213 C 
ENDBRANCH  31  33
ENDBRANCH  29  31
ENDBRANCH   1  25
TORSDOF 4
