@<TRIPOS>MOLECULE
*****
 50 52 0 0 0
SMALL
GASTEIGER

@<TRIPOS>ATOM
      1 C           1.0368   -0.0209    0.0421 C.3     1  UNL1        0.0788
      2 O           2.4540    0.0763   -0.0749 O.3     1  UNL1       -0.4951
      3 C           3.0929    0.7592    0.9230 C.ar    1  UNL1        0.1201
      4 C           4.3142    1.3542    0.5959 C.ar    1  UNL1       -0.0197
      5 C           5.1071    1.9559    1.5881 C.ar    1  UNL1       -0.0551
      6 C           4.6499    2.0417    2.9127 C.ar    1  UNL1       -0.0471
      7 C           5.4444    2.8105    3.9646 C.3     1  UNL1       -0.0272
      8 C           4.7570    2.8670    5.3559 C.3     1  UNL1       -0.0408
      9 C           5.4883    3.6682    6.4683 C.3     1  UNL1        0.0257
     10 C           4.7221    3.6510    7.8581 C.2     1  UNL1        0.2291
     11 O           3.6517    3.0485    7.9703 O.2     1  UNL1       -0.2743
     12 N           5.3101    4.3438    8.9564 N.am    1  UNL1       -0.2344
     13 N           4.6802    4.2883   10.4167 N.am    1  UNL1       -0.2341
     14 C           5.3014    4.9124   11.6217 C.2     1  UNL1        0.2335
     15 O           6.3132    5.5999   11.4474 O.2     1  UNL1       -0.2739
     16 C           4.5317    4.6379   13.2186 C.3     1  UNL1        0.0525
     17 C           4.8406    5.4392   14.8458 C.ar    1  UNL1       -0.0136
     18 C           4.2118    6.6222   14.7361 C.ar    1  UNL1        0.0064
     19 N           5.2520    7.2325   15.3687 N.ar    1  UNL1       -0.3604
     20 C           4.9944    6.8867   16.6615 C.ar    1  UNL1        0.0467
     21 C           5.0670    7.9277   17.6746 C.ar    1  UNL1       -0.0378
     22 C           4.7260    7.7952   18.9839 C.ar    1  UNL1       -0.0598
     23 C           4.3079    6.5329   19.2399 C.ar    1  UNL1       -0.0611
     24 C           4.3043    5.5108   18.1239 C.ar    1  UNL1       -0.0523
     25 C           4.6376    5.3558   16.6013 C.ar    1  UNL1        0.0033
     26 C           3.4222    1.4383    3.2142 C.ar    1  UNL1       -0.0551
     27 C           2.6534    0.8081    2.2383 C.ar    1  UNL1       -0.0197
     28 H           0.6860   -0.7434   -0.7004 H       1  UNL1        0.0660
     29 H           0.5892    0.9518   -0.1798 H       1  UNL1        0.0660
     30 H           0.6890   -0.3904    1.0115 H       1  UNL1        0.0660
     31 H           4.6499    1.3583   -0.4392 H       1  UNL1        0.0654
     32 H           6.0828    2.3520    1.3125 H       1  UNL1        0.0621
     33 H           5.5753    3.8334    3.5880 H       1  UNL1        0.0313
     34 H           6.4397    2.3578    4.0530 H       1  UNL1        0.0313
     35 H           4.6179    1.8351    5.7036 H       1  UNL1        0.0273
     36 H           3.7561    3.2991    5.2201 H       1  UNL1        0.0273
     37 H           5.6024    4.6986    6.1148 H       1  UNL1        0.0359
     38 H           6.4832    3.2271    6.5898 H       1  UNL1        0.0359
     39 H           6.1919    4.8412    8.8672 H       1  UNL1        0.1728
     40 H           3.7693    3.8307   10.3906 H       1  UNL1        0.1728
     41 H           4.2768    3.5872   13.3093 H       1  UNL1        0.0408
     42 H           3.6122    5.1986   12.9742 H       1  UNL1        0.0408
     43 H           3.1745    6.6566   15.0765 H       1  UNL1        0.0810
     44 H           6.2236    7.2249   15.0959 H       1  UNL1        0.1653
     45 H           5.3258    8.9288   17.3292 H       1  UNL1        0.0638
     46 H           4.7736    8.6309   19.6871 H       1  UNL1        0.0618
     47 H           3.9457    6.3603   20.2659 H       1  UNL1        0.0618
     48 H           3.9912    4.5369   18.6172 H       1  UNL1        0.0624
     49 H           3.0240    1.4280    4.2239 H       1  UNL1        0.0621
     50 H           1.7273    0.3514    2.5632 H       1  UNL1        0.0654
@<TRIPOS>BOND
     1     1     2    1
     2     2     3    1
     3     3     4   ar
     4     4     5   ar
     5     5     6   ar
     6     6     7    1
     7     7     8    1
     8     8     9    1
     9     9    10    1
    10    10    11    2
    11    10    12   am
    12    12    13    1
    13    13    14   am
    14    14    15    2
    15    14    16    1
    16    16    17    1
    17    17    18   ar
    18    18    19   ar
    19    19    20   ar
    20    20    21   ar
    21    21    22   ar
    22    22    23   ar
    23    23    24   ar
    24    24    25   ar
    25    17    25   ar
    26    20    25   ar
    27     6    26   ar
    28    26    27   ar
    29     3    27   ar
    30     1    28    1
    31     1    29    1
    32     1    30    1
    33     4    31    1
    34     5    32    1
    35     7    33    1
    36     7    34    1
    37     8    35    1
    38     8    36    1
    39     9    37    1
    40     9    38    1
    41    12    39    1
    42    13    40    1
    43    16    41    1
    44    16    42    1
    45    18    43    1
    46    19    44    1
    47    21    45    1
    48    22    46    1
    49    23    47    1
    50    24    48    1
    51    26    49    1
    52    27    50    1
