REMARK  5 active torsions:
REMARK  status: ('A' for Active; 'I' for Inactive)
REMARK    1  A    between atoms: C_5  and  N_6 
REMARK       I    between atoms: N_6  and  C_7 
REMARK       I    between atoms: C_7  and  N_9 
REMARK       I    between atoms: N_9  and  C_10 
REMARK    2  A    between atoms: C_12  and  C_10 
REMARK    3  A    between atoms: C_12  and  S_14 
REMARK    4  A    between atoms: S_14  and  C_15 
REMARK    5  A    between atoms: C_20  and  C_21 
REMARK       I    between atoms: C_21  and  N_22 
ROOT
ATOM      1  N   UNL d   1      -7.739  -7.382  -4.093  0.00  0.00    -0.308 N 
ATOM      2  C   UNL d   1      -7.127  -6.372  -3.355  0.00  0.00     0.327 C 
ATOM      3  O   UNL d   1      -7.206  -5.178  -3.633  0.00  0.00    -0.247 OA
ATOM      4  N   UNL d   1      -6.409  -6.756  -2.254  0.00  0.00    -0.278 N 
ATOM      5  C   UNL d   1      -5.802  -5.807  -1.434  0.00  0.00     0.239 C 
ATOM      6  O   UNL d   1      -5.883  -4.587  -1.613  0.00  0.00    -0.272 OA
ATOM      7  H   UNL d   1      -7.674  -8.336  -3.773  0.00  0.00     0.170 HD
ATOM      8  H   UNL d   1      -6.265  -7.737  -2.079  0.00  0.00     0.173 HD
ENDROOT
BRANCH   5   9
ATOM      9  C   UNL d   1      -5.077  -6.250  -0.167  0.00  0.00     0.141 C 
ATOM     10  C   UNL d   1      -3.749  -5.481  -0.069  0.00  0.00     0.031 C 
BRANCH   9  11
ATOM     11  S   UNL d   1      -4.652  -7.992  -0.092  0.00  0.00    -0.115 SA
BRANCH  11  12
ATOM     12  C   UNL d   1      -6.183  -8.921   0.001  0.00  0.00     0.017 A 
ATOM     13  C   UNL d   1      -7.431  -8.274   0.138  0.00  0.00     0.019 A 
ATOM     14  C   UNL d   1      -8.621  -8.992   0.219  0.00  0.00     0.001 A 
ATOM     15  C   UNL d   1      -8.591 -10.372   0.140  0.00  0.00     0.001 A 
ATOM     16  C   UNL d   1      -7.372 -11.036  -0.009  0.00  0.00     0.018 A 
ATOM     17  C   UNL d   1      -6.153 -10.335  -0.097  0.00  0.00     0.048 A 
BRANCH  17  18
ATOM     18  C   UNL d   1      -4.868 -11.099  -0.339  0.00  0.00     0.250 C 
ATOM     19  N   UNL d   1      -4.906 -12.460  -0.382  0.00  0.00    -0.366 N 
ATOM     20  H   UNL d   1      -5.714 -13.046  -0.271  0.00  0.00     0.159 HD
ATOM     21  H   UNL d   1      -4.010 -12.905  -0.539  0.00  0.00     0.159 HD
ATOM     22  O   UNL d   1      -3.768 -10.591  -0.538  0.00  0.00    -0.268 OA
ENDBRANCH  17  18
ENDBRANCH  11  12
ENDBRANCH   9  11
ENDBRANCH   5   9
BRANCH   1  23
ATOM     23  C   UNL d   1      -8.482  -7.137  -5.307  0.00  0.00     0.042 A 
ATOM     24  C   UNL d   1      -8.615  -5.829  -5.799  0.00  0.00     0.030 A 
ATOM     25  C   UNL d   1      -9.292  -5.503  -6.965  0.00  0.00     0.009 A 
ATOM     26  C   UNL d   1      -9.882  -6.493  -7.723  0.00  0.00    -0.061 A 
ATOM     27  C   UNL d   1     -10.602  -6.099  -8.976  0.00  0.00     0.048 C 
ATOM     28  C   UNL d   1      -9.779  -7.818  -7.273  0.00  0.00     0.015 A 
ATOM     29  C   UNL d   1      -9.090  -8.160  -6.066  0.00  0.00    -0.035 A 
ATOM     30  C   UNL d   1      -9.058  -9.619  -5.696  0.00  0.00     0.050 C 
ENDBRANCH   1  23
TORSDOF 5
