@<TRIPOS>MOLECULE
*****
 38 39 0 0 0
SMALL
GASTEIGER

@<TRIPOS>ATOM
      1 O           1.0031   -0.0784   -0.0276 O.2     1  UNL1       -0.2525
      2 C           2.2355    0.0111   -0.0263 C.2     1  UNL1        0.3050
      3 N           2.8821    1.2198   -0.1137 N.am    1  UNL1       -0.2976
      4 C           2.1813    2.4963   -0.2548 C.3     1  UNL1        0.0287
      5 C           3.1320    3.7086   -0.3529 C.3     1  UNL1        0.0287
      6 N           2.4820    5.0223   -0.4666 N.am    1  UNL1       -0.2976
      7 C           3.2534    6.1647   -0.5718 C.2     1  UNL1        0.3050
      8 O           4.4837    6.0866   -0.5678 O.2     1  UNL1       -0.2525
      9 N           2.5449    7.3475   -0.6798 N.am    1  UNL1       -0.2542
     10 C           3.2058    8.5995   -0.7779 C.ar    1  UNL1        0.1260
     11 C           4.3122    8.7391   -1.6109 C.ar    1  UNL1       -0.0215
     12 C           4.9821    9.9589   -1.6856 C.ar    1  UNL1       -0.0571
     13 C           4.5442   11.0185   -0.9099 C.ar    1  UNL1       -0.0435
     14 C           3.4170   10.8150   -0.1278 C.ar    1  UNL1        0.0297
     15 N           2.7131    9.6458   -0.0736 N.ar    1  UNL1       -0.2401
     16 N           3.0054   -1.1213    0.0055 N.am    1  UNL1       -0.2542
     17 C           4.3949   -1.2342    0.0839 C.ar    1  UNL1        0.1260
     18 C           5.1186   -0.3601    0.8826 C.ar    1  UNL1       -0.0215
     19 C           6.5045   -0.3807    0.8361 C.ar    1  UNL1       -0.0571
     20 C           7.1354   -1.3082    0.0227 C.ar    1  UNL1       -0.0435
     21 C           6.3425   -2.2017   -0.6813 C.ar    1  UNL1        0.0297
     22 N           4.9854   -2.2012   -0.6487 N.ar    1  UNL1       -0.2401
     23 H           3.8570    1.2014   -0.3759 H       1  UNL1        0.1503
     24 H           1.5263    2.5990    0.6159 H       1  UNL1        0.0478
     25 H           1.5459    2.4406   -1.1455 H       1  UNL1        0.0478
     26 H           3.7932    3.5887   -1.2221 H       1  UNL1        0.0478
     27 H           3.7880    3.7351    0.5271 H       1  UNL1        0.0478
     28 H           1.4744    5.0866   -0.4670 H       1  UNL1        0.1503
     29 H           1.6093    7.4021   -0.3081 H       1  UNL1        0.1578
     30 H           4.6447    7.9095   -2.2236 H       1  UNL1        0.0652
     31 H           5.8416   10.0652   -2.3407 H       1  UNL1        0.0619
     32 H           5.0648   11.9713   -0.9229 H       1  UNL1        0.0633
     33 H           3.0480   11.6228    0.5021 H       1  UNL1        0.0830
     34 H           2.5131   -1.9848   -0.1840 H       1  UNL1        0.1578
     35 H           4.6087    0.3281    1.5476 H       1  UNL1        0.0652
     36 H           7.0737    0.3271    1.4297 H       1  UNL1        0.0619
     37 H           8.2171   -1.3405   -0.0456 H       1  UNL1        0.0633
     38 H           6.7989   -2.9547   -1.3202 H       1  UNL1        0.0830
@<TRIPOS>BOND
     1     1     2    2
     2     2     3   am
     3     3     4    1
     4     4     5    1
     5     5     6    1
     6     6     7   am
     7     7     8    2
     8     7     9   am
     9     9    10    1
    10    10    11   ar
    11    11    12   ar
    12    12    13   ar
    13    13    14   ar
    14    14    15   ar
    15    10    15   ar
    16     2    16   am
    17    16    17    1
    18    17    18   ar
    19    18    19   ar
    20    19    20   ar
    21    20    21   ar
    22    21    22   ar
    23    17    22   ar
    24     3    23    1
    25     4    24    1
    26     4    25    1
    27     5    26    1
    28     5    27    1
    29     6    28    1
    30     9    29    1
    31    11    30    1
    32    12    31    1
    33    13    32    1
    34    14    33    1
    35    16    34    1
    36    18    35    1
    37    19    36    1
    38    20    37    1
    39    21    38    1
