@<TRIPOS>MOLECULE
*****
 66 70 0 0 0
SMALL
GASTEIGER

@<TRIPOS>ATOM
      1 C           0.9634    0.0333   -0.0930 C.3     1  UNL1        0.0788
      2 O           2.3859   -0.0477   -0.1282 O.3     1  UNL1       -0.4950
      3 C           2.9792    0.7675   -1.0490 C.ar    1  UNL1        0.1236
      4 C           2.6494    2.1123   -1.2203 C.ar    1  UNL1       -0.0192
      5 C           3.4387    2.9303   -2.0322 C.ar    1  UNL1       -0.0476
      6 C           4.3857    2.3547   -2.8743 C.ar    1  UNL1        0.0188
      7 C           5.0394    3.1178   -3.9323 C.ar    1  UNL1       -0.0290
      8 C           5.8246    2.5218   -4.8524 C.ar    1  UNL1        0.1507
      9 C           6.3634    3.4233   -5.9607 C.2     1  UNL1        0.2542
     10 O           6.0927    4.6198   -5.9688 O.2     1  UNL1       -0.2698
     11 N           7.1524    2.8640   -6.9472 N.am    1  UNL1       -0.3070
     12 C           7.7254    3.6286   -8.0720 C.3     1  UNL1        0.0371
     13 C           8.4605    2.7209   -9.0644 C.ar    1  UNL1       -0.0303
     14 C           9.4613    3.2006   -9.9157 C.ar    1  UNL1       -0.0571
     15 C          10.0855    2.3492  -10.8530 C.ar    1  UNL1       -0.0615
     16 C           9.8535    0.9751  -10.8465 C.ar    1  UNL1       -0.0617
     17 C           8.9732    0.4624   -9.9176 C.ar    1  UNL1       -0.0615
     18 C           8.2235    1.3405   -9.1226 C.ar    1  UNL1       -0.0571
     19 C           6.0064    1.0607   -4.7093 C.ar    1  UNL1        0.4090
     20 N           6.6029    0.3132   -5.5532 N.2     1  UNL1       -0.0949
     21 N           6.9172   -1.0364   -5.4478 N.am    1  UNL1       -0.0824
     22 C           7.6515   -1.5549   -6.4971 C.2     1  UNL1        0.2987
     23 O           7.8337   -0.9229   -7.5410 O.2     1  UNL1       -0.2648
     24 C           8.1814   -2.8901   -6.3534 C.ar    1  UNL1        0.0628
     25 C           7.1585   -3.8138   -6.1367 C.ar    1  UNL1       -0.0477
     26 C           7.4857   -5.0865   -5.7402 C.ar    1  UNL1       -0.0609
     27 C           8.8212   -5.4743   -5.7488 C.ar    1  UNL1       -0.0600
     28 C           9.8317   -4.5917   -6.1665 C.ar    1  UNL1       -0.0398
     29 C           9.5502   -3.2427   -6.4138 C.ar    1  UNL1        0.0437
     30 N          10.6272   -2.3612   -6.6624 N.pl3   1  UNL1       -0.3139
     31 C          10.6674   -0.9558   -6.6357 C.ar    1  UNL1        0.0313
     32 C          10.0302   -0.2516   -5.6065 C.ar    1  UNL1       -0.0405
     33 C           9.7702    1.1072   -5.7203 C.ar    1  UNL1       -0.0600
     34 C          10.3352    1.8143   -6.7643 C.ar    1  UNL1       -0.0616
     35 C          11.1100    1.1560   -7.7160 C.ar    1  UNL1       -0.0600
     36 C          11.2220   -0.2352   -7.6935 C.ar    1  UNL1       -0.0405
     37 O           5.5357    0.3552   -3.6255 O.2     1  UNL1       -0.4018
     38 C           4.6550    0.9968   -2.7433 C.ar    1  UNL1        0.1452
     39 C           4.0324    0.2163   -1.7737 C.ar    1  UNL1        0.0232
     40 H           0.6149   -0.5931    0.7330 H       1  UNL1        0.0660
     41 H           0.5503   -0.3617   -1.0260 H       1  UNL1        0.0660
     42 H           0.5925    1.0448    0.0941 H       1  UNL1        0.0660
     43 H           1.7971    2.5589   -0.7182 H       1  UNL1        0.0654
     44 H           3.2763    4.0058   -2.0085 H       1  UNL1        0.0626
     45 H           4.7988    4.1809   -3.9746 H       1  UNL1        0.0635
     46 H           7.7661    2.1009   -6.7831 H       1  UNL1        0.1493
     47 H           8.4216    4.3491   -7.6219 H       1  UNL1        0.0512
     48 H           6.9205    4.1606   -8.5792 H       1  UNL1        0.0512
     49 H           9.8161    4.2249   -9.8303 H       1  UNL1        0.0621
     50 H          10.8086    2.7498  -11.5575 H       1  UNL1        0.0618
     51 H          10.3956    0.3012  -11.5049 H       1  UNL1        0.0618
     52 H           8.9332   -0.6141   -9.7414 H       1  UNL1        0.0618
     53 H           7.5083    0.8981   -8.4560 H       1  UNL1        0.0621
     54 H           6.9357    0.7375   -6.4171 H       1  UNL1        0.4882
     55 H           6.6849   -1.5504   -4.6015 H       1  UNL1        0.2260
     56 H           6.1183   -3.5245   -6.2691 H       1  UNL1        0.0626
     57 H           6.6982   -5.7703   -5.4424 H       1  UNL1        0.0618
     58 H           9.0743   -6.4857   -5.4423 H       1  UNL1        0.0618
     59 H          10.8437   -4.9811   -6.2677 H       1  UNL1        0.0636
     60 H          11.5485   -2.7790   -6.7788 H       1  UNL1        0.1522
     61 H           9.6438   -0.8008   -4.7557 H       1  UNL1        0.0636
     62 H           9.0950    1.6035   -5.0340 H       1  UNL1        0.0618
     63 H          10.1001    2.8655   -6.9019 H       1  UNL1        0.0618
     64 H          11.4881    1.7154   -8.5689 H       1  UNL1        0.0618
     65 H          11.6278   -0.7359   -8.5718 H       1  UNL1        0.0636
     66 H           4.3204   -0.8176   -1.6096 H       1  UNL1        0.0691
@<TRIPOS>UNITY_ATOM_ATTR
20 1
charge 1
@<TRIPOS>BOND
     1     1     2    1
     2     2     3    1
     3     3     4   ar
     4     4     5   ar
     5     5     6   ar
     6     6     7   ar
     7     7     8   ar
     8     8     9    1
     9     9    10    2
    10     9    11   am
    11    11    12    1
    12    12    13    1
    13    13    14   ar
    14    14    15   ar
    15    15    16   ar
    16    16    17   ar
    17    17    18   ar
    18    13    18   ar
    19     8    19   ar
    20    19    20    2
    21    20    21    1
    22    21    22   am
    23    22    23    2
    24    22    24    1
    25    24    25   ar
    26    25    26   ar
    27    26    27   ar
    28    27    28   ar
    29    28    29   ar
    30    24    29   ar
    31    29    30    1
    32    30    31    1
    33    31    32   ar
    34    32    33   ar
    35    33    34   ar
    36    34    35   ar
    37    35    36   ar
    38    31    36   ar
    39    19    37   ar
    40    37    38   ar
    41     6    38   ar
    42    38    39   ar
    43     3    39   ar
    44     1    40    1
    45     1    41    1
    46     1    42    1
    47     4    43    1
    48     5    44    1
    49     7    45    1
    50    11    46    1
    51    12    47    1
    52    12    48    1
    53    14    49    1
    54    15    50    1
    55    16    51    1
    56    17    52    1
    57    18    53    1
    58    20    54    1
    59    21    55    1
    60    25    56    1
    61    26    57    1
    62    27    58    1
    63    28    59    1
    64    30    60    1
    65    32    61    1
    66    33    62    1
    67    34    63    1
    68    35    64    1
    69    36    65    1
    70    39    66    1
