REMARK  4 active torsions:
REMARK  status: ('A' for Active; 'I' for Inactive)
REMARK    1  A    between atoms: C_8  and  C_9 
REMARK       I    between atoms: C_9  and  N_11 
REMARK    2  A    between atoms: N_11  and  C_12 
REMARK    3  A    between atoms: C_12  and  C_13 
REMARK    4  A    between atoms: C_18  and  N_19 
ROOT
ATOM      1  C   UNL d   1       5.878   4.320   0.052  0.00  0.00     0.258 C 
ATOM      2  O   UNL d   1       5.270   5.376   0.076  0.00  0.00    -0.267 OA
ATOM      3  N   UNL d   1       7.277   4.299   0.000  0.00  0.00    -0.352 N 
ATOM      4  H   UNL d   1       7.704   3.388   0.067  0.00  0.00     0.163 HD
ENDROOT
BRANCH   3   5
ATOM      5  C   UNL d   1       8.063   5.508   0.021  0.00  0.00     0.165 C 
BRANCH   5   6
ATOM      6  C   UNL d   1       9.576   5.365  -0.003  0.00  0.00     0.004 A 
ATOM      7  C   UNL d   1      10.200   4.100   0.019  0.00  0.00     0.014 A 
ATOM      8  C   UNL d   1      11.582   3.977   0.059  0.00  0.00     0.018 A 
ATOM      9  C   UNL d   1      12.343   5.128   0.061  0.00  0.00     0.089 A 
ATOM     10  N   UNL d   1      11.743   6.326   0.018  0.00  0.00    -0.352 N 
ATOM     11  C   UNL d   1      10.406   6.518  -0.009  0.00  0.00     0.111 A 
ATOM     12  H   UNL d   1      12.306   7.171   0.075  0.00  0.00     0.166 HD
BRANCH  11  13
ATOM     13  N   UNL d   1      10.025   7.830   0.173  0.00  0.00    -0.367 N 
ATOM     14  C   UNL d   1       9.726   8.725  -0.970  0.00  0.00     0.124 C 
ATOM     15  C   UNL d   1       9.997  10.172  -0.504  0.00  0.00     0.020 C 
ATOM     16  C   UNL d   1       9.209  10.528   0.764  0.00  0.00     0.003 C 
ATOM     17  C   UNL d   1       9.391   9.469   1.848  0.00  0.00     0.020 C 
ATOM     18  C   UNL d   1       9.104   8.085   1.294  0.00  0.00     0.124 C 
ENDBRANCH  11  13
ENDBRANCH   5   6
ENDBRANCH   3   5
BRANCH   1  19
ATOM     19  C   UNL d   1       5.246   2.993   0.074  0.00  0.00     0.075 A 
ATOM     20  S   UNL d   1       6.309   1.620   0.083  0.00  0.00    -0.065 SA
ATOM     21  C   UNL d   1       5.003   0.625   0.084  0.00  0.00     0.106 A 
ATOM     22  N   UNL d   1       4.870  -0.707   0.084  0.00  0.00    -0.266 N 
ATOM     23  C   UNL d   1       3.793   1.179   0.085  0.00  0.00     0.027 A 
ATOM     24  N   UNL d   1       3.562  -1.079   0.084  0.00  0.00    -0.176 NA
ATOM     25  C   UNL d   1       6.013  -1.588   0.084  0.00  0.00     0.181 C 
ATOM     26  C   UNL d   1       2.867   0.103   0.085  0.00  0.00     0.064 A 
ATOM     27  C   UNL d   1       1.362   0.051   0.084  0.00  0.00     0.073 C 
ATOM     28  C   UNL d   1       3.886   2.590   0.086  0.00  0.00     0.041 A 
ENDBRANCH   1  19
TORSDOF 4
