REMARK  6 active torsions:
REMARK  status: ('A' for Active; 'I' for Inactive)
REMARK    1  A    between atoms: C_2  and  C_3 
REMARK       I    between atoms: C_2  and  N_15 
REMARK    2  A    between atoms: C_3  and  C_4 
REMARK    3  A    between atoms: N_15  and  N_16 
REMARK    4  A    between atoms: C_17  and  C_18 
REMARK    5  A    between atoms: C_21  and  C_22 
REMARK    6  A    between atoms: C_27  and  N_28 
ROOT
ATOM      1  O   UNL d   1       1.122  -0.210   0.245  0.00  0.00    -0.271 OA
ATOM      2  C   UNL d   1       2.347  -0.158   0.136  0.00  0.00     0.241 C 
ATOM      3  N   UNL d   1       3.136  -0.819   1.064  0.00  0.00    -0.247 N 
ATOM      4  H   UNL d   1       2.635  -1.314   1.794  0.00  0.00     0.192 HD
ENDROOT
BRANCH   3   5
ATOM      5  N   UNL d   1       4.498  -0.770   1.047  0.00  0.00    -0.182 NA
ATOM      6  C   UNL d   1       5.148  -1.497   1.911  0.00  0.00     0.175 C 
BRANCH   6   7
ATOM      7  C   UNL d   1       6.591  -1.418   1.911  0.00  0.00     0.095 A 
ATOM      8  C   UNL d   1       7.377  -0.305   1.696  0.00  0.00     0.041 A 
ATOM      9  C   UNL d   1       8.711  -0.741   1.662  0.00  0.00     0.041 A 
ATOM     10  C   UNL d   1       8.704  -2.084   1.973  0.00  0.00     0.088 A 
ATOM     11  O   UNL d   1       7.401  -2.521   2.117  0.00  0.00    -0.308 OA
BRANCH  10  12
ATOM     12  C   UNL d   1       9.812  -3.001   2.255  0.00  0.00     0.031 A 
ATOM     13  C   UNL d   1      10.013  -4.117   1.413  0.00  0.00     0.017 A 
ATOM     14  C   UNL d   1      11.076  -5.013   1.621  0.00  0.00     0.001 A 
ATOM     15  C   UNL d   1      12.007  -4.777   2.624  0.00  0.00     0.002 A 
ATOM     16  C   UNL d   1      11.863  -3.660   3.442  0.00  0.00     0.037 A 
ATOM     17  C   UNL d   1      10.775  -2.772   3.269  0.00  0.00     0.115 A 
BRANCH  17  18
ATOM     18  N   UNL d   1      10.745  -1.610   4.190  0.00  0.00    -0.115 N 
ATOM     19  O   UNL d   1      11.696  -1.472   4.965  0.00  0.00    -0.532 OA
ATOM     20  O   UNL d   1       9.787  -0.824   4.160  0.00  0.00    -0.532 OA
ENDBRANCH  17  18
ENDBRANCH  10  12
ENDBRANCH   6   7
ENDBRANCH   3   5
BRANCH   2  21
ATOM     21  C   UNL d   1       3.074   0.587  -0.978  0.00  0.00     0.144 C 
BRANCH  21  22
ATOM     22  C   UNL d   1       2.168   1.379  -1.922  0.00  0.00    -0.038 A 
ATOM     23  C   UNL d   1       1.226   0.666  -2.685  0.00  0.00     0.010 A 
ATOM     24  C   UNL d   1       0.367   1.322  -3.561  0.00  0.00     0.020 A 
ATOM     25  C   UNL d   1       0.446   2.708  -3.708  0.00  0.00     0.022 A 
ATOM     26 BR   UNL d   1      -0.800   3.488  -4.926  0.00  0.00    -0.050 Br
ATOM     27  C   UNL d   1       1.392   3.475  -2.976  0.00  0.00    -0.008 A 
ATOM     28  C   UNL d   1       1.528   4.886  -3.086  0.00  0.00     0.013 A 
ATOM     29  C   UNL d   1       2.255   2.792  -2.069  0.00  0.00    -0.018 A 
ATOM     30  C   UNL d   1       2.456   5.604  -2.326  0.00  0.00     0.001 A 
ATOM     31  C   UNL d   1       3.280   4.936  -1.443  0.00  0.00     0.001 A 
ATOM     32  C   UNL d   1       3.181   3.556  -1.327  0.00  0.00     0.013 A 
ENDBRANCH  21  22
ENDBRANCH   2  21
TORSDOF 6
