REMARK  9 active torsions:
REMARK  status: ('A' for Active; 'I' for Inactive)
REMARK    1  A    between atoms: O_2  and  C_3 
REMARK    2  A    between atoms: C_9  and  C_10 
REMARK    3  A    between atoms: C_10  and  C_11 
REMARK    4  A    between atoms: C_11  and  N_12 
REMARK       I    between atoms: N_12  and  C_13 
REMARK    5  A    between atoms: C_13  and  C_15 
REMARK    6  A    between atoms: C_15  and  C_16 
REMARK    7  A    between atoms: C_17  and  C_16 
REMARK    8  A    between atoms: C_20  and  C_21 
REMARK       I    between atoms: C_21  and  N_23 
REMARK    9  A    between atoms: N_23  and  C_24 
ROOT
ATOM      1  C   UNL d   1      13.548  -3.056  -8.512  0.00  0.00     0.105 C 
ENDROOT
BRANCH   1   2
ATOM      2  C   UNL d   1      14.284  -2.951  -9.832  0.00  0.00     0.217 C 
ATOM      3  N   UNL d   1      15.305  -2.025  -9.836  0.00  0.00    -0.361 N 
ATOM      4  H   UNL d   1      15.570  -1.578  -8.966  0.00  0.00     0.162 HD
ATOM      5  O   UNL d   1      13.990  -3.594 -10.838  0.00  0.00    -0.274 OA
BRANCH   3   6
ATOM      6  C   UNL d   1      16.055  -1.826 -11.047  0.00  0.00     0.127 C 
BRANCH   6   7
ATOM      7  C   UNL d   1      17.153  -0.776 -10.914  0.00  0.00     0.056 C 
BRANCH   7   8
ATOM      8  C   UNL d   1      17.910  -0.540 -12.186  0.00  0.00    -0.048 A 
ATOM      9  C   UNL d   1      18.912   0.331 -12.360  0.00  0.00    -0.003 A 
ATOM     10  C   UNL d   1      19.302   0.190 -13.773  0.00  0.00     0.039 A 
ATOM     11  C   UNL d   1      19.568   1.269 -11.506  0.00  0.00     0.050 A 
ATOM     12  C   UNL d   1      20.404   1.025 -14.274  0.00  0.00     0.033 A 
ATOM     13  N   UNL d   1      18.594  -0.687 -14.388  0.00  0.00    -0.385 N 
ATOM     14  C   UNL d   1      20.975   1.884 -13.405  0.00  0.00     0.039 A 
ATOM     15  C   UNL d   1      20.535   2.047 -12.020  0.00  0.00     0.069 A 
ATOM     16  C   UNL d   1      17.604  -1.270 -13.466  0.00  0.00     0.155 A 
ATOM     17  H   UNL d   1      18.714  -0.925 -15.367  0.00  0.00     0.160 HD
BRANCH  15  18
ATOM     18  O   UNL d   1      21.208   2.938 -11.213  0.00  0.00    -0.356 OA
ATOM     19  C   UNL d   1      21.301   4.273 -11.715  0.00  0.00     0.210 C 
ENDBRANCH  15  18
ENDBRANCH   7   8
ENDBRANCH   6   7
ENDBRANCH   3   6
ENDBRANCH   1   2
BRANCH   1  20
ATOM     20  C   UNL d   1      12.507  -4.173  -8.590  0.00  0.00     0.041 C 
BRANCH  20  21
ATOM     21  C   UNL d   1      11.692  -4.445  -7.312  0.00  0.00     0.135 C 
ATOM     22  N   UNL d   1      11.074  -5.779  -7.431  0.00  0.00    -0.245 NA
ATOM     23  N   UNL d   1      11.913  -6.806  -6.765  0.00  0.00    -0.237 NA
ATOM     24  H   UNL d   1      10.902  -5.995  -8.417  0.00  0.00     0.142 HD
ATOM     25  C   UNL d   1      13.036  -6.202  -6.017  0.00  0.00     0.226 C 
ATOM     26  H   UNL d   1      12.208  -7.556  -7.386  0.00  0.00     0.142 HD
ATOM     27  S   UNL d   1      12.582  -4.468  -5.745  0.00  0.00    -0.117 SA
BRANCH  25  28
ATOM     28  C   UNL d   1      14.367  -6.266  -6.819  0.00  0.00     0.251 C 
ATOM     29  O   UNL d   1      14.905  -5.248  -7.265  0.00  0.00    -0.270 OA
ATOM     30  N   UNL d   1      14.935  -7.517  -7.038  0.00  0.00    -0.325 N 
ATOM     31  H   UNL d   1      14.379  -8.348  -6.888  0.00  0.00     0.169 HD
BRANCH  30  32
ATOM     32  C   UNL d   1      16.114  -7.619  -7.827  0.00  0.00     0.034 A 
ATOM     33  C   UNL d   1      17.130  -6.655  -7.730  0.00  0.00     0.029 A 
ATOM     34  C   UNL d   1      18.183  -6.619  -8.641  0.00  0.00     0.002 A 
ATOM     35  C   UNL d   1      18.293  -7.623  -9.593  0.00  0.00     0.000 A 
ATOM     36  C   UNL d   1      17.360  -8.662  -9.616  0.00  0.00     0.002 A 
ATOM     37  C   UNL d   1      16.251  -8.647  -8.757  0.00  0.00     0.029 A 
ENDBRANCH  30  32
ENDBRANCH  25  28
ENDBRANCH  20  21
ENDBRANCH   1  20
TORSDOF 9
