@<TRIPOS>MOLECULE
*****
 37 37 0 0 0
SMALL
GASTEIGER

@<TRIPOS>ATOM
      1 C           3.6172    2.7002   -2.0791 C.3     1  UNL1       -0.0610
      2 C           2.5983    1.5577   -2.0011 C.3     1  UNL1       -0.0285
      3 C           1.3840    2.0763   -1.2129 C.3     1  UNL1       -0.0610
      4 C           3.1842    0.2180   -1.4307 C.3     1  UNL1        0.0231
      5 C           2.7285   -0.0423    0.0173 C.3     1  UNL1       -0.0464
      6 N           4.6499    0.1188   -1.5514 N.am    1  UNL1       -0.3047
      7 C           5.3314    0.1808   -2.7652 C.2     1  UNL1        0.3007
      8 O           4.7955    0.2274   -3.8701 O.2     1  UNL1       -0.2651
      9 C           6.8812    0.2876   -2.6745 C.2     1  UNL1        0.3149
     10 O           7.4373    0.2069   -1.5771 O.2     1  UNL1       -0.2636
     11 N           7.5293    0.4826   -3.8947 N.am    1  UNL1       -0.2286
     12 N           8.9398    0.5572   -3.9123 N.pl3   1  UNL1       -0.2627
     13 C           9.6244    0.5793   -5.1487 C.ar    1  UNL1        0.0628
     14 C           9.2477    1.4916   -6.1454 C.ar    1  UNL1       -0.0366
     15 C           9.9694    1.6057   -7.3435 C.ar    1  UNL1       -0.0415
     16 C          11.0612    0.7772   -7.5858 C.ar    1  UNL1        0.0425
     17 CL         11.9361    0.9264   -9.0615 Cl      1  UNL1       -0.0835
     18 C          11.4436   -0.1649   -6.6378 C.ar    1  UNL1       -0.0232
     19 C          10.7316   -0.2578   -5.4287 C.ar    1  UNL1        0.0646
     20 CL         11.2607   -1.4443   -4.2856 Cl      1  UNL1       -0.0815
     21 H           3.1533    3.6052   -2.4820 H       1  UNL1        0.0233
     22 H           4.4486    2.4783   -2.7498 H       1  UNL1        0.0233
     23 H           4.0267    2.9224   -1.0895 H       1  UNL1        0.0233
     24 H           2.2582    1.3509   -3.0262 H       1  UNL1        0.0313
     25 H           1.6646    2.3210   -0.1814 H       1  UNL1        0.0233
     26 H           0.5777    1.3366   -1.1904 H       1  UNL1        0.0233
     27 H           0.9804    2.9935   -1.6510 H       1  UNL1        0.0233
     28 H           2.7783   -0.6028   -2.0393 H       1  UNL1        0.0498
     29 H           3.0580    0.7646    0.6817 H       1  UNL1        0.0248
     30 H           3.1150   -0.9831    0.4157 H       1  UNL1        0.0248
     31 H           1.6343   -0.1084    0.0856 H       1  UNL1        0.0248
     32 H           5.2178    0.1438   -0.7072 H       1  UNL1        0.1494
     33 H           7.0044    0.4863   -4.7684 H       1  UNL1        0.1732
     34 H           9.4172    0.1405   -3.1087 H       1  UNL1        0.1700
     35 H           8.4250    2.1779   -5.9646 H       1  UNL1        0.0637
     36 H           9.6822    2.3577   -8.0748 H       1  UNL1        0.0633
     37 H          12.2939   -0.8149   -6.8356 H       1  UNL1        0.0647
@<TRIPOS>BOND
     1     1     2    1
     2     2     3    1
     3     4     6    1
     4     6     7   am
     5     7     8    2
     6     7     9    1
     7     9    10    2
     8     9    11   am
     9    11    12    1
    10    12    13    1
    11    13    14   ar
    12    14    15   ar
    13    15    16   ar
    14    16    17    1
    15    16    18   ar
    16    18    19   ar
    17    13    19   ar
    18    19    20    1
    19     4     5    1
    20     4     2    1
    21     1    21    1
    22     1    22    1
    23     1    23    1
    24     2    24    1
    25     3    25    1
    26     3    26    1
    27     3    27    1
    28     4    28    1
    29     5    29    1
    30     5    30    1
    31     5    31    1
    32     6    32    1
    33    11    33    1
    34    12    34    1
    35    14    35    1
    36    15    36    1
    37    18    37    1
