@<TRIPOS>MOLECULE
*****
 81 83 0 0 0
SMALL
GASTEIGER

@<TRIPOS>ATOM
      1 C          16.6709   -3.3028    9.3838 C.3     1  UNL1       -0.0653
      2 C          16.1356   -2.6830    8.1075 C.3     1  UNL1       -0.0559
      3 C          14.7294   -2.1452    8.3285 C.3     1  UNL1       -0.0532
      4 C          14.1897   -1.5097    7.0552 C.3     1  UNL1       -0.0504
      5 C          12.7799   -0.9817    7.2957 C.3     1  UNL1       -0.0232
      6 C          12.2053   -0.3767    6.0096 C.3     1  UNL1        0.0734
      7 O          12.3605    1.0361    6.0258 O.3     1  UNL1       -0.3878
      8 C          10.7512   -0.7130    5.8406 C.2     1  UNL1       -0.0595
      9 C          10.3454   -1.9939    5.7659 C.2     1  UNL1       -0.0793
     10 C           8.9323   -2.4648    5.5349 C.3     1  UNL1        0.0134
     11 C           8.8529   -4.0156    5.5128 C.3     1  UNL1        0.0688
     12 O           7.9967   -4.4866    4.4748 O.3     1  UNL1       -0.3908
     13 C           8.3764   -4.4815    6.8893 C.3     1  UNL1        0.0327
     14 C           8.1474   -3.1856    7.6119 C.2     1  UNL1        0.1398
     15 O           8.0466   -3.0920    8.8320 O.2     1  UNL1       -0.2970
     16 C           7.9786   -2.0328    6.6630 C.3     1  UNL1        0.0296
     17 C           6.5219   -1.9815    6.2162 C.3     1  UNL1       -0.0246
     18 C           6.2901   -0.9265    5.1740 C.2     1  UNL1       -0.0873
     19 C           5.1095   -0.7691    4.5620 C.2     1  UNL1       -0.0879
     20 C           3.9190   -1.6229    4.8905 C.3     1  UNL1       -0.0343
     21 C           2.6990   -1.1993    4.0997 C.3     1  UNL1       -0.0395
     22 C           1.4647   -2.0458    4.4350 C.3     1  UNL1        0.0456
     23 C           0.2988   -1.5109    3.6366 C.2     1  UNL1        0.3123
     24 O           0.4093   -0.5744    2.8462 O.2     1  UNL1       -0.2504
     25 O          -0.8802   -2.2008    3.9227 O.3     1  UNL1       -0.4258
     26 C          -1.9933   -1.8989    3.1081 C.ar    1  UNL1        0.1317
     27 C          -3.2702   -1.8511    3.6712 C.ar    1  UNL1       -0.0175
     28 C          -4.3980   -1.6053    2.8505 C.ar    1  UNL1       -0.0370
     29 C          -4.2441   -1.3403    1.4794 C.ar    1  UNL1        0.0339
     30 N          -5.3610   -0.9632    0.6748 N.am    1  UNL1       -0.2815
     31 C          -5.2843   -0.6322   -0.6758 C.2     1  UNL1        0.2483
     32 O          -4.2734   -0.6493   -1.3829 O.2     1  UNL1       -0.2699
     33 C          -6.5107   -0.1978   -1.3802 C.ar    1  UNL1        0.0370
     34 C          -6.6733   -0.6105   -2.7149 C.ar    1  UNL1       -0.0496
     35 C          -7.6720   -0.0534   -3.5116 C.ar    1  UNL1       -0.0610
     36 C          -8.5503    0.8762   -2.9616 C.ar    1  UNL1       -0.0617
     37 C          -8.3989    1.2831   -1.6326 C.ar    1  UNL1       -0.0610
     38 C          -7.3717    0.7583   -0.8399 C.ar    1  UNL1       -0.0496
     39 C          -2.9571   -1.4330    0.9486 C.ar    1  UNL1       -0.0370
     40 C          -1.8507   -1.7295    1.7385 C.ar    1  UNL1       -0.0175
     41 H          17.6827   -3.6843    9.2247 H       1  UNL1        0.0230
     42 H          16.0351   -4.1331    9.7076 H       1  UNL1        0.0230
     43 H          16.7032   -2.5619   10.1891 H       1  UNL1        0.0230
     44 H          16.1278   -3.4341    7.3088 H       1  UNL1        0.0263
     45 H          16.7980   -1.8712    7.7861 H       1  UNL1        0.0263
     46 H          14.7341   -1.4028    9.1357 H       1  UNL1        0.0265
     47 H          14.0667   -2.9610    8.6451 H       1  UNL1        0.0265
     48 H          14.1711   -2.2607    6.2544 H       1  UNL1        0.0266
     49 H          14.8449   -0.6953    6.7265 H       1  UNL1        0.0266
     50 H          12.7972   -0.2397    8.1028 H       1  UNL1        0.0293
     51 H          12.1731   -1.8211    7.6574 H       1  UNL1        0.0293
     52 H          12.7411   -0.7366    5.1229 H       1  UNL1        0.0637
     53 H          11.9349    1.3716    6.8320 H       1  UNL1        0.2102
     54 H          10.0469    0.1087    5.7427 H       1  UNL1        0.0594
     55 H          11.1087   -2.7689    5.8348 H       1  UNL1        0.0574
     56 H           8.6249   -2.0647    4.5624 H       1  UNL1        0.0375
     57 H           9.8266   -4.4655    5.2950 H       1  UNL1        0.0603
     58 H           7.1092   -4.1039    4.5555 H       1  UNL1        0.2098
     59 H           9.1428   -5.0622    7.4072 H       1  UNL1        0.0367
     60 H           7.4357   -5.0381    6.8402 H       1  UNL1        0.0367
     61 H           8.2616   -1.0925    7.1486 H       1  UNL1        0.0387
     62 H           5.8738   -1.8004    7.0815 H       1  UNL1        0.0314
     63 H           6.2067   -2.9525    5.8186 H       1  UNL1        0.0314
     64 H           7.1131   -0.2707    4.8935 H       1  UNL1        0.0569
     65 H           5.0088    0.0158    3.8130 H       1  UNL1        0.0569
     66 H           3.7000   -1.5397    5.9615 H       1  UNL1        0.0307
     67 H           4.1502   -2.6704    4.6648 H       1  UNL1        0.0307
     68 H           2.9182   -1.2732    3.0255 H       1  UNL1        0.0273
     69 H           2.4844   -0.1419    4.3046 H       1  UNL1        0.0273
     70 H           1.2380   -1.9700    5.5032 H       1  UNL1        0.0378
     71 H           1.6519   -3.0945    4.1764 H       1  UNL1        0.0378
     72 H          -3.3973   -1.9887    4.7421 H       1  UNL1        0.0655
     73 H          -5.3842   -1.6244    3.3087 H       1  UNL1        0.0637
     74 H          -6.2636   -0.9114    1.1315 H       1  UNL1        0.1551
     75 H          -5.9879   -1.3387   -3.1474 H       1  UNL1        0.0625
     76 H          -7.7429   -0.3211   -4.5634 H       1  UNL1        0.0618
     77 H          -9.3424    1.2978   -3.5764 H       1  UNL1        0.0618
     78 H          -9.0615    2.0448   -1.2291 H       1  UNL1        0.0618
     79 H          -7.2154    1.1485    0.1605 H       1  UNL1        0.0625
     80 H          -2.7462   -1.2752   -0.1003 H       1  UNL1        0.0637
     81 H          -0.8837   -1.7790    1.2482 H       1  UNL1        0.0655
@<TRIPOS>BOND
     1     1     2    1
     2     2     3    1
     3     3     4    1
     4     4     5    1
     5     6     8    1
     6     8     9    2
     7    10    11    1
     8    11    13    1
     9    13    14    1
    10    14    15    2
    11    14    16    1
    12    10    16    1
    13    16    17    1
    14    17    18    1
    15    18    19    2
    16    19    20    1
    17    20    21    1
    18    21    22    1
    19    22    23    1
    20    23    24    2
    21    23    25    1
    22    25    26    1
    23    26    27   ar
    24    27    28   ar
    25    28    29   ar
    26    29    30    1
    27    30    31   am
    28    31    32    2
    29    31    33    1
    30    33    34   ar
    31    34    35   ar
    32    35    36   ar
    33    36    37   ar
    34    37    38   ar
    35    33    38   ar
    36    29    39   ar
    37    39    40   ar
    38    26    40   ar
    39    11    12    1
    40     6     7    1
    41     6     5    1
    42    10     9    1
    43     1    41    1
    44     1    42    1
    45     1    43    1
    46     2    44    1
    47     2    45    1
    48     3    46    1
    49     3    47    1
    50     4    48    1
    51     4    49    1
    52     5    50    1
    53     5    51    1
    54     6    52    1
    55     7    53    1
    56     8    54    1
    57     9    55    1
    58    10    56    1
    59    11    57    1
    60    12    58    1
    61    13    59    1
    62    13    60    1
    63    16    61    1
    64    17    62    1
    65    17    63    1
    66    18    64    1
    67    19    65    1
    68    20    66    1
    69    20    67    1
    70    21    68    1
    71    21    69    1
    72    22    70    1
    73    22    71    1
    74    27    72    1
    75    28    73    1
    76    30    74    1
    77    34    75    1
    78    35    76    1
    79    36    77    1
    80    37    78    1
    81    38    79    1
    82    39    80    1
    83    40    81    1
