@<TRIPOS>MOLECULE
*****
 46 49 0 0 0
SMALL
GASTEIGER

@<TRIPOS>ATOM
      1 C           0.9241   -0.0752   -0.2133 C.3     1  UNL1       -0.0395
      2 C           2.4399   -0.0729   -0.1629 C.3     1  UNL1        0.0786
      3 N           2.8778   -0.6934    1.1214 N.am    1  UNL1       -0.2981
      4 C           2.5425   -0.2137    2.3987 C.2     1  UNL1        0.2998
      5 O           1.9396    0.8165    2.6343 O.2     1  UNL1       -0.2652
      6 C           2.9626   -1.1435    3.5834 C.2     1  UNL1        0.3032
      7 O           3.4071   -2.2375    3.3013 O.2     1  UNL1       -0.2648
      8 N           2.7101   -0.6517    4.8809 N.am    1  UNL1       -0.2772
      9 C           3.2588   -1.1975    6.0916 C.ar    1  UNL1        0.0420
     10 C           2.4650   -1.1913    7.2553 C.ar    1  UNL1       -0.0399
     11 C           2.9920   -1.5848    8.4992 C.ar    1  UNL1       -0.0600
     12 C           4.3100   -2.0182    8.5989 C.ar    1  UNL1       -0.0611
     13 C           5.1090   -2.0398    7.4588 C.ar    1  UNL1       -0.0518
     14 C           4.6016   -1.6389    6.2051 C.ar    1  UNL1        0.0099
     15 C           5.5302   -1.5616    5.0772 C.ar    1  UNL1        0.0211
     16 C           5.8164   -0.4575    4.2969 C.ar    1  UNL1       -0.0469
     17 C           6.5461   -0.8031    3.1283 C.ar    1  UNL1       -0.0541
     18 C           6.8592   -2.1436    3.0956 C.ar    1  UNL1       -0.0237
     19 S           6.2999   -2.9746    4.4837 S.2     1  UNL1       -0.0966
     20 C           3.1874   -0.7264   -1.3591 C.ar    1  UNL1        0.1283
     21 N           4.4465   -1.0668   -1.2038 N.ar    1  UNL1       -0.2306
     22 C           4.8219   -1.7201   -2.3299 C.ar    1  UNL1        0.0892
     23 C           5.9389   -2.5390   -2.4648 C.ar    1  UNL1       -0.0342
     24 C           6.2836   -3.0667   -3.6991 C.ar    1  UNL1       -0.0596
     25 C           5.5228   -2.7367   -4.8162 C.ar    1  UNL1       -0.0597
     26 C           4.3254   -1.9671   -4.6959 C.ar    1  UNL1       -0.0363
     27 C           3.9332   -1.5517   -3.3805 C.ar    1  UNL1        0.0663
     28 N           2.7951   -1.0816   -2.6789 N.ar    1  UNL1       -0.3403
     29 H           0.5140    0.4420    0.6655 H       1  UNL1        0.0252
     30 H           0.5233   -1.0924   -0.1854 H       1  UNL1        0.0252
     31 H           0.5450    0.4511   -1.0900 H       1  UNL1        0.0252
     32 H           2.7888    0.9663   -0.1103 H       1  UNL1        0.0576
     33 H           3.5016   -1.4976    1.0777 H       1  UNL1        0.1498
     34 H           2.0753    0.1351    4.9673 H       1  UNL1        0.1553
     35 H           1.4095   -0.9334    7.2106 H       1  UNL1        0.0636
     36 H           2.3778   -1.5477    9.3979 H       1  UNL1        0.0618
     37 H           4.7218   -2.3312    9.5565 H       1  UNL1        0.0618
     38 H           6.1537   -2.3316    7.5550 H       1  UNL1        0.0624
     39 H           5.4064    0.5250    4.4994 H       1  UNL1        0.0629
     40 H           6.7923   -0.1096    2.3355 H       1  UNL1        0.0623
     41 H           7.3803   -2.6815    2.3176 H       1  UNL1        0.0693
     42 H           6.4711   -2.7815   -1.5586 H       1  UNL1        0.0639
     43 H           7.1584   -3.7088   -3.7627 H       1  UNL1        0.0618
     44 H           5.8667   -3.1220   -5.7812 H       1  UNL1        0.0618
     45 H           3.7993   -1.7137   -5.6175 H       1  UNL1        0.0639
     46 H           1.8388   -1.2647   -2.9602 H       1  UNL1        0.1671
@<TRIPOS>BOND
     1     1     2    1
     2     2     3    1
     3     3     4   am
     4     4     5    2
     5     4     6    1
     6     6     7    2
     7     6     8   am
     8     8     9    1
     9     9    10   ar
    10    10    11   ar
    11    11    12   ar
    12    12    13   ar
    13    13    14   ar
    14     9    14   ar
    15    14    15    1
    16    15    16   ar
    17    16    17   ar
    18    17    18   ar
    19    18    19   ar
    20    15    19   ar
    21     2    20    1
    22    20    21   ar
    23    21    22   ar
    24    22    23   ar
    25    23    24   ar
    26    24    25   ar
    27    25    26   ar
    28    26    27   ar
    29    22    27   ar
    30    27    28   ar
    31    20    28   ar
    32     1    29    1
    33     1    30    1
    34     1    31    1
    35     2    32    1
    36     3    33    1
    37     8    34    1
    38    10    35    1
    39    11    36    1
    40    12    37    1
    41    13    38    1
    42    16    39    1
    43    17    40    1
    44    18    41    1
    45    23    42    1
    46    24    43    1
    47    25    44    1
    48    26    45    1
    49    28    46    1
