REMARK  11 active torsions:
REMARK  status: ('A' for Active; 'I' for Inactive)
REMARK    1  A    between atoms: C_2  and  C_3 
REMARK    2  A    between atoms: C_4  and  C_3 
REMARK    3  A    between atoms: C_4  and  N_13 
REMARK    4  A    between atoms: C_4  and  C_5 
REMARK       I    between atoms: C_5  and  N_7 
REMARK    5  A    between atoms: N_7  and  C_8 
REMARK    6  A    between atoms: C_8  and  C_9 
REMARK    7  A    between atoms: C_9  and  C_10 
REMARK       I    between atoms: N_13  and  C_14 
REMARK    8  A    between atoms: N_13  and  C_25 
REMARK    9  A    between atoms: C_14  and  C_16 
REMARK   10  A    between atoms: C_19  and  C_20 
REMARK       I    between atoms: C_20  and  N_21 
REMARK   11  A    between atoms: C_23  and  N_24 
ROOT
ATOM      1  N   UNL d   1       4.942  -2.820   0.138  0.00  0.00    -0.299 N 
ATOM      2  C   UNL d   1       3.999  -3.913   0.412  0.00  0.00     0.270 C 
ATOM      3  O   UNL d   1       4.405  -4.954   0.963  0.00  0.00    -0.266 OA
ENDROOT
BRANCH   1   4
ATOM      4  C   UNL d   1       4.509  -1.382   0.233  0.00  0.00     0.185 C 
BRANCH   4   5
ATOM      5  C   UNL d   1       3.043  -1.051   0.535  0.00  0.00     0.241 C 
ATOM      6  O   UNL d   1       2.458  -1.594   1.474  0.00  0.00    -0.271 OA
ATOM      7  N   UNL d   1       2.460  -0.001  -0.146  0.00  0.00    -0.359 N 
ATOM      8  H   UNL d   1       2.990   0.667  -0.689  0.00  0.00     0.162 HD
BRANCH   7   9
ATOM      9  C   UNL d   1       1.026   0.064  -0.102  0.00  0.00     0.123 C 
BRANCH   9  10
ATOM     10  C   UNL d   1       0.381   1.325  -0.610  0.00  0.00     0.023 C 
BRANCH  10  11
ATOM     11  C   UNL d   1      -1.161   1.232  -0.633  0.00  0.00    -0.021 C 
ATOM     12  C   UNL d   1      -1.746   0.844   0.727  0.00  0.00     0.009 C 
ATOM     13  C   UNL d   1      -1.722   2.575  -1.083  0.00  0.00     0.009 C 
ENDBRANCH  10  11
ENDBRANCH   9  10
ENDBRANCH   7   9
ENDBRANCH   4   5
BRANCH   4  14
ATOM     14  C   UNL d   1       5.095  -0.558   1.395  0.00  0.00     0.035 C 
BRANCH  14  15
ATOM     15  C   UNL d   1       5.535  -1.377   2.617  0.00  0.00    -0.002 C 
ATOM     16  C   UNL d   1       6.033  -0.428   3.670  0.00  0.00     0.005 C 
ENDBRANCH  14  15
ENDBRANCH   4  14
ENDBRANCH   1   4
BRANCH   1  17
ATOM     17  C   UNL d   1       6.422  -3.084   0.067  0.00  0.00     0.044 C 
ATOM     18  C   UNL d   1       7.401  -2.178   0.541  0.00  0.00     0.031 C 
ATOM     19  C   UNL d   1       8.725  -2.516   0.830  0.00  0.00     0.009 C 
ATOM     20  C   UNL d   1       9.245  -3.672   0.307  0.00  0.00    -0.061 C 
ATOM     21  C   UNL d   1      10.719  -3.909   0.404  0.00  0.00     0.048 C 
ATOM     22  C   UNL d   1       8.374  -4.497  -0.416  0.00  0.00     0.015 C 
ATOM     23  C   UNL d   1       6.971  -4.236  -0.513  0.00  0.00    -0.035 C 
ATOM     24  C   UNL d   1       6.141  -5.112  -1.405  0.00  0.00     0.050 C 
ENDBRANCH   1  17
BRANCH   2  25
ATOM     25  C   UNL d   1       2.563  -3.808   0.065  0.00  0.00     0.120 C 
ATOM     26  S   UNL d   1       1.366  -4.434   1.151  0.00  0.00     0.020 SA
ATOM     27  N   UNL d   1       0.032  -3.713   0.442  0.00  0.00    -0.203 NA
ATOM     28  C   UNL d   1       0.416  -3.131  -0.702  0.00  0.00     0.160 C 
ATOM     29  C   UNL d   1       1.863  -3.188  -0.960  0.00  0.00     0.085 C 
BRANCH  28  30
ATOM     30  C   UNL d   1      -0.543  -2.351  -1.542  0.00  0.00     0.271 C 
ATOM     31  N   UNL d   1      -1.824  -2.156  -1.083  0.00  0.00    -0.365 N 
ATOM     32  H   UNL d   1      -2.133  -2.486  -0.180  0.00  0.00     0.159 HD
ATOM     33  H   UNL d   1      -2.384  -1.476  -1.584  0.00  0.00     0.159 HD
ATOM     34  O   UNL d   1      -0.206  -1.751  -2.562  0.00  0.00    -0.266 OA
ENDBRANCH  28  30
BRANCH  29  35
ATOM     35  N   UNL d   1       2.469  -2.526  -1.982  0.00  0.00    -0.396 N 
ATOM     36  H   UNL d   1       1.958  -1.726  -2.372  0.00  0.00     0.156 HD
ATOM     37  H   UNL d   1       3.470  -2.363  -1.970  0.00  0.00     0.156 HD
ENDBRANCH  29  35
ENDBRANCH   2  25
TORSDOF 11
