REMARK  4 active torsions:
REMARK  status: ('A' for Active; 'I' for Inactive)
REMARK    1  A    between atoms: C_4  and  N_5 
REMARK       I    between atoms: N_5  and  C_6 
REMARK    2  A    between atoms: C_6  and  C_8 
REMARK    3  A    between atoms: C_11  and  C_12 
REMARK    4  A    between atoms: C_12  and  N_13 
ROOT
ATOM      1  N   UNL d   1       4.561   0.223   0.002  0.00  0.00    -0.323 N 
ATOM      2  C   UNL d   1       5.351  -0.923  -0.036  0.00  0.00     0.256 C 
ATOM      3  O   UNL d   1       4.958  -2.092  -0.081  0.00  0.00    -0.267 OA
ATOM      4  H   UNL d   1       5.018   1.127  -0.009  0.00  0.00     0.169 HD
ENDROOT
BRANCH   2   5
ATOM      5  C   UNL d   1       6.824  -0.788  -0.016  0.00  0.00     0.032 A 
ATOM      6  C   UNL d   1       7.575  -1.706  -0.767  0.00  0.00     0.018 A 
ATOM      7  C   UNL d   1       8.964  -1.792  -0.618  0.00  0.00     0.015 A 
ATOM      8  C   UNL d   1       9.644  -0.906   0.228  0.00  0.00     0.001 A 
ATOM      9  C   UNL d   1       8.872  -0.005   0.992  0.00  0.00     0.015 A 
ATOM     10  C   UNL d   1       7.473   0.055   0.878  0.00  0.00     0.018 A 
BRANCH   8  11
ATOM     11  C   UNL d   1      11.148  -0.883   0.282  0.00  0.00     0.104 C 
ATOM     12  S   UNL d   1      12.076   0.176   1.193  0.00  0.00    -0.060 SA
BRANCH  11  13
ATOM     13  N   UNL d   1      11.848  -1.758  -0.514  0.00  0.00    -0.390 N 
ATOM     14  H   UNL d   1      11.450  -2.433  -1.151  0.00  0.00     0.157 HD
ATOM     15  H   UNL d   1      12.860  -1.692  -0.513  0.00  0.00     0.157 HD
ENDBRANCH  11  13
ENDBRANCH   8  11
ENDBRANCH   2   5
BRANCH   1  16
ATOM     16  C   UNL d   1       3.133   0.222   0.000  0.00  0.00     0.035 A 
ATOM     17  C   UNL d   1       2.398  -0.968   0.001  0.00  0.00     0.037 A 
ATOM     18  C   UNL d   1       0.996  -1.006   0.002  0.00  0.00    -0.043 A 
ATOM     19  C   UNL d   1       0.334  -2.355  -0.006  0.00  0.00     0.049 C 
ATOM     20  C   UNL d   1       0.300   0.201   0.005  0.00  0.00     0.017 A 
ATOM     21  C   UNL d   1       1.005   1.410   0.004  0.00  0.00     0.022 A 
ATOM     22 BR   UNL d   1      -1.597   0.249   0.005  0.00  0.00    -0.051 Br
ATOM     23  C   UNL d   1       2.414   1.423  -0.001  0.00  0.00     0.031 A 
ENDBRANCH   1  16
TORSDOF 4
