REMARK  10 active torsions:
REMARK  status: ('A' for Active; 'I' for Inactive)
REMARK    1  A    between atoms: C_2  and  C_3 
REMARK    2  A    between atoms: C_3  and  C_4 
REMARK    3  A    between atoms: C_5  and  C_4 
REMARK    4  A    between atoms: C_5  and  C_10 
REMARK    5  A    between atoms: C_5  and  N_6 
REMARK       I    between atoms: N_6  and  C_7 
REMARK       I    between atoms: C_7  and  N_8 
REMARK       I    between atoms: C_10  and  N_12 
REMARK    6  A    between atoms: N_12  and  C_13 
REMARK    7  A    between atoms: C_13  and  C_14 
REMARK    8  A    between atoms: C_14  and  N_15 
REMARK    9  A    between atoms: N_15  and  C_16 
REMARK   10  A    between atoms: C_19  and  N_20 
ROOT
ATOM      1  C   UNL d   1       6.825  -2.688   0.812  0.00  0.00     0.240 C 
ATOM      2  O   UNL d   1       7.579  -1.891   0.241  0.00  0.00    -0.271 OA
ATOM      3  N   UNL d   1       7.418  -3.756   1.449  0.00  0.00    -0.358 N 
ATOM      4  H   UNL d   1       6.887  -4.577   1.705  0.00  0.00     0.162 HD
ENDROOT
BRANCH   3   5
ATOM      5  C   UNL d   1       8.849  -3.908   1.251  0.00  0.00     0.142 C 
BRANCH   5   6
ATOM      6  C   UNL d   1       9.360  -5.300   1.583  0.00  0.00     0.139 C 
BRANCH   6   7
ATOM      7  N   UNL d   1      10.805  -5.300   1.668  0.00  0.00    -0.388 N 
ATOM      8  H   UNL d   1      11.319  -4.473   1.375  0.00  0.00     0.159 HD
BRANCH   7   9
ATOM      9  C   UNL d   1      11.535  -6.452   1.864  0.00  0.00     0.028 A 
ATOM     10  C   UNL d   1      12.701  -6.373   2.634  0.00  0.00     0.031 A 
ATOM     11  C   UNL d   1      13.505  -7.494   2.845  0.00  0.00     0.038 A 
ATOM     12  C   UNL d   1      13.100  -8.732   2.338  0.00  0.00     0.103 A 
ATOM     13  C   UNL d   1      11.930  -8.837   1.579  0.00  0.00     0.038 A 
ATOM     14  C   UNL d   1      11.150  -7.698   1.358  0.00  0.00     0.031 A 
BRANCH  12  15
ATOM     15  N   UNL d   1      13.873  -9.937   2.656  0.00  0.00    -0.116 N 
ATOM     16  O   UNL d   1      14.884  -9.804   3.360  0.00  0.00    -0.532 OA
ATOM     17  O   UNL d   1      13.456 -11.020   2.222  0.00  0.00    -0.532 OA
ENDBRANCH  12  15
ENDBRANCH   7   9
ENDBRANCH   6   7
ENDBRANCH   5   6
ENDBRANCH   3   5
BRANCH   1  18
ATOM     18  C   UNL d   1       5.266  -2.581   0.751  0.00  0.00     0.178 C 
BRANCH  18  19
ATOM     19  N   UNL d   1       4.710  -1.259   0.351  0.00  0.00    -0.330 N 
ATOM     20  C   UNL d   1       5.195  -0.013   0.166  0.00  0.00     0.314 C 
ATOM     21  N   UNL d   1       6.489   0.253   0.381  0.00  0.00    -0.352 N 
ATOM     22  O   UNL d   1       4.438   0.886  -0.183  0.00  0.00    -0.248 OA
ATOM     23  H   UNL d   1       7.175  -0.492   0.364  0.00  0.00     0.160 HD
ATOM     24  H   UNL d   1       6.849   1.122   0.014  0.00  0.00     0.160 HD
ATOM     25  H   UNL d   1       3.702  -1.226   0.259  0.00  0.00     0.165 HD
ENDBRANCH  18  19
BRANCH  18  26
ATOM     26  C   UNL d   1       4.655  -3.660  -0.209  0.00  0.00     0.035 C 
BRANCH  26  27
ATOM     27  C   UNL d   1       5.395  -4.987  -0.128  0.00  0.00     0.002 C 
BRANCH  27  28
ATOM     28  C   UNL d   1       5.043  -6.067  -1.120  0.00  0.00    -0.004 C 
ATOM     29  C   UNL d   1       5.996  -7.238  -0.879  0.00  0.00     0.005 C 
ENDBRANCH  27  28
ENDBRANCH  26  27
ENDBRANCH  18  26
ENDBRANCH   1  18
TORSDOF 10
