@<TRIPOS>MOLECULE
*****
 64 67 0 0 0
SMALL
GASTEIGER

@<TRIPOS>ATOM
      1 C           1.0102    0.1136   -0.0487 C.3     1  UNL1        0.0788
      2 O           2.4123    0.3916    0.0533 O.3     1  UNL1       -0.4951
      3 C           3.1692   -0.4181    0.8516 C.ar    1  UNL1        0.1203
      4 C           4.3754    0.0510    1.3762 C.ar    1  UNL1       -0.0167
      5 C           5.2487   -0.7955    2.1358 C.ar    1  UNL1       -0.0197
      6 C           4.9743   -2.1514    2.2937 C.ar    1  UNL1        0.1000
      7 N           5.6112   -3.0333    3.2343 N.pl3   1  UNL1       -0.2450
      8 C           5.1708   -4.2883    3.7110 C.2     1  UNL1        0.3842
      9 N           4.0801   -4.9628    3.4663 N.am    1  UNL1        0.0006
     10 C           2.9567   -4.2391    3.1660 C.2     1  UNL1        0.3405
     11 O           2.6188   -3.2503    3.7778 O.2     1  UNL1       -0.2484
     12 C           1.9269   -4.8832    2.3067 C.ar    1  UNL1        0.0562
     13 C           1.6450   -4.7290    0.9365 C.ar    1  UNL1       -0.0463
     14 C           0.3616   -5.0303    0.4499 C.ar    1  UNL1       -0.0399
     15 C          -0.6077   -5.6222    1.2684 C.ar    1  UNL1        0.0292
     16 N          -1.8388   -6.0509    0.8089 N.pl3   1  UNL1       -0.3360
     17 C          -2.2090   -6.0560   -0.6053 C.3     1  UNL1        0.0004
     18 C          -2.7283   -6.8345    1.6677 C.3     1  UNL1        0.0004
     19 C          -0.2676   -5.7366    2.6251 C.ar    1  UNL1       -0.0399
     20 C           0.9622   -5.3900    3.1357 C.ar    1  UNL1       -0.0463
     21 N           6.0285   -4.9461    4.6072 N.pl3   1  UNL1       -0.2767
     22 C           5.5539   -6.1964    5.2604 C.3     1  UNL1        0.0684
     23 C           6.5164   -6.7835    6.2820 C.3     1  UNL1        0.0059
     24 C           6.1788   -8.1305    6.8822 C.2     1  UNL1        0.0106
     25 C           7.0555   -8.7383    7.6843 C.ar    1  UNL1        0.0510
     26 C           8.3493   -8.3347    8.1011 C.ar    1  UNL1       -0.0482
     27 C           9.1172   -9.2285    8.7296 C.ar    1  UNL1       -0.0608
     28 C           8.5886  -10.5214    9.1343 C.ar    1  UNL1       -0.0555
     29 C           7.3353  -10.9426    8.8562 C.ar    1  UNL1        0.0098
     30 C           6.4794  -10.0346    8.0578 C.ar    1  UNL1        0.2086
     31 N           5.2965  -10.1682    7.5888 N.2     1  UNL1       -0.2369
     32 C           4.9666   -9.0073    6.6915 C.3     1  UNL1        0.1661
     33 C           3.9654   -2.5780    1.4523 C.ar    1  UNL1       -0.0197
     34 C           2.9272   -1.7508    0.9985 C.ar    1  UNL1       -0.0167
     35 H           0.6135    0.6672   -0.9078 H       1  UNL1        0.0660
     36 H           0.5193    0.4835    0.8540 H       1  UNL1        0.0660
     37 H           0.7365   -0.9341   -0.2235 H       1  UNL1        0.0660
     38 H           4.6341    1.0920    1.2080 H       1  UNL1        0.0655
     39 H           6.1623   -0.3672    2.5323 H       1  UNL1        0.0653
     40 H           6.3350   -2.5709    3.7650 H       1  UNL1        0.2646
     41 H           2.3275   -4.3088    0.2006 H       1  UNL1        0.0626
     42 H           0.1412   -4.7401   -0.5762 H       1  UNL1        0.0636
     43 H          -1.5189   -5.5393   -1.2742 H       1  UNL1        0.0428
     44 H          -3.1801   -5.5645   -0.7194 H       1  UNL1        0.0428
     45 H          -2.2967   -7.0837   -0.9766 H       1  UNL1        0.0428
     46 H          -2.4319   -6.9183    2.7133 H       1  UNL1        0.0428
     47 H          -2.8049   -7.8647    1.3071 H       1  UNL1        0.0428
     48 H          -3.7176   -6.3726    1.6784 H       1  UNL1        0.0428
     49 H          -0.9622   -6.0484    3.3872 H       1  UNL1        0.0636
     50 H           1.1433   -5.4173    4.2048 H       1  UNL1        0.0626
     51 H           6.7348   -4.4143    5.1038 H       1  UNL1        0.2577
     52 H           5.4166   -6.9461    4.4752 H       1  UNL1        0.0658
     53 H           4.5907   -6.0474    5.7682 H       1  UNL1        0.0658
     54 H           6.6334   -6.0796    7.1178 H       1  UNL1        0.0343
     55 H           7.5030   -6.8706    5.8065 H       1  UNL1        0.0343
     56 H           8.7072   -7.3429    7.8505 H       1  UNL1        0.0626
     57 H          10.1526   -8.9796    8.9451 H       1  UNL1        0.0618
     58 H           9.2755  -11.1324    9.7180 H       1  UNL1        0.0620
     59 H           6.9964  -11.9178    9.1872 H       1  UNL1        0.0683
     60 H           4.7031  -10.9667    7.8170 H       1  UNL1        0.4459
     61 H           4.0335   -8.5488    7.0267 H       1  UNL1        0.1077
     62 H           4.8750   -9.3939    5.6702 H       1  UNL1        0.1077
     63 H           3.9254   -3.6280    1.2215 H       1  UNL1        0.0653
     64 H           1.9793   -2.1839    0.7109 H       1  UNL1        0.0655
@<TRIPOS>UNITY_ATOM_ATTR
31 1
charge 1
@<TRIPOS>BOND
     1     1     2    1
     2     2     3    1
     3     3     4   ar
     4     4     5   ar
     5     5     6   ar
     6     6     7    1
     7     7     8    1
     8     8     9    2
     9     9    10    1
    10    10    11    2
    11    10    12    1
    12    12    13   ar
    13    13    14   ar
    14    14    15   ar
    15    15    16    1
    16    16    17    1
    17    16    18    1
    18    15    19   ar
    19    19    20   ar
    20    12    20   ar
    21     8    21    1
    22    21    22    1
    23    22    23    1
    24    23    24    1
    25    24    25    2
    26    25    26   ar
    27    26    27   ar
    28    27    28   ar
    29    28    29   ar
    30    29    30   ar
    31    25    30   ar
    32    30    31    2
    33    31    32    1
    34    24    32    1
    35     6    33   ar
    36    33    34   ar
    37     3    34   ar
    38     1    35    1
    39     1    36    1
    40     1    37    1
    41     4    38    1
    42     5    39    1
    43     7    40    1
    44    13    41    1
    45    14    42    1
    46    17    43    1
    47    17    44    1
    48    17    45    1
    49    18    46    1
    50    18    47    1
    51    18    48    1
    52    19    49    1
    53    20    50    1
    54    21    51    1
    55    22    52    1
    56    22    53    1
    57    23    54    1
    58    23    55    1
    59    26    56    1
    60    27    57    1
    61    28    58    1
    62    29    59    1
    63    31    60    1
    64    32    61    1
    65    32    62    1
    66    33    63    1
    67    34    64    1
