@<TRIPOS>MOLECULE
*****
 41 42 0 0 0
SMALL
GASTEIGER

@<TRIPOS>ATOM
      1 C           1.0761   -0.0408   -0.0204 C.3     1  UNL1        0.0833
      2 O           2.5194   -0.0347   -0.0129 O.3     1  UNL1       -0.4535
      3 C           3.0545    1.2212    0.0529 C.2     1  UNL1        0.4044
      4 O           2.3530    2.2319    0.0683 O.2     1  UNL1       -0.2261
      5 N           4.4440    1.2061    0.0067 N.am    1  UNL1       -0.2484
      6 C           5.2184    2.4009    0.1151 C.ar    1  UNL1        0.0734
      7 C           6.3729    2.6502   -0.6861 C.ar    1  UNL1       -0.0163
      8 C           7.0619    3.8970   -0.6041 C.ar    1  UNL1        0.0357
      9 N           8.1842    4.2252   -1.4455 N.am    1  UNL1       -0.2777
     10 C           8.8981    5.4430   -1.4124 C.2     1  UNL1        0.3031
     11 O           8.7012    6.4107   -0.6821 O.2     1  UNL1       -0.2648
     12 C          10.0830    5.6051   -2.4023 C.2     1  UNL1        0.2996
     13 O          10.3703    4.7068   -3.1791 O.2     1  UNL1       -0.2652
     14 N          10.7425    6.8284   -2.2995 N.am    1  UNL1       -0.3035
     15 C          11.8784    7.1836   -3.1259 C.3     1  UNL1        0.0373
     16 C          12.4165    8.5705   -2.8441 C.ar    1  UNL1       -0.0289
     17 C          13.6495    8.7581   -2.1950 C.ar    1  UNL1       -0.0570
     18 C          14.1423   10.0453   -1.9435 C.ar    1  UNL1       -0.0601
     19 C          13.4059   11.1641   -2.3298 C.ar    1  UNL1       -0.0434
     20 C          12.1859   10.9903   -2.9784 C.ar    1  UNL1        0.0413
     21 CL         11.2662   12.3692   -3.4439 Cl      1  UNL1       -0.0835
     22 C          11.6967    9.7079   -3.2453 C.ar    1  UNL1       -0.0387
     23 C           6.5948    4.8276    0.3318 C.ar    1  UNL1       -0.0376
     24 C           5.5097    4.5665    1.1607 C.ar    1  UNL1       -0.0229
     25 C           4.8329    3.3696    1.0511 C.ar    1  UNL1        0.1447
     26 F           3.8520    3.1315    1.9348 F       1  UNL1       -0.2035
     27 H           0.7208   -1.0743   -0.0909 H       1  UNL1        0.0661
     28 H           0.6847    0.5059   -0.8871 H       1  UNL1        0.0661
     29 H           0.6759    0.3894    0.9057 H       1  UNL1        0.0661
     30 H           4.8856    0.3292   -0.2319 H       1  UNL1        0.1583
     31 H           6.6857    1.8998   -1.4088 H       1  UNL1        0.0656
     32 H           8.4948    3.5425   -2.1325 H       1  UNL1        0.1553
     33 H          10.3999    7.4864   -1.6014 H       1  UNL1        0.1495
     34 H          11.5748    7.1172   -4.1769 H       1  UNL1        0.0512
     35 H          12.6583    6.4295   -2.9718 H       1  UNL1        0.0512
     36 H          14.2452    7.9023   -1.8821 H       1  UNL1        0.0621
     37 H          15.0991   10.1771   -1.4419 H       1  UNL1        0.0618
     38 H          13.7851   12.1621   -2.1230 H       1  UNL1        0.0632
     39 H          10.7519    9.5940   -3.7714 H       1  UNL1        0.0635
     40 H           7.0509    5.7988    0.4673 H       1  UNL1        0.0637
     41 H           5.1950    5.2998    1.8947 H       1  UNL1        0.0647
@<TRIPOS>BOND
     1     1     2    1
     2     2     3    1
     3     3     4    2
     4     3     5   am
     5     5     6    1
     6     6     7   ar
     7     7     8   ar
     8     8     9    1
     9     9    10   am
    10    10    11    2
    11    10    12    1
    12    12    13    2
    13    12    14   am
    14    14    15    1
    15    15    16    1
    16    16    17   ar
    17    17    18   ar
    18    18    19   ar
    19    19    20   ar
    20    20    21    1
    21    20    22   ar
    22    16    22   ar
    23     8    23   ar
    24    23    24   ar
    25    24    25   ar
    26     6    25   ar
    27    25    26    1
    28     1    27    1
    29     1    28    1
    30     1    29    1
    31     5    30    1
    32     7    31    1
    33     9    32    1
    34    14    33    1
    35    15    34    1
    36    15    35    1
    37    17    36    1
    38    18    37    1
    39    19    38    1
    40    22    39    1
    41    23    40    1
    42    24    41    1
