REMARK  3 active torsions:
REMARK  status: ('A' for Active; 'I' for Inactive)
REMARK    1  A    between atoms: C_7  and  C_8 
REMARK       I    between atoms: C_8  and  N_10 
REMARK    2  A    between atoms: N_10  and  C_11 
REMARK    3  A    between atoms: C_17  and  O_18 
ROOT
ATOM      1  C   UNL d   1       1.022   2.581  -0.010  0.00  0.00     0.256 C 
ATOM      2  O   UNL d   1       0.282   3.569  -0.096  0.00  0.00    -0.267 OA
ATOM      3  N   UNL d   1       2.406   2.668  -0.025  0.00  0.00    -0.320 N 
ATOM      4  H   UNL d   1       2.974   1.877  -0.234  0.00  0.00     0.169 HD
ENDROOT
BRANCH   3   5
ATOM      5  C   UNL d   1       3.143   3.861   0.007  0.00  0.00     0.070 A 
ATOM      6  C   UNL d   1       4.278   3.956  -0.809  0.00  0.00     0.056 A 
ATOM      7  C   UNL d   1       5.000   5.146  -0.832  0.00  0.00     0.036 A 
ATOM      8 CL   UNL d   1       6.351   5.313  -1.886  0.00  0.00    -0.084 Cl
ATOM      9  C   UNL d   1       4.622   6.214  -0.019  0.00  0.00     0.026 A 
ATOM     10  C   UNL d   1       3.530   6.089   0.845  0.00  0.00     0.040 A 
ATOM     11  C   UNL d   1       2.810   4.903   0.870  0.00  0.00     0.092 A 
BRANCH  11  12
ATOM     12  O   UNL d   1       1.865   4.694   1.835  0.00  0.00    -0.358 OA
ATOM     13  H   UNL d   1       1.571   5.544   2.191  0.00  0.00     0.217 HD
ENDBRANCH  11  12
ENDBRANCH   3   5
BRANCH   1  14
ATOM     14  C   UNL d   1       0.366   1.215   0.006  0.00  0.00     0.038 A 
ATOM     15  C   UNL d   1      -1.049   1.212   0.004  0.00  0.00     0.017 A 
ATOM     16  C   UNL d   1      -1.785   0.023  -0.004  0.00  0.00     0.001 A 
ATOM     17  C   UNL d   1      -1.124  -1.196   0.001  0.00  0.00     0.001 A 
ATOM     18  C   UNL d   1       0.267  -1.222   0.008  0.00  0.00     0.007 A 
ATOM     19  C   UNL d   1       1.027  -0.034   0.009  0.00  0.00    -0.046 A 
ATOM     20  C   UNL d   1       2.513  -0.204  -0.005  0.00  0.00     0.049 C 
ENDBRANCH   1  14
TORSDOF 3
