REMARK  5 active torsions:
REMARK  status: ('A' for Active; 'I' for Inactive)
REMARK    1  A    between atoms: C_7  and  N_8 
REMARK    2  A    between atoms: C_16  and  C_17 
REMARK       I    between atoms: C_17  and  N_19 
REMARK    3  A    between atoms: N_19  and  C_20 
REMARK    4  A    between atoms: C_21  and  C_20 
REMARK    5  A    between atoms: C_26  and  N_27 
ROOT
ATOM      1  C   UNL d   1      14.516 -11.069   7.384  0.00  0.00     0.046 C 
ATOM      2  C   UNL d   1      13.926 -12.277   6.648  0.00  0.00     0.058 C 
ATOM      3  C   UNL d   1      12.841 -12.906   7.540  0.00  0.00     0.046 C 
ATOM      4  C   UNL d   1      13.310 -11.770   5.365  0.00  0.00     0.077 C 
ATOM      5  C   UNL d   1      12.923 -12.852   4.396  0.00  0.00    -0.028 A 
ATOM      6  C   UNL d   1      13.485 -14.150   4.521  0.00  0.00     0.017 A 
ATOM      7  C   UNL d   1      13.086 -15.189   3.645  0.00  0.00     0.113 A 
ATOM      8  N   UNL d   1      12.202 -14.861   2.660  0.00  0.00    -0.336 N 
ATOM      9  C   UNL d   1      11.666 -13.591   2.523  0.00  0.00     0.089 A 
ATOM     10  S   UNL d   1      10.504 -13.066   1.344  0.00  0.00    -0.064 SA
ATOM     11  C   UNL d   1      10.458 -11.440   1.946  0.00  0.00     0.101 A 
ATOM     12  C   UNL d   1      11.314 -11.338   3.029  0.00  0.00     0.062 A 
ATOM     13  C   UNL d   1      12.004 -12.555   3.369  0.00  0.00     0.033 A 
ATOM     14  C   UNL d   1      14.473 -14.376   5.658  0.00  0.00     0.212 C 
ATOM     15  O   UNL d   1      14.966 -13.183   6.280  0.00  0.00    -0.376 OA
ATOM     16  H   UNL d   1      11.890 -15.608   2.047  0.00  0.00     0.168 HD
ENDROOT
BRANCH  11  17
ATOM     17  C   UNL d   1       9.681 -10.290   1.421  0.00  0.00     0.261 C 
ATOM     18  O   UNL d   1       9.740  -9.174   1.968  0.00  0.00    -0.267 OA
ATOM     19  N   UNL d   1       8.888 -10.420   0.308  0.00  0.00    -0.354 N 
ATOM     20  H   UNL d   1       8.660 -11.337  -0.049  0.00  0.00     0.162 HD
BRANCH  19  21
ATOM     21  C   UNL d   1       8.055  -9.302  -0.173  0.00  0.00     0.155 C 
BRANCH  21  22
ATOM     22  C   UNL d   1       7.138  -9.680  -1.354  0.00  0.00     0.139 C 
ATOM     23  C   UNL d   1       7.717  -9.357  -2.723  0.00  0.00     0.035 C 
ATOM     24  C   UNL d   1       8.484 -10.606  -3.063  0.00  0.00     0.029 C 
ATOM     25  C   UNL d   1       7.648 -11.696  -2.425  0.00  0.00     0.168 C 
ATOM     26  O   UNL d   1       6.926 -11.109  -1.333  0.00  0.00    -0.384 OA
ENDBRANCH  21  22
ENDBRANCH  19  21
ENDBRANCH  11  17
BRANCH  12  27
ATOM     27  N   UNL d   1      11.467 -10.169   3.692  0.00  0.00    -0.397 N 
ATOM     28  H   UNL d   1      10.954  -9.326   3.401  0.00  0.00     0.156 HD
ATOM     29  H   UNL d   1      12.182  -9.934   4.367  0.00  0.00     0.156 HD
ENDBRANCH  12  27
BRANCH   7  30
ATOM     30  N   UNL d   1      13.431 -16.524   3.794  0.00  0.00    -0.367 N 
ATOM     31  C   UNL d   1      13.396 -17.226   5.095  0.00  0.00     0.124 C 
ATOM     32  C   UNL d   1      14.754 -17.908   5.229  0.00  0.00     0.021 C 
ATOM     33  C   UNL d   1      15.036 -18.339   3.803  0.00  0.00     0.021 C 
ATOM     34  C   UNL d   1      14.404 -17.232   2.925  0.00  0.00     0.124 C 
ENDBRANCH   7  30
TORSDOF 5
