REMARK  5 active torsions:
REMARK  status: ('A' for Active; 'I' for Inactive)
REMARK    1  A    between atoms: C_2  and  O_3 
REMARK    2  A    between atoms: O_3  and  C_4 
REMARK    3  A    between atoms: C_7  and  C_8 
REMARK       I    between atoms: C_8  and  N_10 
REMARK    4  A    between atoms: N_10  and  C_11 
REMARK    5  A    between atoms: C_17  and  O_18 
ROOT
ATOM      1  C   UNL d   1       8.567  -1.898  -1.605  0.00  0.00     0.256 C 
ATOM      2  O   UNL d   1       8.910  -2.145  -2.767  0.00  0.00    -0.267 OA
ATOM      3  N   UNL d   1       9.430  -1.911  -0.516  0.00  0.00    -0.321 N 
ATOM      4  H   UNL d   1       9.070  -1.956   0.423  0.00  0.00     0.169 HD
ENDROOT
BRANCH   1   5
ATOM      5  C   UNL d   1       7.112  -1.629  -1.358  0.00  0.00     0.032 A 
ATOM      6  C   UNL d   1       6.261  -1.548  -2.474  0.00  0.00     0.020 A 
ATOM      7  C   UNL d   1       4.910  -1.207  -2.331  0.00  0.00     0.038 A 
ATOM      8  C   UNL d   1       4.369  -1.000  -1.063  0.00  0.00     0.068 A 
ATOM      9  C   UNL d   1       5.195  -1.123   0.054  0.00  0.00     0.038 A 
ATOM     10  C   UNL d   1       6.559  -1.426  -0.089  0.00  0.00     0.020 A 
BRANCH   8  11
ATOM     11  O   UNL d   1       3.018  -0.792  -1.012  0.00  0.00    -0.352 OA
BRANCH  11  12
ATOM     12  C   UNL d   1       2.562   0.106   0.003  0.00  0.00     0.171 C 
ATOM     13  C   UNL d   1       1.042   0.100   0.009  0.00  0.00     0.034 C 
ENDBRANCH  11  12
ENDBRANCH   8  11
ENDBRANCH   1   5
BRANCH   3  14
ATOM     14  C   UNL d   1      10.839  -1.985  -0.641  0.00  0.00     0.068 A 
ATOM     15  C   UNL d   1      11.563  -2.762   0.270  0.00  0.00     0.033 A 
ATOM     16  C   UNL d   1      12.962  -2.826   0.194  0.00  0.00     0.009 A 
ATOM     17  C   UNL d   1      13.650  -2.154  -0.824  0.00  0.00    -0.059 A 
ATOM     18  C   UNL d   1      15.132  -2.319  -0.993  0.00  0.00     0.048 C 
ATOM     19  C   UNL d   1      12.930  -1.345  -1.711  0.00  0.00     0.045 A 
ATOM     20  C   UNL d   1      11.541  -1.247  -1.602  0.00  0.00     0.092 A 
BRANCH  20  21
ATOM     21  O   UNL d   1      10.882  -0.319  -2.363  0.00  0.00    -0.358 OA
ATOM     22  H   UNL d   1      11.378  -0.182  -3.184  0.00  0.00     0.217 HD
ENDBRANCH  20  21
ENDBRANCH   3  14
TORSDOF 5
