REMARK  8 active torsions:
REMARK  status: ('A' for Active; 'I' for Inactive)
REMARK    1  A    between atoms: C_2  and  C_3 
REMARK    2  A    between atoms: C_3  and  C_4 
REMARK    3  A    between atoms: C_4  and  O_5 
REMARK    4  A    between atoms: O_5  and  C_6 
REMARK    5  A    between atoms: C_6  and  C_8 
REMARK    6  A    between atoms: N_14  and  C_15 
REMARK    7  A    between atoms: C_15  and  N_17 
REMARK       I    between atoms: N_17  and  C_18 
REMARK    8  A    between atoms: C_18  and  C_20 
ROOT
ATOM      1  C   UNL d   1       6.930   3.912  -1.729  0.00  0.00     0.041 A 
ATOM      2  C   UNL d   1       6.418   5.185  -1.409  0.00  0.00     0.020 A 
ATOM      3  C   UNL d   1       7.043   6.341  -1.918  0.00  0.00     0.032 A 
ATOM      4  C   UNL d   1       8.154   6.197  -2.746  0.00  0.00     0.051 A 
ATOM      5  N   UNL d   1       8.904   7.217  -3.320  0.00  0.00    -0.334 N 
ATOM      6  C   UNL d   1       9.972   6.856  -4.116  0.00  0.00     0.174 A 
ATOM      7  N   UNL d   1      10.830   7.567  -4.788  0.00  0.00    -0.195 NA
ATOM      8  S   UNL d   1      10.072   5.064  -4.144  0.00  0.00    -0.050 SA
ATOM      9  C   UNL d   1       8.638   4.930  -3.075  0.00  0.00     0.036 A 
ATOM     10  C   UNL d   1       8.046   3.789  -2.574  0.00  0.00     0.038 A 
ATOM     11  H   UNL d   1       8.680   8.192  -3.178  0.00  0.00     0.168 HD
ENDROOT
BRANCH   7  12
ATOM     12  C   UNL d   1      10.760   8.958  -4.778  0.00  0.00     0.203 C 
ATOM     13  S   UNL d   1       9.600   9.893  -3.948  0.00  0.00    -0.038 SA
BRANCH  12  14
ATOM     14  N   UNL d   1      11.757   9.568  -5.555  0.00  0.00    -0.296 N 
ATOM     15  C   UNL d   1      11.967  10.949  -5.692  0.00  0.00     0.281 C 
ATOM     16  O   UNL d   1      11.297  11.806  -5.110  0.00  0.00    -0.265 OA
ATOM     17  H   UNL d   1      12.407   8.939  -6.013  0.00  0.00     0.171 HD
BRANCH  15  18
ATOM     18  C   UNL d   1      13.024  11.395  -6.560  0.00  0.00     0.142 A 
ATOM     19  C   UNL d   1      13.392  11.071  -7.850  0.00  0.00     0.045 A 
ATOM     20  C   UNL d   1      14.408  11.990  -8.223  0.00  0.00     0.027 A 
ATOM     21  C   UNL d   1      14.595  12.823  -7.146  0.00  0.00     0.143 A 
ATOM     22  O   UNL d   1      13.757  12.478  -6.141  0.00  0.00    -0.317 OA
ENDBRANCH  15  18
ENDBRANCH  12  14
ENDBRANCH   7  12
BRANCH   1  23
ATOM     23  C   UNL d   1       6.441   2.649  -1.122  0.00  0.00     0.293 C 
ATOM     24  O   UNL d   1       7.219   1.770  -0.790  0.00  0.00    -0.259 OA
BRANCH  23  25
ATOM     25  O   UNL d   1       5.085   2.571  -1.061  0.00  0.00    -0.318 OA
BRANCH  25  26
ATOM     26  C   UNL d   1       4.631   1.298  -0.549  0.00  0.00     0.179 C 
BRANCH  26  27
ATOM     27  C   UNL d   1       3.106   1.256  -0.543  0.00  0.00     0.026 C 
BRANCH  27  28
ATOM     28  C   UNL d   1       2.572  -0.058   0.033  0.00  0.00    -0.002 C 
ATOM     29  C   UNL d   1       1.050  -0.077   0.041  0.00  0.00     0.005 C 
ENDBRANCH  27  28
ENDBRANCH  26  27
ENDBRANCH  25  26
ENDBRANCH  23  25
ENDBRANCH   1  23
TORSDOF 8
