REMARK  9 active torsions:
REMARK  status: ('A' for Active; 'I' for Inactive)
REMARK    1  A    between atoms: C_2  and  C_3 
REMARK       I    between atoms: C_2  and  N_12 
REMARK    2  A    between atoms: C_3  and  C_4 
REMARK    3  A    between atoms: C_4  and  C_5 
REMARK    4  A    between atoms: C_5  and  N_6 
REMARK       I    between atoms: N_6  and  C_7 
REMARK    5  A    between atoms: C_7  and  C_9 
REMARK    6  A    between atoms: N_12  and  C_13 
REMARK    7  A    between atoms: C_14  and  C_13 
REMARK    8  A    between atoms: C_14  and  C_16 
REMARK    9  A    between atoms: C_14  and  O_15 
ROOT
ATOM      1  O   UNL d   1       5.803   3.088  -5.442  0.00  0.00    -0.274 OA
ATOM      2  C   UNL d   1       4.847   2.422  -5.056  0.00  0.00     0.217 C 
ATOM      3  N   UNL d   1       5.056   1.553  -4.071  0.00  0.00    -0.359 N 
ATOM      4  H   UNL d   1       6.046   1.667  -4.044  0.00  0.00     0.162 HD
ENDROOT
BRANCH   2   5
ATOM      5  C   UNL d   1       3.477   2.496  -5.558  0.00  0.00     0.104 C 
BRANCH   5   6
ATOM      6  C   UNL d   1       3.433   3.653  -6.512  0.00  0.00     0.029 C 
BRANCH   6   7
ATOM      7  C   UNL d   1       2.019   3.772  -6.985  0.00  0.00     0.123 C 
BRANCH   7   8
ATOM      8  N   UNL d   1       1.897   4.865  -7.894  0.00  0.00    -0.361 N 
ATOM      9  C   UNL d   1       0.675   5.151  -8.445  0.00  0.00     0.221 C 
ATOM     10  O   UNL d   1      -0.339   4.527  -8.198  0.00  0.00    -0.273 OA
ATOM     11  H   UNL d   1       2.709   5.425  -8.102  0.00  0.00     0.162 HD
BRANCH   9  12
ATOM     12  C   UNL d   1       0.643   6.292  -9.396  0.00  0.00     0.078 A 
ATOM     13  C   UNL d   1       1.054   7.677  -8.954  0.00  0.00     0.015 A 
ATOM     14  C   UNL d   1       1.879   6.943  -9.973  0.00  0.00     0.015 A 
ENDBRANCH   9  12
ENDBRANCH   7   8
ENDBRANCH   6   7
ENDBRANCH   5   6
ENDBRANCH   2   5
BRANCH   3  15
ATOM     15  C   UNL d   1       4.302   0.385  -3.610  0.00  0.00     0.154 C 
BRANCH  15  16
ATOM     16  C   UNL d   1       4.948  -0.610  -2.573  0.00  0.00     0.140 C 
BRANCH  16  17
ATOM     17  C   UNL d   1       6.508  -0.764  -2.465  0.00  0.00     0.016 C 
ATOM     18  C   UNL d   1       7.212   0.308  -3.250  0.00  0.00     0.007 C 
ATOM     19  C   UNL d   1       8.688   0.507  -3.219  0.00  0.00     0.000 C 
ATOM     20  C   UNL d   1       9.090   0.637  -1.771  0.00  0.00     0.000 C 
ATOM     21  C   UNL d   1       8.562  -0.565  -0.984  0.00  0.00     0.000 C 
ATOM     22  C   UNL d   1       7.035  -0.689  -1.026  0.00  0.00     0.007 C 
ENDBRANCH  16  17
BRANCH  16  23
ATOM     23  O   UNL d   1       4.375  -0.332  -1.286  0.00  0.00    -0.394 OA
ATOM     24  H   UNL d   1       4.659   0.561  -1.025  0.00  0.00     0.210 HD
ENDBRANCH  16  23
ENDBRANCH  15  16
ENDBRANCH   3  15
TORSDOF 9
