REMARK  4 active torsions:
REMARK  status: ('A' for Active; 'I' for Inactive)
REMARK       I    between atoms: C_2  and  N_4 
REMARK    1  A    between atoms: N_4  and  C_5 
REMARK    2  A    between atoms: C_7  and  N_8 
REMARK    3  A    between atoms: N_8  and  C_9 
REMARK    4  A    between atoms: C_9  and  C_10 
ROOT
ATOM      1  C   UNL d   1       4.688   0.971   0.872  0.00  0.00     0.075 A 
ATOM      2  C   UNL d   1       5.404   1.146   2.074  0.00  0.00     0.061 A 
ATOM      3  C   UNL d   1       6.819   1.119   2.088  0.00  0.00     0.030 A 
ATOM      4  C   UNL d   1       7.484   0.973   0.861  0.00  0.00     0.032 A 
ATOM      5  C   UNL d   1       6.788   0.854  -0.336  0.00  0.00     0.047 A 
ATOM      6  C   UNL d   1       5.405   0.852  -0.324  0.00  0.00     0.143 A 
ATOM      7  F   UNL d   1       4.773   0.829  -1.507  0.00  0.00    -0.204 F 
ENDROOT
BRANCH   3   8
ATOM      8  N   UNL d   1       7.525   1.219   3.281  0.00  0.00    -0.385 N 
ATOM      9  H   UNL d   1       7.023   1.309   4.155  0.00  0.00     0.160 HD
BRANCH   8  10
ATOM     10  C   UNL d   1       8.982   1.203   3.319  0.00  0.00     0.163 C 
BRANCH  10  11
ATOM     11  C   UNL d   1       9.510   1.300   4.721  0.00  0.00     0.020 A 
ATOM     12  C   UNL d   1       9.660   2.564   5.303  0.00  0.00     0.126 A 
ATOM     13  F   UNL d   1       9.332   3.662   4.606  0.00  0.00    -0.205 F 
ATOM     14  C   UNL d   1      10.155   2.727   6.594  0.00  0.00     0.043 A 
ATOM     15  C   UNL d   1      10.522   1.609   7.336  0.00  0.00     0.005 A 
ATOM     16  C   UNL d   1      10.386   0.337   6.779  0.00  0.00     0.024 A 
ATOM     17  C   UNL d   1       9.879   0.182   5.483  0.00  0.00     0.044 A 
ATOM     18 CL   UNL d   1       9.742  -1.430   4.876  0.00  0.00    -0.084 Cl
ENDBRANCH  10  11
ENDBRANCH   8  10
ENDBRANCH   3   8
BRANCH   1  19
ATOM     19  N   UNL d   1       3.265   0.924   0.859  0.00  0.00    -0.325 N 
ATOM     20  C   UNL d   1       2.586  -0.014   0.088  0.00  0.00     0.218 C 
ATOM     21  C   UNL d   1       1.083   0.070   0.144  0.00  0.00     0.117 C 
ATOM     22  O   UNL d   1       3.120  -0.919  -0.558  0.00  0.00    -0.274 OA
ATOM     23  H   UNL d   1       2.760   1.420   1.581  0.00  0.00     0.169 HD
ENDBRANCH   1  19
TORSDOF 4
