REMARK  4 active torsions:
REMARK  status: ('A' for Active; 'I' for Inactive)
REMARK    1  A    between atoms: C_8  and  O_9 
REMARK    2  A    between atoms: N_16  and  C_17 
REMARK    3  A    between atoms: C_17  and  C_18 
REMARK    4  A    between atoms: C_18  and  C_19 
ROOT
ATOM      1  O   UNL d   1       1.080   0.127   0.048  0.00  0.00    -0.267 OA
ATOM      2  C   UNL d   1       2.308   0.110   0.046  0.00  0.00     0.261 A 
ATOM      3  C   UNL d   1       3.074   1.378   0.042  0.00  0.00     0.044 A 
ATOM      4  C   UNL d   1       2.380   2.588   0.048  0.00  0.00     0.018 A 
ATOM      5  C   UNL d   1       3.087   3.783   0.043  0.00  0.00     0.002 A 
ATOM      6  C   UNL d   1       4.483   3.774   0.033  0.00  0.00     0.015 A 
ATOM      7  C   UNL d   1       5.212   2.568   0.028  0.00  0.00     0.009 A 
ATOM      8  C   UNL d   1       6.628   2.496   0.017  0.00  0.00     0.076 A 
ATOM      9  C   UNL d   1       7.298   1.278   0.012  0.00  0.00     0.038 A 
ATOM     10  C   UNL d   1       6.572   0.102   0.018  0.00  0.00     0.021 A 
ATOM     11  C   UNL d   1       5.172   0.150   0.028  0.00  0.00     0.044 A 
ATOM     12  C   UNL d   1       4.477   1.357   0.033  0.00  0.00     0.008 A 
ATOM     13  C   UNL d   1       4.444  -1.123   0.037  0.00  0.00     0.261 A 
ATOM     14  O   UNL d   1       5.132  -2.131   0.036  0.00  0.00    -0.267 OA
ATOM     15  N   UNL d   1       3.042  -1.074   0.046  0.00  0.00    -0.280 N 
ENDROOT
BRANCH  15  16
ATOM     16  C   UNL d   1       2.230  -2.297   0.051  0.00  0.00     0.140 C 
BRANCH  16  17
ATOM     17  C   UNL d   1       3.040  -3.564   0.040  0.00  0.00     0.057 C 
BRANCH  17  18
ATOM     18  C   UNL d   1       2.401  -4.887  -0.012  0.00  0.00    -0.048 A 
ATOM     19  C   UNL d   1       3.188  -5.962  -0.020  0.00  0.00    -0.006 A 
ATOM     20  C   UNL d   1       4.601  -6.075   0.105  0.00  0.00     0.014 C 
ATOM     21  C   UNL d   1       2.283  -7.103   0.053  0.00  0.00     0.038 A 
ATOM     22  C   UNL d   1       5.086  -7.270   0.458  0.00  0.00     0.001 C 
ATOM     23  C   UNL d   1       4.253  -8.459   0.349  0.00  0.00     0.002 C 
ATOM     24  C   UNL d   1       2.922  -8.430   0.118  0.00  0.00     0.030 C 
ATOM     25  N   UNL d   1       1.056  -6.734   0.076  0.00  0.00    -0.385 N 
ATOM     26  C   UNL d   1       0.960  -5.244   0.081  0.00  0.00     0.155 A 
ATOM     27  H   UNL d   1       0.283  -7.394   0.136  0.00  0.00     0.160 HD
ENDBRANCH  17  18
ENDBRANCH  16  17
ENDBRANCH  15  16
BRANCH   8  28
ATOM     28  O   UNL d   1       7.449   3.588   0.012  0.00  0.00    -0.360 OA
ATOM     29  H   UNL d   1       6.933   4.406   0.017  0.00  0.00     0.217 HD
ENDBRANCH   8  28
TORSDOF 4
