REMARK  6 active torsions:
REMARK  status: ('A' for Active; 'I' for Inactive)
REMARK    1  A    between atoms: C_2  and  C_3 
REMARK       I    between atoms: C_2  and  N_14 
REMARK    2  A    between atoms: C_4  and  C_5 
REMARK    3  A    between atoms: C_8  and  N_9 
REMARK    4  A    between atoms: N_14  and  C_15 
REMARK    5  A    between atoms: C_19  and  N_20 
REMARK       I    between atoms: N_20  and  C_21 
REMARK    6  A    between atoms: C_21  and  C_23 
ROOT
ATOM      1  O   UNL d   1       0.973  -0.027  -0.040  0.00  0.00    -0.268 OA
ATOM      2  C   UNL d   1       2.199   0.059  -0.053  0.00  0.00     0.245 C 
ATOM      3  N   UNL d   1       2.966  -0.965  -0.580  0.00  0.00    -0.324 N 
ATOM      4  H   UNL d   1       2.426  -1.722  -0.981  0.00  0.00     0.169 HD
ENDROOT
BRANCH   3   5
ATOM      5  C   UNL d   1       4.362  -1.127  -0.529  0.00  0.00     0.037 A 
ATOM      6  C   UNL d   1       5.081  -1.722  -1.553  0.00  0.00     0.029 A 
ATOM      7  C   UNL d   1       6.474  -1.847  -1.429  0.00  0.00     0.004 A 
ATOM      8  C   UNL d   1       7.150  -1.335  -0.304  0.00  0.00     0.029 A 
ATOM      9  C   UNL d   1       6.419  -0.775   0.742  0.00  0.00     0.036 A 
ATOM     10  C   UNL d   1       5.039  -0.736   0.614  0.00  0.00     0.059 A 
BRANCH   9  11
ATOM     11  N   UNL d   1       7.036  -0.290   1.918  0.00  0.00    -0.327 N 
ATOM     12  C   UNL d   1       6.361   0.295   2.983  0.00  0.00     0.226 C 
ATOM     13  O   UNL d   1       5.159   0.536   3.069  0.00  0.00    -0.273 OA
ATOM     14  H   UNL d   1       8.038  -0.399   1.984  0.00  0.00     0.169 HD
BRANCH  12  15
ATOM     15  C   UNL d   1       7.154   0.674   4.168  0.00  0.00     0.078 A 
ATOM     16  C   UNL d   1       8.643   0.818   4.209  0.00  0.00     0.015 A 
ATOM     17  C   UNL d   1       7.780   2.050   4.197  0.00  0.00     0.015 A 
ENDBRANCH  12  15
ENDBRANCH   9  11
ENDBRANCH   3   5
BRANCH   2  18
ATOM     18  C   UNL d   1       2.889   1.312   0.385  0.00  0.00     0.075 C 
ATOM     19  C   UNL d   1       2.266   2.392   0.880  0.00  0.00     0.017 C 
BRANCH  19  20
ATOM     20  C   UNL d   1       3.017   3.605   1.259  0.00  0.00    -0.036 A 
ATOM     21  C   UNL d   1       2.608   4.387   2.348  0.00  0.00     0.014 A 
ATOM     22  C   UNL d   1       3.224   5.620   2.614  0.00  0.00     0.037 A 
ATOM     23  C   UNL d   1       4.318   6.030   1.841  0.00  0.00     0.102 A 
ATOM     24  C   UNL d   1       4.755   5.251   0.768  0.00  0.00     0.037 A 
ATOM     25  C   UNL d   1       4.100   4.052   0.481  0.00  0.00     0.014 A 
BRANCH  23  26
ATOM     26  N   UNL d   1       5.050   7.254   2.191  0.00  0.00    -0.116 N 
ATOM     27  O   UNL d   1       4.648   7.911   3.161  0.00  0.00    -0.532 OA
ATOM     28  O   UNL d   1       6.043   7.546   1.508  0.00  0.00    -0.532 OA
ENDBRANCH  23  26
ENDBRANCH  19  20
ENDBRANCH   2  18
TORSDOF 6
