@<TRIPOS>MOLECULE
*****
 63 67 0 0 0
SMALL
GASTEIGER

@<TRIPOS>ATOM
      1 O           1.0395   -0.0545    0.2292 O.2     1  UNL1       -0.2738
      2 C           2.2679   -0.0054    0.1272 C.2     1  UNL1        0.2343
      3 C           2.9714    0.8139   -0.9682 C.3     1  UNL1        0.0861
      4 N           2.0655    1.5704   -1.8163 N.pl3   1  UNL1       -0.3354
      5 C           2.5786    2.3106   -2.8651 C.ar    1  UNL1        0.0275
      6 C           2.1269    3.6032   -3.1356 C.ar    1  UNL1       -0.0406
      7 C           2.6721    4.3540   -4.1943 C.ar    1  UNL1       -0.0568
      8 C           3.7387    3.8577   -4.9619 C.ar    1  UNL1       -0.0455
      9 C           4.4003    4.7477   -6.0046 C.3     1  UNL1       -0.0063
     10 C           5.6011    4.1194   -6.7260 C.3     1  UNL1        0.0668
     11 N           6.2450    4.9060   -7.7553 N.ar    1  UNL1       -0.1625
     12 N           6.1523    6.2408   -7.8640 N.ar    1  UNL1       -0.0458
     13 N           6.8724    6.5433   -8.9431 N.ar    1  UNL1       -0.1078
     14 C           7.3742    5.3584   -9.4345 C.ar    1  UNL1        0.2045
     15 C           8.1320    5.2363  -10.6743 C.ar    1  UNL1        0.0227
     16 C           9.3344    5.9240  -10.8875 C.ar    1  UNL1       -0.0509
     17 C          10.0259    5.7830  -12.1012 C.ar    1  UNL1       -0.0611
     18 C           9.5535    4.9151  -13.0860 C.ar    1  UNL1       -0.0617
     19 C           8.3661    4.2191  -12.8791 C.ar    1  UNL1       -0.0611
     20 C           7.6579    4.3845  -11.6846 C.ar    1  UNL1       -0.0509
     21 N           6.9985    4.3008   -8.6950 N.ar    1  UNL1       -0.1304
     22 C           4.1817    2.5620   -4.6879 C.ar    1  UNL1       -0.0568
     23 C           3.6189    1.8153   -3.6529 C.ar    1  UNL1       -0.0406
     24 N           3.0517   -0.7905    0.9568 N.am    1  UNL1       -0.2842
     25 C           4.4515   -0.7763    1.0760 C.ar    1  UNL1        0.0341
     26 C           5.1551   -1.9548    1.3204 C.ar    1  UNL1       -0.0404
     27 C           6.5449   -1.9075    1.4703 C.ar    1  UNL1       -0.0593
     28 C           7.2275   -0.6932    1.3165 C.ar    1  UNL1       -0.0495
     29 C           6.5220    0.4984    1.0891 C.ar    1  UNL1        0.0385
     30 C           7.2398    1.7980    0.9911 C.2     1  UNL1        0.2443
     31 O           8.4716    1.7673    1.1182 O.2     1  UNL1       -0.2702
     32 N           6.5438    3.0046    0.7988 N.am    1  UNL1       -0.3085
     33 C           7.3033    4.2219    0.8806 C.3     1  UNL1        0.0235
     34 C           7.3985    5.1040   -0.3445 C.3     1  UNL1       -0.0328
     35 C           6.9388    5.6707    0.9607 C.3     1  UNL1       -0.0328
     36 C           5.1396    0.4363    1.0320 C.ar    1  UNL1       -0.0284
     37 H           3.5894    0.1164   -1.5433 H       1  UNL1        0.0557
     38 H           3.5991    1.5758   -0.5178 H       1  UNL1        0.0557
     39 H           1.0684    1.5058   -1.6415 H       1  UNL1        0.1466
     40 H           1.3731    4.0608   -2.4978 H       1  UNL1        0.0636
     41 H           2.2613    5.3408   -4.4020 H       1  UNL1        0.0621
     42 H           4.7379    5.6554   -5.4878 H       1  UNL1        0.0332
     43 H           3.6448    5.0462   -6.7411 H       1  UNL1        0.0332
     44 H           5.2772    3.1974   -7.2252 H       1  UNL1        0.0530
     45 H           6.3859    3.8534   -6.0063 H       1  UNL1        0.0530
     46 H           9.7612    6.5523  -10.1093 H       1  UNL1        0.0625
     47 H          10.9389    6.3466  -12.2814 H       1  UNL1        0.0618
     48 H          10.1123    4.7758  -14.0093 H       1  UNL1        0.0618
     49 H           7.9879    3.5482  -13.6464 H       1  UNL1        0.0618
     50 H           6.7290    3.8371  -11.5402 H       1  UNL1        0.0625
     51 H           4.9722    2.0848   -5.2581 H       1  UNL1        0.0621
     52 H           3.9996    0.8109   -3.4953 H       1  UNL1        0.0636
     53 H           2.5319   -1.4580    1.5163 H       1  UNL1        0.1549
     54 H           4.6509   -2.9182    1.3593 H       1  UNL1        0.0636
     55 H           7.1013   -2.8136    1.7065 H       1  UNL1        0.0618
     56 H           8.3139   -0.6790    1.4064 H       1  UNL1        0.0625
     57 H           5.5369    3.0551    0.7061 H       1  UNL1        0.1493
     58 H           8.1590    4.0607    1.5333 H       1  UNL1        0.0498
     59 H           6.6401    5.1076   -1.1211 H       1  UNL1        0.0284
     60 H           8.3988    5.2856   -0.7178 H       1  UNL1        0.0284
     61 H           5.9267    6.0381    1.0287 H       1  UNL1        0.0284
     62 H           7.6555    6.2985    1.4922 H       1  UNL1        0.0284
     63 H           4.5821    1.3569    1.0410 H       1  UNL1        0.0644
@<TRIPOS>BOND
     1     1     2    2
     2     2     3    1
     3     3     4    1
     4     4     5    1
     5     5     6   ar
     6     6     7   ar
     7     7     8   ar
     8     8     9    1
     9     9    10    1
    10    10    11    1
    11    11    12   ar
    12    12    13   ar
    13    13    14   ar
    14    14    15    1
    15    15    16   ar
    16    16    17   ar
    17    17    18   ar
    18    18    19   ar
    19    19    20   ar
    20    15    20   ar
    21    14    21   ar
    22    11    21   ar
    23     8    22   ar
    24    22    23   ar
    25     5    23   ar
    26     2    24   am
    27    24    25    1
    28    25    26   ar
    29    26    27   ar
    30    27    28   ar
    31    28    29   ar
    32    29    30    1
    33    30    31    2
    34    30    32   am
    35    32    33    1
    36    33    34    1
    37    34    35    1
    38    33    35    1
    39    29    36   ar
    40    25    36   ar
    41     3    37    1
    42     3    38    1
    43     4    39    1
    44     6    40    1
    45     7    41    1
    46     9    42    1
    47     9    43    1
    48    10    44    1
    49    10    45    1
    50    16    46    1
    51    17    47    1
    52    18    48    1
    53    19    49    1
    54    20    50    1
    55    22    51    1
    56    23    52    1
    57    24    53    1
    58    26    54    1
    59    27    55    1
    60    28    56    1
    61    32    57    1
    62    33    58    1
    63    34    59    1
    64    34    60    1
    65    35    61    1
    66    35    62    1
    67    36    63    1
