REMARK  7 active torsions:
REMARK  status: ('A' for Active; 'I' for Inactive)
REMARK    1  A    between atoms: C_2  and  N_3 
REMARK       I    between atoms: N_3  and  C_4 
REMARK    2  A    between atoms: C_4  and  C_6 
REMARK    3  A    between atoms: C_6  and  N_8 
REMARK       I    between atoms: N_8  and  C_9 
REMARK    4  A    between atoms: C_9  and  C_11 
REMARK    5  A    between atoms: C_13  and  N_14 
REMARK       I    between atoms: N_14  and  C_15 
REMARK    6  A    between atoms: C_15  and  C_17 
REMARK    7  A    between atoms: C_21  and  O_22 
ROOT
ATOM      1  C   UNL d   1       8.674  -0.465   4.348  0.00  0.00     0.067 A 
ATOM      2  C   UNL d   1       9.421  -1.395   5.131  0.00  0.00     0.049 A 
ATOM      3  C   UNL d   1      10.830  -1.362   5.139  0.00  0.00     0.035 A 
ATOM      4  C   UNL d   1      11.443  -0.358   4.379  0.00  0.00     0.032 A 
ATOM      5  C   UNL d   1      10.721   0.567   3.625  0.00  0.00     0.040 A 
ATOM      6  C   UNL d   1       9.339   0.508   3.600  0.00  0.00     0.081 A 
ENDROOT
BRANCH   1   7
ATOM      7  C   UNL d   1       7.184  -0.470   4.405  0.00  0.00     0.255 C 
ATOM      8  N   UNL d   1       6.486  -0.352   3.214  0.00  0.00    -0.344 N 
ATOM      9  H   UNL d   1       6.997  -0.140   2.359  0.00  0.00     0.163 HD
ATOM     10  O   UNL d   1       6.644  -0.601   5.505  0.00  0.00    -0.268 OA
BRANCH   8  11
ATOM     11  C   UNL d   1       5.014  -0.330   3.128  0.00  0.00     0.172 C 
ATOM     12  C   UNL d   1       4.447  -1.635   3.678  0.00  0.00     0.042 C 
BRANCH  11  13
ATOM     13  C   UNL d   1       4.535  -0.122   1.654  0.00  0.00     0.240 C 
ATOM     14  N   UNL d   1       3.160  -0.084   1.447  0.00  0.00    -0.360 N 
ATOM     15  H   UNL d   1       2.526  -0.172   2.230  0.00  0.00     0.162 HD
ATOM     16  O   UNL d   1       5.333   0.011   0.724  0.00  0.00    -0.271 OA
BRANCH  14  17
ATOM     17  C   UNL d   1       2.601   0.067   0.110  0.00  0.00     0.118 C 
ATOM     18  C   UNL d   1       1.079   0.066   0.092  0.00  0.00     0.026 C 
ENDBRANCH  14  17
ENDBRANCH  11  13
ENDBRANCH   8  11
ENDBRANCH   1   7
BRANCH   6  19
ATOM     19  O   UNL d   1       8.645   1.424   2.862  0.00  0.00    -0.360 OA
ATOM     20  H   UNL d   1       9.270   2.029   2.426  0.00  0.00     0.217 HD
ENDBRANCH   6  19
BRANCH   3  21
ATOM     21  N   UNL d   1      11.606  -2.311   5.889  0.00  0.00    -0.327 N 
ATOM     22  C   UNL d   1      13.002  -2.332   5.923  0.00  0.00     0.221 C 
ATOM     23  O   UNL d   1      13.730  -1.540   5.324  0.00  0.00    -0.273 OA
ATOM     24  H   UNL d   1      11.098  -3.013   6.417  0.00  0.00     0.169 HD
BRANCH  22  25
ATOM     25  C   UNL d   1      13.666  -3.416   6.761  0.00  0.00     0.098 C 
ATOM     26  C   UNL d   1      15.192  -3.250   6.660  0.00  0.00     0.014 C 
ENDBRANCH  22  25
ENDBRANCH   3  21
TORSDOF 7
