REMARK  4 active torsions:
REMARK  status: ('A' for Active; 'I' for Inactive)
REMARK       I    between atoms: C_2  and  N_3 
REMARK    1  A    between atoms: C_2  and  C_14 
REMARK    2  A    between atoms: N_3  and  C_4 
REMARK    3  A    between atoms: C_4  and  N_6 
REMARK    4  A    between atoms: N_6  and  C_7 
ROOT
ATOM      1  O   UNL d   1       1.142  -0.084   0.200  0.00  0.00    -0.267 OA
ATOM      2  C   UNL d   1       2.350  -0.054  -0.060  0.00  0.00     0.257 C 
ATOM      3  N   UNL d   1       2.914   0.127  -1.342  0.00  0.00    -0.299 N 
ATOM      4  H   UNL d   1       3.924   0.118  -1.400  0.00  0.00     0.171 HD
ENDROOT
BRANCH   3   5
ATOM      5  C   UNL d   1       2.173   0.184  -2.551  0.00  0.00     0.179 C 
ATOM      6  S   UNL d   1       0.491  -0.025  -2.592  0.00  0.00    -0.040 SA
BRANCH   5   7
ATOM      7  N   UNL d   1       2.953   0.396  -3.724  0.00  0.00    -0.333 N 
ATOM      8  H   UNL d   1       3.924   0.106  -3.725  0.00  0.00     0.168 HD
BRANCH   7   9
ATOM      9  C   UNL d   1       2.361   0.562  -5.034  0.00  0.00     0.034 A 
ATOM     10  C   UNL d   1       1.289   1.453  -5.213  0.00  0.00     0.032 A 
ATOM     11  C   UNL d   1       0.574   1.521  -6.411  0.00  0.00     0.044 A 
ATOM     12  C   UNL d   1       0.976   0.745  -7.482  0.00  0.00     0.116 A 
ATOM     13  F   UNL d   1       0.297   0.811  -8.635  0.00  0.00    -0.206 F 
ATOM     14  C   UNL d   1       2.083  -0.092  -7.367  0.00  0.00     0.044 A 
ATOM     15  C   UNL d   1       2.788  -0.180  -6.146  0.00  0.00     0.032 A 
ENDBRANCH   7   9
ENDBRANCH   5   7
ENDBRANCH   3   5
BRANCH   2  16
ATOM     16  C   UNL d   1       3.193  -0.226   1.144  0.00  0.00     0.035 A 
ATOM     17  C   UNL d   1       2.757  -1.178   2.111  0.00  0.00     0.020 A 
ATOM     18  C   UNL d   1       3.417  -1.333   3.334  0.00  0.00     0.041 A 
ATOM     19  C   UNL d   1       4.484  -0.502   3.577  0.00  0.00     0.105 A 
ATOM     20  C   UNL d   1       4.879   0.457   2.666  0.00  0.00     0.106 A 
ATOM     21  O   UNL d   1       5.248  -0.502   4.701  0.00  0.00    -0.323 OA
ATOM     22  C   UNL d   1       4.255   0.628   1.440  0.00  0.00     0.056 A 
ATOM     23  O   UNL d   1       5.924   1.197   3.130  0.00  0.00    -0.323 OA
ATOM     24  C   UNL d   1       6.112   0.622   4.443  0.00  0.00     0.352 A 
ENDBRANCH   2  16
TORSDOF 4
