@<TRIPOS>MOLECULE
*****
 67 70 0 0 0
SMALL
GASTEIGER

@<TRIPOS>ATOM
      1 O           1.0965   -0.1084   -0.0648 O.2     1  UNL1       -0.2738
      2 C           2.3327   -0.0860    0.0460 C.2     1  UNL1        0.2343
      3 C           3.0311    0.0080    1.4131 C.3     1  UNL1        0.0861
      4 N           2.1103    0.0059    2.5389 N.pl3   1  UNL1       -0.3354
      5 C           2.5652    0.1246    3.8370 C.ar    1  UNL1        0.0277
      6 C           1.9874   -0.6255    4.8638 C.ar    1  UNL1       -0.0374
      7 C           2.3992   -0.4652    6.1981 C.ar    1  UNL1       -0.0182
      8 C           3.4540    0.3917    6.5226 C.ar    1  UNL1        0.1208
      9 O           3.8130    0.4424    7.8457 O.3     1  UNL1       -0.4886
     10 C           4.9581    1.2454    8.1652 C.3     1  UNL1        0.1235
     11 C           5.2889    1.1202    9.6555 C.3     1  UNL1        0.1235
     12 O           6.3476    2.0321    9.9744 O.3     1  UNL1       -0.4886
     13 C           6.8391    1.9649   11.2517 C.ar    1  UNL1        0.1207
     14 C           7.2602    3.1739   11.8145 C.ar    1  UNL1       -0.0199
     15 C           7.8961    3.1952   13.0600 C.ar    1  UNL1       -0.0583
     16 C           8.0682    2.0116   13.7736 C.ar    1  UNL1       -0.0615
     17 C           7.6413    0.8053   13.2225 C.ar    1  UNL1       -0.0583
     18 C           7.0403    0.7796   11.9592 C.ar    1  UNL1       -0.0199
     19 C           4.0645    1.1070    5.4975 C.ar    1  UNL1       -0.0182
     20 C           3.6379    0.9550    4.1732 C.ar    1  UNL1       -0.0374
     21 N           3.1126   -0.0369   -1.0946 N.am    1  UNL1       -0.2842
     22 C           4.5144   -0.1300   -1.1828 C.ar    1  UNL1        0.0337
     23 C           5.2181    0.6043   -2.1377 C.ar    1  UNL1       -0.0370
     24 C           6.6200    0.4868   -2.2188 C.ar    1  UNL1       -0.0182
     25 C           7.3288   -0.3222   -1.3208 C.ar    1  UNL1        0.1208
     26 O           8.6967   -0.3169   -1.4170 O.3     1  UNL1       -0.4886
     27 C           9.4005   -1.0828   -0.4241 C.3     1  UNL1        0.1235
     28 C          10.9095   -0.9163   -0.6053 C.3     1  UNL1        0.1235
     29 O          11.5866   -1.7871    0.3090 O.3     1  UNL1       -0.4886
     30 C          12.9518   -1.6740    0.3459 C.ar    1  UNL1        0.1207
     31 C          13.6630   -2.8548    0.5805 C.ar    1  UNL1       -0.0199
     32 C          15.0492   -2.8248    0.7632 C.ar    1  UNL1       -0.0583
     33 C          15.7387   -1.6189    0.6609 C.ar    1  UNL1       -0.0615
     34 C          15.0363   -0.4407    0.4173 C.ar    1  UNL1       -0.0583
     35 C          13.6450   -0.4655    0.2736 C.ar    1  UNL1       -0.0199
     36 C           6.6124   -1.0802   -0.4058 C.ar    1  UNL1       -0.0182
     37 C           5.2237   -1.0099   -0.3709 C.ar    1  UNL1       -0.0370
     38 H           3.6476    0.9126    1.3996 H       1  UNL1        0.0557
     39 H           3.6497   -0.8701    1.5661 H       1  UNL1        0.0557
     40 H           1.1194   -0.0876    2.3382 H       1  UNL1        0.1466
     41 H           1.2212   -1.3619    4.6308 H       1  UNL1        0.0637
     42 H           1.8832   -1.0139    6.9821 H       1  UNL1        0.0655
     43 H           4.7589    2.2977    7.9300 H       1  UNL1        0.0731
     44 H           5.8324    0.9155    7.5871 H       1  UNL1        0.0731
     45 H           5.5617    0.0787    9.8538 H       1  UNL1        0.0731
     46 H           4.4054    1.3696   10.2533 H       1  UNL1        0.0731
     47 H           7.0959    4.1077   11.2830 H       1  UNL1        0.0654
     48 H           8.2689    4.1319   13.4668 H       1  UNL1        0.0619
     49 H           8.5415    2.0272   14.7523 H       1  UNL1        0.0618
     50 H           7.7991   -0.1235   13.7649 H       1  UNL1        0.0619
     51 H           6.7728   -0.1843   11.5425 H       1  UNL1        0.0654
     52 H           4.8647    1.8135    5.6854 H       1  UNL1        0.0655
     53 H           4.1348    1.5501    3.4135 H       1  UNL1        0.0637
     54 H           2.5890    0.1129   -1.9504 H       1  UNL1        0.1549
     55 H           4.7083    1.3080   -2.7928 H       1  UNL1        0.0637
     56 H           7.1596    1.0379   -2.9863 H       1  UNL1        0.0655
     57 H           9.1467   -2.1465   -0.5132 H       1  UNL1        0.0731
     58 H           9.1314   -0.7428    0.5864 H       1  UNL1        0.0731
     59 H          11.1519    0.1373   -0.4362 H       1  UNL1        0.0731
     60 H          11.1882   -1.1816   -1.6307 H       1  UNL1        0.0731
     61 H          13.1394   -3.8063    0.6239 H       1  UNL1        0.0654
     62 H          15.5889   -3.7386    0.9988 H       1  UNL1        0.0619
     63 H          16.8191   -1.5951    0.7797 H       1  UNL1        0.0618
     64 H          15.5682    0.5059    0.3648 H       1  UNL1        0.0619
     65 H          13.1308    0.4790    0.1407 H       1  UNL1        0.0654
     66 H           7.0871   -1.7664    0.2859 H       1  UNL1        0.0655
     67 H           4.7210   -1.7212    0.2720 H       1  UNL1        0.0637
@<TRIPOS>BOND
     1     1     2    2
     2     2     3    1
     3     3     4    1
     4     4     5    1
     5     5     6   ar
     6     6     7   ar
     7     7     8   ar
     8     8     9    1
     9     9    10    1
    10    10    11    1
    11    11    12    1
    12    12    13    1
    13    13    14   ar
    14    14    15   ar
    15    15    16   ar
    16    16    17   ar
    17    17    18   ar
    18    13    18   ar
    19     8    19   ar
    20    19    20   ar
    21     5    20   ar
    22     2    21   am
    23    21    22    1
    24    22    23   ar
    25    23    24   ar
    26    24    25   ar
    27    25    26    1
    28    26    27    1
    29    27    28    1
    30    28    29    1
    31    29    30    1
    32    30    31   ar
    33    31    32   ar
    34    32    33   ar
    35    33    34   ar
    36    34    35   ar
    37    30    35   ar
    38    25    36   ar
    39    36    37   ar
    40    22    37   ar
    41     3    38    1
    42     3    39    1
    43     4    40    1
    44     6    41    1
    45     7    42    1
    46    10    43    1
    47    10    44    1
    48    11    45    1
    49    11    46    1
    50    14    47    1
    51    15    48    1
    52    16    49    1
    53    17    50    1
    54    18    51    1
    55    19    52    1
    56    20    53    1
    57    21    54    1
    58    23    55    1
    59    24    56    1
    60    27    57    1
    61    27    58    1
    62    28    59    1
    63    28    60    1
    64    31    61    1
    65    32    62    1
    66    33    63    1
    67    34    64    1
    68    35    65    1
    69    36    66    1
    70    37    67    1
