@<TRIPOS>MOLECULE
*****
 33 35 0 0 0
SMALL
GASTEIGER

@<TRIPOS>ATOM
      1 O           1.1486    0.2675   -0.1120 O.2     1  UNL1       -0.2698
      2 C           2.3512    0.0469    0.0555 C.2     1  UNL1        0.2496
      3 N           2.9093   -0.9596    0.8781 N.am    1  UNL1       -0.2636
      4 C           2.1726   -1.8348    1.7151 C.2     1  UNL1        0.1411
      5 S           0.4889   -1.7362    1.8586 S.2     1  UNL1       -0.0182
      6 N           2.9638   -2.7733    2.4392 N.am    1  UNL1       -0.2966
      7 C           2.3749   -3.7283    3.3508 C.ar    1  UNL1        0.0327
      8 C           1.3069   -4.5417    2.9391 C.ar    1  UNL1       -0.0391
      9 C           0.5617   -5.2966    3.8503 C.ar    1  UNL1       -0.0416
     10 C           0.9232   -5.3038    5.1888 C.ar    1  UNL1        0.0411
     11 CL         -0.0167   -6.2009    6.3181 Cl      1  UNL1       -0.0835
     12 C           2.0439   -4.5852    5.6083 C.ar    1  UNL1       -0.0416
     13 C           2.7835   -3.8094    4.6890 C.ar    1  UNL1       -0.0391
     14 C           3.2285    0.9621   -0.7084 C.ar    1  UNL1        0.0408
     15 C           2.8332    2.3237   -0.8453 C.ar    1  UNL1       -0.0459
     16 C           3.6092    3.2346   -1.5712 C.ar    1  UNL1       -0.0154
     17 C           4.7436    2.7458   -2.1769 C.ar    1  UNL1        0.1663
     18 C           5.0870    1.4127   -2.1032 C.ar    1  UNL1        0.1669
     19 C           4.3495    0.4900   -1.3868 C.ar    1  UNL1       -0.0040
     20 O           6.2204    1.1338   -2.8022 O.3     1  UNL1       -0.4526
     21 C           6.5274    2.4319   -3.3548 C.3     1  UNL1        0.2332
     22 O           5.6362    3.4715   -2.9014 O.3     1  UNL1       -0.4526
     23 H           3.9187   -0.9899    0.9328 H       1  UNL1        0.1568
     24 H           3.9309   -2.5400    2.6343 H       1  UNL1        0.1538
     25 H           0.9976   -4.5544    1.8969 H       1  UNL1        0.0636
     26 H          -0.3122   -5.8425    3.5041 H       1  UNL1        0.0633
     27 H           2.3195   -4.5996    6.6611 H       1  UNL1        0.0633
     28 H           3.6099   -3.2169    5.0703 H       1  UNL1        0.0636
     29 H           1.9027    2.6710   -0.3919 H       1  UNL1        0.0626
     30 H           3.3277    4.2795   -1.6594 H       1  UNL1        0.0655
     31 H           4.6137   -0.5584   -1.4009 H       1  UNL1        0.0663
     32 H           6.4594    2.3706   -4.4468 H       1  UNL1        0.1166
     33 H           7.5555    2.6942   -3.0799 H       1  UNL1        0.1166
@<TRIPOS>BOND
     1     1     2    2
     2     2     3   am
     3     3     4    1
     4     4     5    2
     5     4     6    1
     6     6     7    1
     7     7     8   ar
     8     8     9   ar
     9     9    10   ar
    10    10    11    1
    11    10    12   ar
    12    12    13   ar
    13     7    13   ar
    14     2    14    1
    15    14    15   ar
    16    15    16   ar
    17    16    17   ar
    18    17    18   ar
    19    18    19   ar
    20    14    19   ar
    21    18    20    1
    22    20    21    1
    23    21    22    1
    24    17    22    1
    25     3    23    1
    26     6    24    1
    27     8    25    1
    28     9    26    1
    29    12    27    1
    30    13    28    1
    31    15    29    1
    32    16    30    1
    33    19    31    1
    34    21    32    1
    35    21    33    1
