REMARK  11 active torsions:
REMARK  status: ('A' for Active; 'I' for Inactive)
REMARK    1  A    between atoms: C_2  and  C_3 
REMARK    2  A    between atoms: C_3  and  N_4 
REMARK    3  A    between atoms: C_5  and  S_6 
REMARK    4  A    between atoms: S_6  and  C_7 
REMARK    5  A    between atoms: C_7  and  C_8 
REMARK       I    between atoms: C_8  and  N_10 
REMARK    6  A    between atoms: N_10  and  C_11 
REMARK    7  A    between atoms: C_13  and  C_14 
REMARK    8  A    between atoms: C_14  and  O_16 
REMARK    9  A    between atoms: O_16  and  C_17 
REMARK   10  A    between atoms: C_26  and  C_27 
REMARK   11  A    between atoms: C_30  and  N_31 
ROOT
ATOM      1  C   UNL d   1       0.978   5.921  -1.235  0.00  0.00     0.099 A 
ATOM      2  S   UNL d   1      -0.481   6.520  -0.504  0.00  0.00    -0.064 SA
ATOM      3  C   UNL d   1      -0.235   8.201  -1.036  0.00  0.00     0.089 A 
ATOM      4  C   UNL d   1       0.900   8.223  -1.843  0.00  0.00    -0.015 A 
ATOM      5  C   UNL d   1       1.444   9.399  -2.580  0.00  0.00     0.051 C 
ATOM      6  C   UNL d   1       1.578   6.943  -1.937  0.00  0.00     0.086 A 
ATOM      7  C   UNL d   1       2.725   6.748  -2.775  0.00  0.00     0.103 C 
ATOM      8  N   UNL d   1       3.626   6.621  -3.506  0.00  0.00    -0.191 NA
ENDROOT
BRANCH   1   9
ATOM      9  N   UNL d   1       1.382   4.558  -1.109  0.00  0.00    -0.319 N 
ATOM     10  C   UNL d   1       2.766   4.230  -0.984  0.00  0.00     0.232 C 
ATOM     11  O   UNL d   1       3.612   5.103  -0.789  0.00  0.00    -0.272 OA
ATOM     12  H   UNL d   1       0.665   3.845  -1.023  0.00  0.00     0.169 HD
BRANCH  10  13
ATOM     13  C   UNL d   1       3.156   2.716  -0.974  0.00  0.00     0.185 C 
BRANCH  13  14
ATOM     14  S   UNL d   1       4.938   2.377  -0.738  0.00  0.00    -0.081 SA
BRANCH  14  15
ATOM     15  C   UNL d   1       5.382   0.671  -0.666  0.00  0.00     0.192 A 
ATOM     16  N   UNL d   1       4.650  -0.499  -0.741  0.00  0.00    -0.304 N 
ATOM     17  C   UNL d   1       5.559  -1.552  -0.603  0.00  0.00     0.164 A 
ATOM     18  N   UNL d   1       6.757  -1.034  -0.432  0.00  0.00    -0.128 NA
ATOM     19  N   UNL d   1       6.648   0.335  -0.482  0.00  0.00    -0.122 NA
BRANCH  16  20
ATOM     20  C   UNL d   1       3.228  -0.720  -0.918  0.00  0.00     0.159 C 
BRANCH  20  21
ATOM     21  C   UNL d   1       2.378   0.001   0.071  0.00  0.00    -0.017 C 
ATOM     22  C   UNL d   1       1.041   0.053   0.013  0.00  0.00     0.008 C 
ENDBRANCH  20  21
ENDBRANCH  16  20
BRANCH  17  23
ATOM     23  C   UNL d   1       5.274  -3.001  -0.652  0.00  0.00     0.012 A 
ATOM     24  C   UNL d   1       5.646  -3.839   0.413  0.00  0.00     0.018 A 
ATOM     25  C   UNL d   1       5.511  -5.235   0.318  0.00  0.00     0.037 A 
ATOM     26  C   UNL d   1       4.897  -5.798  -0.806  0.00  0.00     0.102 A 
ATOM     27  C   UNL d   1       4.508  -4.980  -1.872  0.00  0.00     0.037 A 
ATOM     28  C   UNL d   1       4.710  -3.593  -1.794  0.00  0.00     0.018 A 
BRANCH  26  29
ATOM     29  N   UNL d   1       4.599  -7.240  -0.837  0.00  0.00    -0.116 N 
ATOM     30  O   UNL d   1       4.929  -7.919   0.146  0.00  0.00    -0.532 OA
ATOM     31  O   UNL d   1       3.998  -7.682  -1.826  0.00  0.00    -0.532 OA
ENDBRANCH  26  29
ENDBRANCH  17  23
ENDBRANCH  14  15
ENDBRANCH  13  14
ENDBRANCH  10  13
ENDBRANCH   1   9
BRANCH   3  32
ATOM     32  C   UNL d   1      -1.166   9.332  -0.659  0.00  0.00     0.300 C 
ATOM     33  O   UNL d   1      -2.145   9.249   0.075  0.00  0.00    -0.259 OA
BRANCH  32  34
ATOM     34  O   UNL d   1      -0.799  10.538  -1.244  0.00  0.00    -0.317 OA
BRANCH  34  35
ATOM     35  C   UNL d   1      -1.573  11.753  -1.004  0.00  0.00     0.174 C 
ATOM     36  C   UNL d   1      -0.990  12.963  -1.757  0.00  0.00     0.034 C 
ENDBRANCH  34  35
ENDBRANCH  32  34
ENDBRANCH   3  32
TORSDOF 11
