@<TRIPOS>MOLECULE
*****
 42 42 0 0 0
SMALL
GASTEIGER

@<TRIPOS>ATOM
      1 C           2.4908    1.1839   -0.0006 C.3     1  UNL1       -0.0396
      2 C           1.2485    0.3400    0.0042 C.ar    1  UNL1       -0.0470
      3 C           1.2984   -1.0563    0.0182 C.ar    1  UNL1       -0.0579
      4 C           0.1164   -1.8197   -0.0006 C.ar    1  UNL1       -0.0458
      5 C          -1.1466   -1.2041   -0.0229 C.ar    1  UNL1        0.0795
      6 C          -2.4291   -1.9956   -0.0597 C.2     1  UNL1        0.2637
      7 O          -3.5100   -1.3964   -0.0683 O.2     1  UNL1       -0.2685
      8 N          -2.3558   -3.3781   -0.0853 N.am    1  UNL1       -0.2303
      9 N          -3.5320   -4.1675   -0.1017 N.am    1  UNL1       -0.2341
     10 C          -3.3662   -5.5387   -0.1848 C.2     1  UNL1        0.2293
     11 O          -2.2377   -6.0276   -0.2704 O.2     1  UNL1       -0.2743
     12 C          -4.6517   -6.3695   -0.1758 C.3     1  UNL1        0.0282
     13 C          -4.3937   -7.9041   -0.1679 C.3     1  UNL1       -0.0333
     14 C          -3.6206   -8.3021    1.1027 C.3     1  UNL1       -0.0617
     15 C          -5.7056   -8.7458   -0.2660 C.3     1  UNL1       -0.0437
     16 C          -6.5199   -8.4125   -1.5192 C.3     1  UNL1       -0.0624
     17 C          -5.4151  -10.2571   -0.2767 C.3     1  UNL1       -0.0624
     18 C          -1.1804    0.2039   -0.0127 C.ar    1  UNL1        0.1292
     19 O          -2.3367    0.9417   -0.0046 O.3     1  UNL1       -0.5060
     20 C          -0.0027    0.9617   -0.0069 C.ar    1  UNL1       -0.0165
     21 H           3.4012    0.5759    0.0031 H       1  UNL1        0.0278
     22 H           2.5122    1.8288    0.8844 H       1  UNL1        0.0278
     23 H           2.5129    1.8142   -0.8966 H       1  UNL1        0.0278
     24 H           2.2590   -1.5691    0.0406 H       1  UNL1        0.0620
     25 H           0.2289   -2.8981    0.0027 H       1  UNL1        0.0626
     26 H          -1.4934   -3.9193   -0.0840 H       1  UNL1        0.1731
     27 H          -4.4264   -3.6825   -0.1290 H       1  UNL1        0.1728
     28 H          -5.2051   -6.0836   -1.0767 H       1  UNL1        0.0361
     29 H          -5.2633   -6.0960    0.6925 H       1  UNL1        0.0361
     30 H          -3.7707   -8.1484   -1.0395 H       1  UNL1        0.0305
     31 H          -4.2233   -8.1101    1.9958 H       1  UNL1        0.0233
     32 H          -2.6809   -7.7594    1.2106 H       1  UNL1        0.0233
     33 H          -3.3370   -9.3573    1.0939 H       1  UNL1        0.0233
     34 H          -6.3290   -8.5301    0.6122 H       1  UNL1        0.0298
     35 H          -5.9377   -8.6116   -2.4251 H       1  UNL1        0.0232
     36 H          -6.8355   -7.3667   -1.5342 H       1  UNL1        0.0232
     37 H          -7.4323   -9.0176   -1.5622 H       1  UNL1        0.0232
     38 H          -4.7836  -10.5257   -1.1308 H       1  UNL1        0.0232
     39 H          -6.3417  -10.8368   -0.3407 H       1  UNL1        0.0232
     40 H          -4.9115  -10.5898    0.6348 H       1  UNL1        0.0232
     41 H          -3.0972    0.3216   -0.0006 H       1  UNL1        0.2922
     42 H          -0.0664    2.0485   -0.0119 H       1  UNL1        0.0657
@<TRIPOS>BOND
     1     1     2    1
     2     2     3   ar
     3     3     4   ar
     4     4     5   ar
     5     5     6    1
     6     6     7    2
     7     6     8   am
     8     8     9    1
     9     9    10   am
    10    10    11    2
    11    10    12    1
    12    12    13    1
    13    13    14    1
    14    13    15    1
    15    15    16    1
    16    15    17    1
    17     5    18   ar
    18    18    19    1
    19    18    20   ar
    20     2    20   ar
    21     1    21    1
    22     1    22    1
    23     1    23    1
    24     3    24    1
    25     4    25    1
    26     8    26    1
    27     9    27    1
    28    12    28    1
    29    12    29    1
    30    13    30    1
    31    14    31    1
    32    14    32    1
    33    14    33    1
    34    15    34    1
    35    16    35    1
    36    16    36    1
    37    16    37    1
    38    17    38    1
    39    17    39    1
    40    17    40    1
    41    19    41    1
    42    20    42    1
