@<TRIPOS>MOLECULE
*****
 44 45 0 0 0
SMALL
GASTEIGER

@<TRIPOS>ATOM
      1 C          -2.5704    0.5908    0.0038 C.3     1  UNL1       -0.0362
      2 C          -1.2124   -0.0457   -0.0075 C.ar    1  UNL1       -0.0085
      3 C          -1.1166   -1.4395   -0.0226 C.ar    1  UNL1       -0.0507
      4 C           0.1137   -2.1069   -0.0002 C.ar    1  UNL1       -0.0296
      5 C           0.2155   -3.6252    0.0101 C.3     1  UNL1        0.0372
      6 N          -1.0680   -4.3253   -0.0288 N.am    1  UNL1       -0.3072
      7 C          -1.1870   -5.6887    0.0342 C.2     1  UNL1        0.2446
      8 O          -0.2375   -6.4589    0.1200 O.2     1  UNL1       -0.2702
      9 C          -2.5803   -6.2344   -0.0185 C.ar    1  UNL1        0.0449
     10 C          -2.8934   -7.3645    0.7500 C.ar    1  UNL1        0.0278
     11 C          -4.1219   -8.0178    0.5525 C.ar    1  UNL1        0.2757
     12 N          -4.3494   -9.3407    1.1557 N.pl3   1  UNL1        0.0797
     13 O          -3.4596   -9.8085    1.8769 O.2     1  UNL1        0.0414
     14 O          -5.3996   -9.9282    0.8587 O.co2   1  UNL1       -0.5760
     15 C          -5.0862   -7.4989   -0.3245 C.ar    1  UNL1        0.0404
     16 C          -4.7651   -6.3712   -1.0817 C.ar    1  UNL1        0.0950
     17 S          -5.9393   -5.7586   -2.2784 S.O2    1  UNL1       -0.0056
     18 C          -6.2224   -7.0945   -3.4172 C.3     1  UNL1        0.0596
     19 O          -7.1671   -5.5117   -1.5438 O.2     1  UNL1       -0.1696
     20 O          -5.2782   -4.6967   -3.0058 O.2     1  UNL1       -0.1696
     21 C          -3.5221   -5.7325   -0.9318 C.ar    1  UNL1       -0.0243
     22 C           1.2771   -1.3108    0.0169 C.ar    1  UNL1       -0.0507
     23 C           1.2106    0.1026    0.0053 C.ar    1  UNL1       -0.0085
     24 C           2.4761    0.9121   -0.0217 C.3     1  UNL1       -0.0362
     25 C          -0.0479    0.7182    0.0031 C.ar    1  UNL1        0.1227
     26 O          -0.2130    2.0761    0.0055 O.3     1  UNL1       -0.5062
     27 H          -3.3638   -0.1646   -0.0235 H       1  UNL1        0.0279
     28 H          -2.6941    1.2327   -0.8725 H       1  UNL1        0.0279
     29 H          -2.7011    1.1736    0.9201 H       1  UNL1        0.0279
     30 H          -2.0543   -1.9768   -0.0524 H       1  UNL1        0.0625
     31 H           0.7470   -3.9490    0.9134 H       1  UNL1        0.0512
     32 H           0.7953   -3.9579   -0.8597 H       1  UNL1        0.0512
     33 H          -1.9181   -3.7915   -0.0039 H       1  UNL1        0.1493
     34 H          -2.1641   -7.7428    1.4665 H       1  UNL1        0.0693
     35 H          -6.0602   -7.9759   -0.4300 H       1  UNL1        0.0704
     36 H          -6.6605   -7.9457   -2.8934 H       1  UNL1        0.0468
     37 H          -5.2820   -7.3727   -3.8964 H       1  UNL1        0.0468
     38 H          -6.9259   -6.7421   -4.1774 H       1  UNL1        0.0468
     39 H          -3.2749   -4.8762   -1.5561 H       1  UNL1        0.0644
     40 H           2.2549   -1.7934    0.0340 H       1  UNL1        0.0625
     41 H           3.3670    0.2770   -0.0182 H       1  UNL1        0.0279
     42 H           2.5287    1.5668    0.8546 H       1  UNL1        0.0279
     43 H           2.5079    1.5231   -0.9306 H       1  UNL1        0.0279
     44 H           0.6473    2.5190    0.0205 H       1  UNL1        0.2922
@<TRIPOS>UNITY_ATOM_ATTR
12 1
charge 1
14 1
charge -1
@<TRIPOS>BOND
     1     1     2    1
     2     2     3   ar
     3     3     4   ar
     4     4     5    1
     5     5     6    1
     6     6     7   am
     7     7     8    2
     8     7     9    1
     9     9    10   ar
    10    10    11   ar
    11    11    12    1
    12    12    13    2
    13    12    14    1
    14    11    15   ar
    15    15    16   ar
    16    16    17    1
    17    17    18    1
    18    17    19    2
    19    17    20    2
    20    16    21   ar
    21     9    21   ar
    22     4    22   ar
    23    22    23   ar
    24    23    24    1
    25    23    25   ar
    26     2    25   ar
    27    25    26    1
    28     1    27    1
    29     1    28    1
    30     1    29    1
    31     3    30    1
    32     5    31    1
    33     5    32    1
    34     6    33    1
    35    10    34    1
    36    15    35    1
    37    18    36    1
    38    18    37    1
    39    18    38    1
    40    21    39    1
    41    22    40    1
    42    24    41    1
    43    24    42    1
    44    24    43    1
    45    26    44    1
