@<TRIPOS>MOLECULE
*****
 35 36 0 0 0
SMALL
GASTEIGER

@<TRIPOS>ATOM
      1 O           1.0824   -0.1949    0.1551 O.2     1  UNL1       -0.2705
      2 C           2.3109   -0.1064    0.1187 C.2     1  UNL1        0.2667
      3 C           3.0371    1.1191   -0.4524 C.3     1  UNL1        0.1666
      4 O           2.1325    2.1641   -0.8208 O.3     1  UNL1       -0.4827
      5 C           2.6831    3.2259   -1.4900 C.ar    1  UNL1        0.1212
      6 C           2.1400    4.4892   -1.2321 C.ar    1  UNL1       -0.0199
      7 C           2.5935    5.6125   -1.9339 C.ar    1  UNL1       -0.0583
      8 C           3.6250    5.4849   -2.8620 C.ar    1  UNL1       -0.0615
      9 C           4.1581    4.2275   -3.1318 C.ar    1  UNL1       -0.0583
     10 C           3.6738    3.1004   -2.4638 C.ar    1  UNL1       -0.0199
     11 N           3.0804   -1.1489    0.5976 N.am    1  UNL1       -0.2313
     12 N           4.4813   -1.2356    0.5382 N.am    1  UNL1       -0.2302
     13 C           5.1086   -2.3498    1.0782 C.2     1  UNL1        0.2637
     14 O           4.5012   -3.3404    1.4931 O.2     1  UNL1       -0.2685
     15 C           6.5996   -2.3142    1.1341 C.ar    1  UNL1        0.0795
     16 C           7.3227   -3.4851    0.8520 C.ar    1  UNL1       -0.0460
     17 C           8.7127   -3.5182    1.0179 C.ar    1  UNL1       -0.0608
     18 C           9.3941   -2.3728    1.4272 C.ar    1  UNL1       -0.0583
     19 C           8.6869   -1.1983    1.6932 C.ar    1  UNL1       -0.0194
     20 C           7.2964   -1.1688    1.5390 C.ar    1  UNL1        0.1290
     21 O           6.6132   -0.0081    1.7847 O.3     1  UNL1       -0.5060
     22 H           3.6094    0.7536   -1.3098 H       1  UNL1        0.0795
     23 H           3.7110    1.5096    0.3180 H       1  UNL1        0.0795
     24 H           1.3602    4.6082   -0.4832 H       1  UNL1        0.0654
     25 H           2.1371    6.5853   -1.7658 H       1  UNL1        0.0619
     26 H           4.0036    6.3595   -3.3850 H       1  UNL1        0.0618
     27 H           4.9359    4.1147   -3.8821 H       1  UNL1        0.0619
     28 H           4.0668    2.1335   -2.7528 H       1  UNL1        0.0654
     29 H           2.5899   -1.9644    0.9686 H       1  UNL1        0.1729
     30 H           5.0361   -0.4053    0.3534 H       1  UNL1        0.1731
     31 H           6.8079   -4.3778    0.5011 H       1  UNL1        0.0626
     32 H           9.2637   -4.4416    0.8466 H       1  UNL1        0.0618
     33 H          10.4770   -2.3971    1.5390 H       1  UNL1        0.0619
     34 H           9.2373   -0.3252    2.0326 H       1  UNL1        0.0654
     35 H           7.2327    0.6557    2.1355 H       1  UNL1        0.2922
@<TRIPOS>BOND
     1     1     2    2
     2     2     3    1
     3     3     4    1
     4     4     5    1
     5     5     6   ar
     6     6     7   ar
     7     7     8   ar
     8     8     9   ar
     9     9    10   ar
    10     5    10   ar
    11     2    11   am
    12    11    12    1
    13    12    13   am
    14    13    14    2
    15    13    15    1
    16    15    16   ar
    17    16    17   ar
    18    17    18   ar
    19    18    19   ar
    20    19    20   ar
    21    15    20   ar
    22    20    21    1
    23     3    22    1
    24     3    23    1
    25     6    24    1
    26     7    25    1
    27     8    26    1
    28     9    27    1
    29    10    28    1
    30    11    29    1
    31    12    30    1
    32    16    31    1
    33    17    32    1
    34    18    33    1
    35    19    34    1
    36    21    35    1
