@<TRIPOS>MOLECULE
*****
 56 57 0 0 0
SMALL
GASTEIGER

@<TRIPOS>ATOM
      1 C           1.1283   -0.0665   -0.0591 C.3     1  UNL1        0.0820
      2 O           2.5631   -0.0482   -0.0549 O.3     1  UNL1       -0.4645
      3 C           3.1209   -1.0532    0.6599 C.2     1  UNL1        0.3389
      4 O           2.5158   -1.9275    1.2754 O.2     1  UNL1       -0.2450
      5 C           4.6005   -0.9756    0.6357 C.ar    1  UNL1        0.0597
      6 C           5.3320   -2.1729    0.5989 C.ar    1  UNL1       -0.0477
      7 C           6.7111   -2.1459    0.7769 C.ar    1  UNL1       -0.0603
      8 C           7.3585   -0.9165    0.9309 C.ar    1  UNL1       -0.0496
      9 C           6.6404    0.3066    0.9581 C.ar    1  UNL1        0.0378
     10 C           7.4304    1.5624    1.2137 C.2     1  UNL1        0.2496
     11 O           8.6420    1.3922    1.3351 O.2     1  UNL1       -0.2698
     12 N           6.7973    2.8257    1.3199 N.am    1  UNL1       -0.2627
     13 C           7.4331    4.0646    1.5656 C.2     1  UNL1        0.1533
     14 S           9.0937    4.2805    1.7853 S.2     1  UNL1       -0.0170
     15 N           6.5758    5.1800    1.6238 N.am    1  UNL1       -0.2453
     16 N           7.1558    6.4879    1.8517 N.am    1  UNL1       -0.2311
     17 C           6.3793    7.6315    1.9921 C.2     1  UNL1        0.2601
     18 O           5.1546    7.6232    1.9142 O.2     1  UNL1       -0.2687
     19 C           7.1123    8.9310    2.2111 C.ar    1  UNL1        0.0383
     20 C           6.5962    9.9539    3.0310 C.ar    1  UNL1       -0.0478
     21 C           7.2103   11.2361    3.0994 C.ar    1  UNL1       -0.0398
     22 C           8.3893   11.4949    2.3932 C.ar    1  UNL1        0.0334
     23 N           9.0843   12.7425    2.5361 N.am    1  UNL1       -0.2855
     24 C          10.3484   12.9675    2.0039 C.2     1  UNL1        0.2174
     25 O          10.9974   12.1102    1.4060 O.2     1  UNL1       -0.2755
     26 C          10.9848   14.3375    2.2117 C.3     1  UNL1        0.0266
     27 C          12.2963   14.4252    1.3761 C.3     1  UNL1       -0.0385
     28 C          12.0229   14.3157   -0.1338 C.3     1  UNL1       -0.0622
     29 C          13.0523   15.7238    1.6398 C.3     1  UNL1       -0.0622
     30 C           8.8601   10.4691    1.5603 C.ar    1  UNL1       -0.0398
     31 C           8.2560    9.2085    1.4760 C.ar    1  UNL1       -0.0478
     32 C           5.2526    0.2628    0.8031 C.ar    1  UNL1       -0.0356
     33 H           0.7736    0.7442   -0.7025 H       1  UNL1        0.0661
     34 H           0.7408    0.1041    0.9510 H       1  UNL1        0.0661
     35 H           0.7471   -1.0120   -0.4606 H       1  UNL1        0.0661
     36 H           4.8292   -3.1282    0.4529 H       1  UNL1        0.0626
     37 H           7.2808   -3.0738    0.8260 H       1  UNL1        0.0618
     38 H           8.4453   -0.9259    1.0457 H       1  UNL1        0.0625
     39 H           5.7959    2.8520    1.2190 H       1  UNL1        0.1569
     40 H           5.5650    5.1763    1.5003 H       1  UNL1        0.1718
     41 H           8.1674    6.4915    1.9881 H       1  UNL1        0.1731
     42 H           5.7074    9.7606    3.6292 H       1  UNL1        0.0626
     43 H           6.7367   12.0111    3.6999 H       1  UNL1        0.0636
     44 H           8.6937   13.4347    3.1662 H       1  UNL1        0.1548
     45 H          11.2232   14.4435    3.2774 H       1  UNL1        0.0361
     46 H          10.2978   15.1400    1.9251 H       1  UNL1        0.0361
     47 H          12.9577   13.5957    1.6678 H       1  UNL1        0.0300
     48 H          11.3796   15.1340   -0.4690 H       1  UNL1        0.0232
     49 H          11.5287   13.3821   -0.4160 H       1  UNL1        0.0232
     50 H          12.9585   14.3469   -0.7015 H       1  UNL1        0.0232
     51 H          12.4527   16.5893    1.3428 H       1  UNL1        0.0232
     52 H          13.9847   15.7467    1.0621 H       1  UNL1        0.0232
     53 H          13.3129   15.8240    2.6970 H       1  UNL1        0.0232
     54 H           9.7133   10.6043    0.9070 H       1  UNL1        0.0636
     55 H           8.6900    8.4892    0.7883 H       1  UNL1        0.0626
     56 H           4.6509    1.1599    0.8479 H       1  UNL1        0.0633
@<TRIPOS>BOND
     1     1     2    1
     2     2     3    1
     3     3     4    2
     4     3     5    1
     5     5     6   ar
     6     6     7   ar
     7     7     8   ar
     8     8     9   ar
     9     9    10    1
    10    10    11    2
    11    10    12   am
    12    12    13    1
    13    13    14    2
    14    13    15    1
    15    15    16    1
    16    16    17   am
    17    17    18    2
    18    17    19    1
    19    19    20   ar
    20    20    21   ar
    21    21    22   ar
    22    22    23    1
    23    23    24   am
    24    24    25    2
    25    24    26    1
    26    26    27    1
    27    27    28    1
    28    27    29    1
    29    22    30   ar
    30    30    31   ar
    31    19    31   ar
    32     9    32   ar
    33     5    32   ar
    34     1    33    1
    35     1    34    1
    36     1    35    1
    37     6    36    1
    38     7    37    1
    39     8    38    1
    40    12    39    1
    41    15    40    1
    42    16    41    1
    43    20    42    1
    44    21    43    1
    45    23    44    1
    46    26    45    1
    47    26    46    1
    48    27    47    1
    49    28    48    1
    50    28    49    1
    51    28    50    1
    52    29    51    1
    53    29    52    1
    54    29    53    1
    55    30    54    1
    56    31    55    1
    57    32    56    1
