REMARK  5 active torsions:
REMARK  status: ('A' for Active; 'I' for Inactive)
REMARK       I    between atoms: N_1  and  C_2 
REMARK    1  A    between atoms: C_2  and  C_4 
REMARK    2  A    between atoms: C_4  and  C_5 
REMARK    3  A    between atoms: C_6  and  C_5 
REMARK    4  A    between atoms: N_22  and  C_23 
REMARK    5  A    between atoms: C_23  and  C_24 
ROOT
ATOM      1  C   UNL d   1       5.495  -1.141  -2.063  0.00  0.00     0.237 A 
ATOM      2  N   UNL d   1       5.593  -2.591  -1.760  0.00  0.00     0.113 N 
ATOM      3  C   UNL d   1       4.891  -3.345  -2.806  0.00  0.00     0.279 A 
ATOM      4  C   UNL d   1       3.766  -4.253  -2.233  0.00  0.00     0.267 C 
ATOM      5  O   UNL d   1       2.832  -3.898  -1.529  0.00  0.00    -0.270 OA
ATOM      6  N   UNL d   1       3.966  -5.524  -2.755  0.00  0.00    -0.324 N 
ATOM      7  C   UNL d   1       5.141  -5.583  -3.495  0.00  0.00     0.044 A 
ATOM      8  C   UNL d   1       5.631  -6.644  -4.223  0.00  0.00     0.032 A 
ATOM      9  C   UNL d   1       6.793  -6.432  -4.979  0.00  0.00     0.026 A 
ATOM     10  C   UNL d   1       7.440  -5.184  -4.976  0.00  0.00     0.034 A 
ATOM     11 CL   UNL d   1       8.790  -4.919  -6.012  0.00  0.00    -0.084 Cl
ATOM     12  C   UNL d   1       6.957  -4.134  -4.199  0.00  0.00     0.036 A 
ATOM     13  C   UNL d   1       5.786  -4.347  -3.477  0.00  0.00     0.019 A 
ATOM     14  C   UNL d   1       4.173  -2.385  -3.728  0.00  0.00     0.147 A 
ATOM     15  C   UNL d   1       4.577  -2.421  -5.176  0.00  0.00     0.235 C 
ATOM     16  O   UNL d   1       4.854  -3.412  -5.833  0.00  0.00    -0.272 OA
ATOM     17  N   UNL d   1       4.601  -1.161  -5.672  0.00  0.00    -0.283 N 
ATOM     18  C   UNL d   1       4.914  -0.398  -4.591  0.00  0.00     0.234 C 
ATOM     19  O   UNL d   1       5.461   0.698  -4.562  0.00  0.00    -0.272 OA
ATOM     20  C   UNL d   1       4.536  -1.008  -3.266  0.00  0.00     0.128 A 
ATOM     21  H   UNL d   1       5.200  -2.815  -0.842  0.00  0.00     0.318 HD
ATOM     22  H   UNL d   1       3.320  -6.283  -2.601  0.00  0.00     0.169 HD
ENDROOT
BRANCH   1  23
ATOM     23  C   UNL d   1       6.923  -0.567  -2.150  0.00  0.00     0.045 C 
BRANCH  23  24
ATOM     24  C   UNL d   1       7.087   0.955  -2.290  0.00  0.00     0.105 C 
BRANCH  24  25
ATOM     25  C   UNL d   1       8.537   1.347  -2.466  0.00  0.00     0.215 C 
ATOM     26  N   UNL d   1       8.724   2.660  -2.801  0.00  0.00    -0.370 N 
ATOM     27  H   UNL d   1       9.662   2.933  -3.063  0.00  0.00     0.159 HD
ATOM     28  H   UNL d   1       7.958   3.248  -3.108  0.00  0.00     0.159 HD
ATOM     29  O   UNL d   1       9.485   0.578  -2.367  0.00  0.00    -0.274 OA
ENDBRANCH  24  25
ENDBRANCH  23  24
ENDBRANCH   1  23
BRANCH  17  30
ATOM     30  C   UNL d   1       4.913  -1.086  -7.147  0.00  0.00     0.175 C 
BRANCH  30  31
ATOM     31  C   UNL d   1       4.369   0.012  -8.055  0.00  0.00    -0.018 C 
ATOM     32  C   UNL d   1       3.816  -0.280  -9.342  0.00  0.00     0.010 C 
ATOM     33  C   UNL d   1       3.626   0.741 -10.302  0.00  0.00     0.001 C 
ATOM     34  C   UNL d   1       3.822   2.069  -9.955  0.00  0.00     0.002 C 
ATOM     35  C   UNL d   1       4.202   2.371  -8.669  0.00  0.00     0.024 C 
ATOM     36  C   UNL d   1       4.601   1.364  -7.801  0.00  0.00     0.042 C 
ATOM     37 CL   UNL d   1       5.688   2.003  -6.654  0.00  0.00    -0.084 Cl
ENDBRANCH  30  31
ENDBRANCH  17  30
TORSDOF 5
