@<TRIPOS>MOLECULE
*****
 45 46 0 0 0
SMALL
GASTEIGER

@<TRIPOS>ATOM
      1 C           1.8653    1.4643   -0.0107 C.3     1  UNL1       -0.0394
      2 C           0.5829    0.6675    0.0086 C.ar    1  UNL1       -0.0458
      3 C          -0.6108    1.4030    0.0280 C.ar    1  UNL1       -0.0585
      4 C          -1.8232    0.7511    0.0197 C.ar    1  UNL1       -0.0597
      5 C          -1.8556   -0.6340   -0.0381 C.ar    1  UNL1       -0.0402
      6 C          -0.7046   -1.4348   -0.0565 C.ar    1  UNL1        0.0366
      7 N          -0.8513   -2.8637   -0.1873 N.am    1  UNL1       -0.2840
      8 C          -2.0813   -3.5355   -0.2535 C.2     1  UNL1        0.2343
      9 O          -3.1717   -3.0495    0.0664 O.2     1  UNL1       -0.2738
     10 C          -2.0996   -5.0091   -0.7152 C.3     1  UNL1        0.0861
     11 N          -3.4177   -5.5916   -0.5421 N.pl3   1  UNL1       -0.3345
     12 C          -3.5139   -6.9443   -0.1740 C.ar    1  UNL1        0.0411
     13 C          -4.5542   -7.5630   -0.9062 C.ar    1  UNL1       -0.0398
     14 C          -4.8818   -8.9025   -0.7734 C.ar    1  UNL1       -0.0600
     15 C          -4.1374   -9.6893    0.0842 C.ar    1  UNL1       -0.0606
     16 C          -3.1225   -9.1070    0.8622 C.ar    1  UNL1       -0.0465
     17 C          -2.7960   -7.7171    0.7924 C.ar    1  UNL1        0.0292
     18 S          -1.4647   -7.3129    2.0301 S.3     1  UNL1       -0.1141
     19 C          -1.0412   -5.5461    1.9070 C.3     1  UNL1        0.0746
     20 C           0.0453   -4.9440    2.7150 C.2     1  UNL1        0.2207
     21 N           0.7775   -5.8073    3.4328 N.am    1  UNL1       -0.3286
     22 O           0.3886   -3.7601    2.5543 O.2     1  UNL1       -0.2751
     23 C           0.5533   -0.7686   -0.0065 C.ar    1  UNL1       -0.0263
     24 C           1.8823   -1.4866    0.0209 C.3     1  UNL1       -0.0377
     25 H           1.6638    2.5436   -0.0239 H       1  UNL1        0.0278
     26 H           2.4426    1.2411   -0.9128 H       1  UNL1        0.0278
     27 H           2.4622    1.2593    0.8815 H       1  UNL1        0.0278
     28 H          -0.6090    2.4898    0.0464 H       1  UNL1        0.0620
     29 H          -2.7613    1.2963    0.0416 H       1  UNL1        0.0618
     30 H          -2.8521   -1.0469   -0.0716 H       1  UNL1        0.0636
     31 H           0.0017   -3.4038   -0.1073 H       1  UNL1        0.1549
     32 H          -1.5564   -5.6398   -0.0927 H       1  UNL1        0.0557
     33 H          -1.5811   -5.2127   -1.6497 H       1  UNL1        0.0557
     34 H          -4.0642   -4.9819   -0.0274 H       1  UNL1        0.1466
     35 H          -5.0785   -6.9662   -1.6532 H       1  UNL1        0.0636
     36 H          -5.6993   -9.3132   -1.3580 H       1  UNL1        0.0618
     37 H          -4.3498  -10.7545    0.1458 H       1  UNL1        0.0618
     38 H          -2.5872   -9.7778    1.5366 H       1  UNL1        0.0629
     39 H          -1.9389   -4.9311    1.9838 H       1  UNL1        0.0474
     40 H          -0.4341   -5.4589    1.0029 H       1  UNL1        0.0474
     41 H           0.5352   -6.7906    3.3884 H       1  UNL1        0.1450
     42 H           1.6149   -5.4806    3.8876 H       1  UNL1        0.1450
     43 H           1.7917   -2.5726    0.0329 H       1  UNL1        0.0278
     44 H           2.4458   -1.2066    0.9200 H       1  UNL1        0.0278
     45 H           2.4776   -1.2204   -0.8604 H       1  UNL1        0.0278
@<TRIPOS>BOND
     1     1     2    1
     2     2     3   ar
     3     3     4   ar
     4     4     5   ar
     5     5     6   ar
     6     6     7    1
     7     7     8   am
     8     8     9    2
     9     8    10    1
    10    10    11    1
    11    11    12    1
    12    12    13   ar
    13    13    14   ar
    14    14    15   ar
    15    15    16   ar
    16    16    17   ar
    17    12    17   ar
    18    17    18    1
    19    18    19    1
    20    19    20    1
    21    20    21   am
    22    20    22    2
    23     6    23   ar
    24     2    23   ar
    25    23    24    1
    26     1    25    1
    27     1    26    1
    28     1    27    1
    29     3    28    1
    30     4    29    1
    31     5    30    1
    32     7    31    1
    33    10    32    1
    34    10    33    1
    35    11    34    1
    36    13    35    1
    37    14    36    1
    38    15    37    1
    39    16    38    1
    40    19    39    1
    41    19    40    1
    42    21    41    1
    43    21    42    1
    44    24    43    1
    45    24    44    1
    46    24    45    1
