@<TRIPOS>MOLECULE
*****
 44 46 0 0 0
SMALL
GASTEIGER

@<TRIPOS>ATOM
      1 C           8.2410    5.4791    0.0774 C.3     1  UNL1       -0.0376
      2 C           7.8059    4.0319    0.0423 C.2     1  UNL1       -0.0147
      3 C           7.0744    3.4988   -0.9624 C.2     1  UNL1        0.1175
      4 C           6.6607    4.3917   -2.1208 C.1     1  UNL1        0.1047
      5 N           6.3175    5.1324   -3.0818 N.1     1  UNL1       -0.1907
      6 C           6.6304    2.1034   -0.9726 C.2     1  UNL1        0.2640
      7 O           5.9042    1.7057   -1.8794 O.2     1  UNL1       -0.2688
      8 N           7.0781    1.3034    0.0734 N.am    1  UNL1       -0.2288
      9 C           6.6555   -0.1022    0.0395 C.3     1  UNL1        0.0550
     10 C           7.2007   -0.8222   -1.2067 C.3     1  UNL1       -0.0129
     11 C           6.9700   -2.3167   -1.0219 C.3     1  UNL1        0.0676
     12 S           6.8263   -2.6125    0.7283 S.O2    1  UNL1       -0.0292
     13 O           5.4420   -2.9001    1.0543 O.2     1  UNL1       -0.1743
     14 O           7.9287   -3.4231    1.1851 O.2     1  UNL1       -0.1743
     15 C           7.1338   -0.9646    1.2028 C.3     1  UNL1        0.0848
     16 C           7.7901    1.7716    1.1704 C.2     1  UNL1        0.2549
     17 O           8.0780    1.0757    2.1426 O.2     1  UNL1       -0.2695
     18 C           8.2123    3.1970    1.1589 C.2     1  UNL1        0.0553
     19 C           8.9612    3.5806    2.2175 C.2     1  UNL1        0.0062
     20 N           9.4285    2.7939    3.2507 N.pl3   1  UNL1       -0.3198
     21 C          10.1214    3.1815    4.3973 C.ar    1  UNL1        0.0311
     22 C           9.8459    4.3902    5.0394 C.ar    1  UNL1       -0.0371
     23 C          10.6019    4.8052    6.1349 C.ar    1  UNL1       -0.0184
     24 C          11.6531    4.0096    6.5763 C.ar    1  UNL1        0.1170
     25 O          12.4338    4.3746    7.6318 O.3     1  UNL1       -0.5068
     26 C          11.9470    2.8055    5.9495 C.ar    1  UNL1       -0.0184
     27 C          11.1723    2.3839    4.8690 C.ar    1  UNL1       -0.0371
     28 H           7.9000    6.0614   -0.7818 H       1  UNL1        0.0278
     29 H           9.3340    5.5507    0.0904 H       1  UNL1        0.0278
     30 H           7.8389    5.9745    0.9682 H       1  UNL1        0.0278
     31 H           5.5566   -0.1037    0.0059 H       1  UNL1        0.0522
     32 H           8.2710   -0.6047   -1.3183 H       1  UNL1        0.0299
     33 H           6.7226   -0.4909   -2.1338 H       1  UNL1        0.0299
     34 H           7.8155   -2.8848   -1.4138 H       1  UNL1        0.0500
     35 H           6.0391   -2.6341   -1.4937 H       1  UNL1        0.0500
     36 H           8.2242   -0.9140    1.3156 H       1  UNL1        0.0518
     37 H           6.6252   -0.7380    2.1437 H       1  UNL1        0.0518
     38 H           9.3225    4.5994    2.3092 H       1  UNL1        0.0789
     39 H           9.1597    1.8026    3.2169 H       1  UNL1        0.1516
     40 H           9.0106    4.9966    4.7014 H       1  UNL1        0.0637
     41 H          10.3548    5.7458    6.6137 H       1  UNL1        0.0655
     42 H          12.1002    5.2104    7.9953 H       1  UNL1        0.2921
     43 H          12.7838    2.2047    6.2930 H       1  UNL1        0.0655
     44 H          11.4206    1.4472    4.3745 H       1  UNL1        0.0637
@<TRIPOS>BOND
     1     1     2    1
     2     2     3    2
     3     3     4    1
     4     4     5    3
     5     3     6    1
     6     6     7    2
     7     6     8   am
     8     9    10    1
     9    10    11    1
    10    11    12    1
    11    12    13    2
    12    12    14    2
    13    12    15    1
    14     9    15    1
    15     8    16   am
    16    16    17    2
    17    16    18    1
    18     2    18    1
    19    18    19    2
    20    19    20    1
    21    20    21    1
    22    21    22   ar
    23    22    23   ar
    24    23    24   ar
    25    24    25    1
    26    24    26   ar
    27    26    27   ar
    28    21    27   ar
    29     9     8    1
    30     1    28    1
    31     1    29    1
    32     1    30    1
    33     9    31    1
    34    10    32    1
    35    10    33    1
    36    11    34    1
    37    11    35    1
    38    15    36    1
    39    15    37    1
    40    19    38    1
    41    20    39    1
    42    22    40    1
    43    23    41    1
    44    25    42    1
    45    26    43    1
    46    27    44    1
