REMARK  5 active torsions:
REMARK  status: ('A' for Active; 'I' for Inactive)
REMARK    1  A    between atoms: C_8  and  N_9 
REMARK       I    between atoms: N_9  and  C_10 
REMARK       I    between atoms: C_10  and  N_12 
REMARK    2  A    between atoms: N_12  and  C_13 
REMARK    3  A    between atoms: C_15  and  N_16 
REMARK       I    between atoms: N_16  and  C_17 
REMARK    4  A    between atoms: C_17  and  C_19 
REMARK    5  A    between atoms: C_28  and  N_29 
ROOT
ATOM      1  C   UNL d   1       5.584   3.878  -0.054  0.00  0.00     0.065 C 
ATOM      2  C   UNL d   1       6.335   4.771   0.778  0.00  0.00     0.061 C 
ATOM      3  C   UNL d   1       7.750   4.836   0.691  0.00  0.00     0.037 C 
ATOM      4  C   UNL d   1       8.392   3.890  -0.098  0.00  0.00     0.032 C 
ATOM      5  C   UNL d   1       7.678   2.986  -0.872  0.00  0.00     0.034 C 
ATOM      6  C   UNL d   1       6.279   2.956  -0.899  0.00  0.00     0.057 C 
ENDROOT
BRANCH   1   7
ATOM      7  N   UNL d   1       4.119   3.870   0.001  0.00  0.00    -0.306 N 
ATOM      8  C   UNL d   1       3.533   2.671   0.392  0.00  0.00     0.325 C 
ATOM      9  N   UNL d   1       2.171   2.495   0.146  0.00  0.00    -0.308 N 
ATOM     10  O   UNL d   1       4.253   1.849   0.957  0.00  0.00    -0.247 OA
ATOM     11  H   UNL d   1       1.617   3.332   0.011  0.00  0.00     0.170 HD
ATOM     12  H   UNL d   1       3.680   4.705   0.363  0.00  0.00     0.170 HD
BRANCH   9  13
ATOM     13  C   UNL d   1       1.427   1.227   0.162  0.00  0.00     0.043 A 
ATOM     14  C   UNL d   1       0.019   1.270   0.043  0.00  0.00     0.054 A 
ATOM     15  C   UNL d   1      -0.754   0.083   0.006  0.00  0.00     0.036 A 
ATOM     16  C   UNL d   1      -0.163  -1.172   0.008  0.00  0.00     0.024 A 
ATOM     17 CL   UNL d   1      -2.477   0.149  -0.030  0.00  0.00    -0.084 Cl
ATOM     18  C   UNL d   1       1.207  -1.244   0.081  0.00  0.00     0.011 A 
ATOM     19  C   UNL d   1       1.992  -0.080   0.215  0.00  0.00    -0.035 A 
ATOM     20  C   UNL d   1       3.430  -0.413   0.414  0.00  0.00     0.050 C 
ENDBRANCH   9  13
ENDBRANCH   1   7
BRANCH   6  21
ATOM     21  N   UNL d   1       5.718   2.040  -1.768  0.00  0.00    -0.379 N 
ATOM     22  C   UNL d   1       4.628   2.296  -2.686  0.00  0.00     0.123 C 
ATOM     23  C   UNL d   1       3.829   1.005  -2.672  0.00  0.00     0.021 C 
ATOM     24  C   UNL d   1       4.891  -0.076  -2.452  0.00  0.00     0.021 C 
ATOM     25  C   UNL d   1       6.008   0.609  -1.641  0.00  0.00     0.123 C 
ENDBRANCH   6  21
BRANCH   3  26
ATOM     26  N   UNL d   1       8.507   5.874   1.328  0.00  0.00    -0.323 N 
ATOM     27  C   UNL d   1       9.851   6.157   1.038  0.00  0.00     0.256 C 
ATOM     28  O   UNL d   1      10.586   5.549   0.263  0.00  0.00    -0.267 OA
ATOM     29  H   UNL d   1       7.990   6.545   1.882  0.00  0.00     0.169 HD
BRANCH  27  30
ATOM     30  C   UNL d   1      10.504   7.302   1.718  0.00  0.00     0.032 A 
ATOM     31  C   UNL d   1      11.534   7.993   1.041  0.00  0.00     0.020 A 
ATOM     32  C   UNL d   1      12.352   8.890   1.729  0.00  0.00     0.043 A 
ATOM     33  C   UNL d   1      12.099   9.138   3.071  0.00  0.00     0.116 A 
ATOM     34  F   UNL d   1      12.861  10.018   3.734  0.00  0.00    -0.206 F 
ATOM     35  C   UNL d   1      11.070   8.481   3.744  0.00  0.00     0.043 A 
ATOM     36  C   UNL d   1      10.273   7.553   3.070  0.00  0.00     0.020 A 
ENDBRANCH  27  30
ENDBRANCH   3  26
TORSDOF 5
