REMARK  6 active torsions:
REMARK  status: ('A' for Active; 'I' for Inactive)
REMARK       I    between atoms: C_2  and  N_3 
REMARK    1  A    between atoms: C_2  and  C_14 
REMARK    2  A    between atoms: N_3  and  C_4 
REMARK    3  A    between atoms: C_4  and  C_5 
REMARK    4  A    between atoms: C_5  and  C_6 
REMARK    5  A    between atoms: C_9  and  O_10 
REMARK    6  A    between atoms: C_11  and  O_12 
ROOT
ATOM      1  C   UNL d   1       2.538  -4.321  -2.580  0.00  0.00    -0.054 A 
ATOM      2  C   UNL d   1       1.479  -4.174  -3.493  0.00  0.00     0.010 A 
ATOM      3  C   UNL d   1       0.889  -5.294  -4.097  0.00  0.00     0.040 A 
ATOM      4  C   UNL d   1       1.377  -6.564  -3.803  0.00  0.00     0.098 A 
ATOM      5  C   UNL d   1       2.433  -6.714  -2.910  0.00  0.00     0.099 A 
ATOM      6  C   UNL d   1       3.007  -5.611  -2.297  0.00  0.00     0.046 A 
ENDROOT
BRANCH   1   7
ATOM      7  C   UNL d   1       3.229  -3.141  -1.937  0.00  0.00     0.058 C 
BRANCH   7   8
ATOM      8  C   UNL d   1       2.265  -2.121  -1.333  0.00  0.00     0.127 C 
BRANCH   8   9
ATOM      9  N   UNL d   1       2.940  -1.011  -0.695  0.00  0.00    -0.360 N 
ATOM     10  C   UNL d   1       2.220   0.027  -0.149  0.00  0.00     0.221 C 
ATOM     11  O   UNL d   1       0.996   0.085  -0.113  0.00  0.00    -0.273 OA
ATOM     12  H   UNL d   1       3.951  -0.987  -0.655  0.00  0.00     0.162 HD
BRANCH  10  13
ATOM     13  C   UNL d   1       3.050   1.104   0.450  0.00  0.00     0.078 A 
ATOM     14  C   UNL d   1       4.241   1.611  -0.337  0.00  0.00     0.015 A 
ATOM     15  C   UNL d   1       3.073   2.517  -0.091  0.00  0.00     0.015 A 
ENDBRANCH  10  13
ENDBRANCH   8   9
ENDBRANCH   7   8
ENDBRANCH   1   7
BRANCH   5  16
ATOM     16  O   UNL d   1       2.942  -7.947  -2.617  0.00  0.00    -0.358 OA
ATOM     17  H   UNL d   1       2.425  -8.573  -3.157  0.00  0.00     0.217 HD
ENDBRANCH   5  16
BRANCH   4  18
ATOM     18  O   UNL d   1       0.856  -7.692  -4.373  0.00  0.00    -0.358 OA
ATOM     19  H   UNL d   1       0.129  -7.430  -4.964  0.00  0.00     0.217 HD
ENDBRANCH   4  18
TORSDOF 6
