REMARK  7 active torsions:
REMARK  status: ('A' for Active; 'I' for Inactive)
REMARK    1  A    between atoms: O_2  and  C_3 
REMARK       I    between atoms: C_3  and  N_5 
REMARK    2  A    between atoms: N_5  and  C_6 
REMARK    3  A    between atoms: C_9  and  C_10 
REMARK    4  A    between atoms: C_10  and  N_11 
REMARK       I    between atoms: N_11  and  C_12 
REMARK    5  A    between atoms: C_12  and  C_14 
REMARK       I    between atoms: C_14  and  N_16 
REMARK    6  A    between atoms: N_16  and  C_17 
REMARK    7  A    between atoms: C_20  and  C_21 
ROOT
ATOM      1  N   UNL d   1       7.258  -6.855   2.083  0.00  0.00    -0.349 N 
ATOM      2  C   UNL d   1       7.865  -8.029   2.488  0.00  0.00     0.309 C 
ATOM      3  O   UNL d   1       8.895  -8.120   3.138  0.00  0.00    -0.262 OA
ATOM      4  H   UNL d   1       6.382  -6.985   1.589  0.00  0.00     0.163 HD
ENDROOT
BRANCH   2   5
ATOM      5  C   UNL d   1       7.102  -9.302   2.026  0.00  0.00     0.313 C 
ATOM      6  O   UNL d   1       6.082  -9.141   1.361  0.00  0.00    -0.262 OA
ATOM      7  N   UNL d   1       7.630 -10.518   2.454  0.00  0.00    -0.319 N 
ATOM      8  H   UNL d   1       8.383 -10.492   3.136  0.00  0.00     0.169 HD
BRANCH   7   9
ATOM      9  C   UNL d   1       7.119 -11.770   2.037  0.00  0.00     0.035 A 
ATOM     10  C   UNL d   1       7.092 -12.872   2.899  0.00  0.00     0.030 A 
ATOM     11  C   UNL d   1       6.600 -14.112   2.447  0.00  0.00     0.018 A 
ATOM     12  C   UNL d   1       6.100 -14.254   1.142  0.00  0.00     0.048 A 
ATOM     13  C   UNL d   1       6.174 -13.159   0.277  0.00  0.00     0.018 A 
ATOM     14  C   UNL d   1       6.670 -11.934   0.724  0.00  0.00     0.030 A 
BRANCH  12  15
ATOM     15  C   UNL d   1       5.433 -15.534   0.697  0.00  0.00     0.417 C 
ATOM     16  F   UNL d   1       6.258 -16.614   0.757  0.00  0.00    -0.166 F 
ATOM     17  F   UNL d   1       4.352 -15.844   1.467  0.00  0.00    -0.166 F 
ATOM     18  F   UNL d   1       4.969 -15.489  -0.584  0.00  0.00    -0.166 F 
ENDBRANCH  12  15
ENDBRANCH   7   9
ENDBRANCH   2   5
BRANCH   1  19
ATOM     19  C   UNL d   1       7.762  -5.522   2.381  0.00  0.00     0.161 C 
BRANCH  19  20
ATOM     20  C   UNL d   1       6.912  -4.363   1.876  0.00  0.00    -0.040 A 
ATOM     21  C   UNL d   1       7.287  -3.030   2.151  0.00  0.00     0.011 A 
ATOM     22  C   UNL d   1       6.457  -1.942   1.794  0.00  0.00     0.030 A 
ATOM     23  C   UNL d   1       5.252  -2.162   1.125  0.00  0.00     0.036 A 
ATOM     24  C   UNL d   1       4.895  -3.473   0.824  0.00  0.00     0.030 A 
ATOM     25  C   UNL d   1       5.715  -4.549   1.175  0.00  0.00     0.011 A 
BRANCH  23  26
ATOM     26  N   UNL d   1       4.439  -1.087   0.697  0.00  0.00    -0.303 N 
ATOM     27  C   UNL d   1       3.063  -1.140   0.638  0.00  0.00     0.364 C 
ATOM     28  O   UNL d   1       2.362  -2.068   1.046  0.00  0.00    -0.238 OA
ATOM     29  H   UNL d   1       4.874  -0.201   0.477  0.00  0.00     0.171 HD
BRANCH  27  30
ATOM     30  O   UNL d   1       2.537   0.003   0.112  0.00  0.00    -0.309 OA
ATOM     31  C   UNL d   1       1.099   0.011   0.099  0.00  0.00     0.215 C 
ENDBRANCH  27  30
ENDBRANCH  23  26
ENDBRANCH  19  20
ENDBRANCH   1  19
TORSDOF 7
