@<TRIPOS>MOLECULE
*****
 65 67 0 0 0
SMALL
GASTEIGER

@<TRIPOS>ATOM
      1 C           0.9561    0.0852   -0.0542 C.3     1  UNL1       -0.0652
      2 C           2.4702    0.0947   -0.0280 C.3     1  UNL1       -0.0545
      3 C           2.9500    0.5656    1.3391 C.3     1  UNL1       -0.0376
      4 C           4.4497    0.5898    1.3904 C.3     1  UNL1        0.0116
      5 N           4.9493    1.0645    2.6661 N.am    1  UNL1       -0.3135
      6 C           6.3137    1.0678    2.7866 C.2     1  UNL1        0.2383
      7 O           6.9269    0.8003    1.7429 O.2     1  UNL1       -0.2734
      8 C           6.9745    1.4627    4.1644 C.3     1  UNL1        0.1340
      9 C           6.4745    0.5410    5.2833 C.ar    1  UNL1        0.0648
     10 C           5.7385    0.9610    6.4101 C.ar    1  UNL1        0.1292
     11 O           5.2715    2.2347    6.5971 O.3     1  UNL1       -0.5062
     12 C           5.4193    0.0663    7.4417 C.ar    1  UNL1        0.0219
     13 C           5.8098   -1.2637    7.3409 C.ar    1  UNL1        0.1238
     14 O           5.5114   -2.1854    8.3010 O.3     1  UNL1       -0.5065
     15 C           6.5211   -1.7103    6.2391 C.ar    1  UNL1        0.0219
     16 C           6.8512   -0.8114    5.2313 C.ar    1  UNL1        0.1292
     17 O           7.5790   -1.2475    4.1583 O.3     1  UNL1       -0.5062
     18 N           8.4757    1.5272    4.1984 N.am    1  UNL1       -0.2858
     19 C           9.2479    1.1356    3.0288 C.3     1  UNL1        0.0044
     20 C           9.1096    1.9538    5.3891 C.2     1  UNL1        0.2572
     21 O           8.4313    2.3812    6.3322 O.2     1  UNL1       -0.2716
     22 C          10.7304    1.9700    5.4422 C.3     1  UNL1        0.1924
     23 O          11.3000    0.6630    5.2922 O.3     1  UNL1       -0.3711
     24 C          11.2165    2.9322    4.3395 C.ar    1  UNL1       -0.0027
     25 C          12.1387    2.5754    3.3465 C.ar    1  UNL1       -0.0550
     26 C          12.5237    3.5156    2.3884 C.ar    1  UNL1       -0.0614
     27 C          12.0129    4.8156    2.4204 C.ar    1  UNL1       -0.0617
     28 C          11.0811    5.1772    3.3787 C.ar    1  UNL1       -0.0614
     29 C          10.6357    4.2195    4.2705 C.ar    1  UNL1       -0.0550
     30 C          11.2076    2.4358    6.8445 C.ar    1  UNL1       -0.0027
     31 C          11.5194    1.5062    7.8499 C.ar    1  UNL1       -0.0550
     32 C          11.7304    1.9267    9.1661 C.ar    1  UNL1       -0.0614
     33 C          11.7046    3.2812    9.4932 C.ar    1  UNL1       -0.0617
     34 C          11.4659    4.2200    8.5097 C.ar    1  UNL1       -0.0614
     35 C          11.2375    3.7958    7.2108 C.ar    1  UNL1       -0.0550
     36 H           0.5913   -0.2479   -1.0284 H       1  UNL1        0.0230
     37 H           0.5649    1.0890    0.1399 H       1  UNL1        0.0230
     38 H           0.5653   -0.5895    0.7141 H       1  UNL1        0.0230
     39 H           2.8512    0.7572   -0.8152 H       1  UNL1        0.0263
     40 H           2.8526   -0.9111   -0.2424 H       1  UNL1        0.0263
     41 H           2.5772   -0.1017    2.1237 H       1  UNL1        0.0280
     42 H           2.5701    1.5708    1.5503 H       1  UNL1        0.0280
     43 H           4.8507    1.2442    0.6022 H       1  UNL1        0.0462
     44 H           4.8592   -0.4149    1.2057 H       1  UNL1        0.0462
     45 H           4.3436    1.1977    3.4666 H       1  UNL1        0.1487
     46 H           6.6438    2.4934    4.3490 H       1  UNL1        0.0650
     47 H           5.7982    2.8673    6.0834 H       1  UNL1        0.2922
     48 H           4.8839    0.4286    8.3152 H       1  UNL1        0.0691
     49 H           5.0281   -1.7458    9.0196 H       1  UNL1        0.2921
     50 H           6.8189   -2.7507    6.1838 H       1  UNL1        0.0691
     51 H           7.8077   -2.1816    4.2871 H       1  UNL1        0.2922
     52 H           8.7463    0.8495    2.1320 H       1  UNL1        0.0429
     53 H           9.8247    0.2473    3.2508 H       1  UNL1        0.0429
     54 H           9.8285    1.9797    2.6835 H       1  UNL1        0.0429
     55 H          11.0448    0.2953    4.4434 H       1  UNL1        0.2116
     56 H          12.5068    1.5553    3.2597 H       1  UNL1        0.0621
     57 H          13.2324    3.2364    1.6145 H       1  UNL1        0.0618
     58 H          12.3243    5.5467    1.6823 H       1  UNL1        0.0618
     59 H          10.6943    6.1892    3.4474 H       1  UNL1        0.0618
     60 H           9.8358    4.5012    4.9570 H       1  UNL1        0.0621
     61 H          11.5788    0.4424    7.6249 H       1  UNL1        0.0621
     62 H          11.8840    1.1882    9.9459 H       1  UNL1        0.0618
     63 H          11.8692    3.6110   10.5117 H       1  UNL1        0.0618
     64 H          11.4201    5.2826    8.7275 H       1  UNL1        0.0618
     65 H          11.0649    4.5985    6.5136 H       1  UNL1        0.0621
@<TRIPOS>BOND
     1     1     2    1
     2     2     3    1
     3     3     4    1
     4     4     5    1
     5     5     6   am
     6     6     7    2
     7     6     8    1
     8     8     9    1
     9     9    10   ar
    10    10    11    1
    11    10    12   ar
    12    12    13   ar
    13    13    14    1
    14    13    15   ar
    15    15    16   ar
    16     9    16   ar
    17    16    17    1
    18     8    18    1
    19    18    19    1
    20    18    20   am
    21    20    21    2
    22    20    22    1
    23    22    23    1
    24    22    24    1
    25    24    25   ar
    26    25    26   ar
    27    26    27   ar
    28    27    28   ar
    29    28    29   ar
    30    24    29   ar
    31    22    30    1
    32    30    31   ar
    33    31    32   ar
    34    32    33   ar
    35    33    34   ar
    36    34    35   ar
    37    30    35   ar
    38     1    36    1
    39     1    37    1
    40     1    38    1
    41     2    39    1
    42     2    40    1
    43     3    41    1
    44     3    42    1
    45     4    43    1
    46     4    44    1
    47     5    45    1
    48     8    46    1
    49    11    47    1
    50    12    48    1
    51    14    49    1
    52    15    50    1
    53    17    51    1
    54    19    52    1
    55    19    53    1
    56    19    54    1
    57    23    55    1
    58    25    56    1
    59    26    57    1
    60    27    58    1
    61    28    59    1
    62    29    60    1
    63    31    61    1
    64    32    62    1
    65    33    63    1
    66    34    64    1
    67    35    65    1
