@<TRIPOS>MOLECULE
*****
 51 53 0 0 0
SMALL
GASTEIGER

@<TRIPOS>ATOM
      1 C          -3.1665   -1.9295    0.0066 C.3     1  UNL1       -0.0362
      2 C          -2.3421   -0.6805   -0.0047 C.ar    1  UNL1       -0.0077
      3 C          -0.9426   -0.8633   -0.0116 C.ar    1  UNL1       -0.0414
      4 C          -0.0674    0.2175   -0.0039 C.ar    1  UNL1        0.0184
      5 BR          1.7960   -0.1007   -0.0014 Br      1  UNL1       -0.0503
      6 C          -0.5681    1.5102    0.0042 C.ar    1  UNL1       -0.0443
      7 C          -1.9594    1.7078   -0.0006 C.ar    1  UNL1       -0.0186
      8 C          -2.8669    0.6219   -0.0038 C.ar    1  UNL1        0.1242
      9 O          -4.1910    0.9910   -0.0044 O.3     1  UNL1       -0.4825
     10 C          -5.2505    0.0163   -0.0091 C.3     1  UNL1        0.1655
     11 C          -6.6452    0.6572   -0.0153 C.2     1  UNL1        0.2561
     12 O          -6.7132    1.8917   -0.0192 O.2     1  UNL1       -0.2717
     13 N          -7.7786   -0.2001   -0.0166 N.am    1  UNL1       -0.2639
     14 C          -9.1256    0.2274   -0.0219 C.2     1  UNL1        0.1531
     15 S          -9.6210    1.8443   -0.0288 S.2     1  UNL1       -0.0170
     16 N         -10.1103   -0.7774   -0.0218 N.am    1  UNL1       -0.2455
     17 N         -11.5188   -0.3656   -0.0271 N.am    1  UNL1       -0.2323
     18 C         -12.5572   -1.2899   -0.0219 C.2     1  UNL1        0.2667
     19 O         -12.3185   -2.4993   -0.0149 O.2     1  UNL1       -0.2705
     20 C         -14.0085   -0.6954   -0.0360 C.3     1  UNL1        0.1666
     21 O         -14.9863   -1.7502   -0.0083 O.3     1  UNL1       -0.4821
     22 C         -16.3220   -1.4028   -0.0048 C.ar    1  UNL1        0.1289
     23 C         -16.8461   -0.4424   -0.8749 C.ar    1  UNL1       -0.0193
     24 C         -18.2149   -0.1546   -0.8704 C.ar    1  UNL1       -0.0577
     25 C         -19.0773   -0.8342   -0.0114 C.ar    1  UNL1       -0.0538
     26 C         -18.5929   -1.8432    0.8289 C.ar    1  UNL1       -0.0144
     27 C         -19.4794   -2.5598    1.6542 C.ar    1  UNL1       -0.0539
     28 C         -19.0154   -3.5740    2.4891 C.ar    1  UNL1       -0.0612
     29 C         -17.6610   -3.8851    2.5040 C.ar    1  UNL1       -0.0611
     30 C         -16.7681   -3.1802    1.6884 C.ar    1  UNL1       -0.0505
     31 C         -17.2029   -2.1441    0.8348 C.ar    1  UNL1        0.0238
     32 H          -2.5595   -2.8365    0.0129 H       1  UNL1        0.0279
     33 H          -3.7778   -1.9824   -0.8963 H       1  UNL1        0.0279
     34 H          -3.7715   -1.9677    0.9149 H       1  UNL1        0.0279
     35 H          -0.5373   -1.8731   -0.0208 H       1  UNL1        0.0632
     36 H           0.1097    2.3615    0.0134 H       1  UNL1        0.0630
     37 H          -2.3314    2.7327   -0.0005 H       1  UNL1        0.0654
     38 H          -5.1966   -0.5715    0.9090 H       1  UNL1        0.0795
     39 H          -5.1886   -0.5727   -0.9260 H       1  UNL1        0.0795
     40 H          -7.6039   -1.1992   -0.0129 H       1  UNL1        0.1566
     41 H          -9.9659   -1.7875   -0.0184 H       1  UNL1        0.1718
     42 H         -11.6660    0.6449   -0.0277 H       1  UNL1        0.1729
     43 H         -14.1167   -0.0875   -0.9414 H       1  UNL1        0.0795
     44 H         -14.1416   -0.0606    0.8496 H       1  UNL1        0.0795
     45 H         -16.2185    0.0683   -1.5961 H       1  UNL1        0.0654
     46 H         -18.6191    0.5929   -1.5493 H       1  UNL1        0.0619
     47 H         -20.1367   -0.5813   -0.0159 H       1  UNL1        0.0624
     48 H         -20.5454   -2.3379    1.6476 H       1  UNL1        0.0624
     49 H         -19.7103   -4.1203    3.1224 H       1  UNL1        0.0618
     50 H         -17.2937   -4.6791    3.1488 H       1  UNL1        0.0618
     51 H         -15.7143   -3.4498    1.7168 H       1  UNL1        0.0625
@<TRIPOS>BOND
     1     1     2    1
     2     2     3   ar
     3     3     4   ar
     4     4     5    1
     5     4     6   ar
     6     6     7   ar
     7     7     8   ar
     8     2     8   ar
     9     8     9    1
    10     9    10    1
    11    10    11    1
    12    11    12    2
    13    11    13   am
    14    13    14    1
    15    14    15    2
    16    14    16    1
    17    16    17    1
    18    17    18   am
    19    18    19    2
    20    18    20    1
    21    20    21    1
    22    21    22    1
    23    22    23   ar
    24    23    24   ar
    25    24    25   ar
    26    25    26   ar
    27    26    27   ar
    28    27    28   ar
    29    28    29   ar
    30    29    30   ar
    31    30    31   ar
    32    22    31   ar
    33    26    31   ar
    34     1    32    1
    35     1    33    1
    36     1    34    1
    37     3    35    1
    38     6    36    1
    39     7    37    1
    40    10    38    1
    41    10    39    1
    42    13    40    1
    43    16    41    1
    44    17    42    1
    45    20    43    1
    46    20    44    1
    47    23    45    1
    48    24    46    1
    49    25    47    1
    50    27    48    1
    51    28    49    1
    52    29    50    1
    53    30    51    1
