REMARK  5 active torsions:
REMARK  status: ('A' for Active; 'I' for Inactive)
REMARK    1  A    between atoms: N_2  and  C_4 
REMARK    2  A    between atoms: C_7  and  C_8 
REMARK    3  A    between atoms: C_8  and  N_9 
REMARK    4  A    between atoms: C_17  and  C_18 
REMARK    5  A    between atoms: C_20  and  C_21 
ROOT
ATOM      1  N   UNL d   1       4.958  -5.095   2.385  0.00  0.00    -0.391 N 
ATOM      2  C   UNL d   1       4.002  -5.763   3.315  0.00  0.00     0.177 C 
ATOM      3  C   UNL d   1       3.015  -6.614   2.600  0.00  0.00     0.050 A 
ATOM      4  N   UNL d   1       1.946  -7.377   3.054  0.00  0.00    -0.353 N 
ATOM      5  C   UNL d   1       1.315  -7.960   2.023  0.00  0.00     0.181 A 
ATOM      6  N   UNL d   1       1.948  -7.566   0.919  0.00  0.00    -0.354 N 
ATOM      7  C   UNL d   1       3.018  -6.775   1.243  0.00  0.00     0.036 A 
ATOM      8  C   UNL d   1       3.930  -6.198   0.275  0.00  0.00     0.092 C 
ATOM      9  C   UNL d   1       4.836  -5.135   0.859  0.00  0.00     0.165 C 
ATOM     10  H   UNL d   1       1.667  -7.507   4.024  0.00  0.00     0.166 HD
ATOM     11  H   UNL d   1       1.696  -7.818  -0.035  0.00  0.00     0.166 HD
ENDROOT
BRANCH   9  12
ATOM     12  C   UNL d   1       4.569  -3.750  -0.031  0.00  0.00     0.196 C 
ATOM     13  N   UNL d   1       3.506  -2.964  -0.381  0.00  0.00    -0.200 NA
ATOM     14  C   UNL d   1       4.120  -1.552  -0.621  0.00  0.00     0.209 C 
ATOM     15  N   UNL d   1       5.444  -1.788  -0.724  0.00  0.00    -0.104 NA
ATOM     16  O   UNL d   1       5.720  -3.079  -0.287  0.00  0.00    -0.194 OA
BRANCH  14  17
ATOM     17  C   UNL d   1       3.522   0.170  -0.774  0.00  0.00     0.123 C 
ATOM     18  C   UNL d   1       2.613   0.370  -1.984  0.00  0.00     0.151 C 
ATOM     19  N   UNL d   1       1.373   1.429  -2.017  0.00  0.00    -0.269 NA
ATOM     20  C   UNL d   1       1.044   2.352  -0.724  0.00  0.00     0.135 C 
ATOM     21  C   UNL d   1       1.892   2.260   0.576  0.00  0.00     0.136 C 
ATOM     22  N   UNL d   1       3.217   1.270   0.516  0.00  0.00    -0.254 NA
ENDBRANCH  14  17
ENDBRANCH   9  12
BRANCH   1  23
ATOM     23  C   UNL d   1       5.462  -3.799   2.812  0.00  0.00     0.156 C 
BRANCH  23  24
ATOM     24  C   UNL d   1       4.439  -2.723   2.535  0.00  0.00    -0.041 C 
ATOM     25  C   UNL d   1       4.886  -1.451   2.340  0.00  0.00     0.011 C 
ATOM     26  C   UNL d   1       3.854  -0.560   1.990  0.00  0.00     0.037 C 
ATOM     27  C   UNL d   1       2.357  -0.951   1.624  0.00  0.00     0.102 C 
ATOM     28  C   UNL d   1       2.064  -2.253   1.694  0.00  0.00     0.037 C 
ATOM     29  C   UNL d   1       3.049  -3.058   2.227  0.00  0.00     0.011 C 
BRANCH  27  30
ATOM     30  N   UNL d   1       1.216  -0.449   0.664  0.00  0.00    -0.116 N 
ATOM     31  O   UNL d   1       0.126  -0.866   0.358  0.00  0.00    -0.532 OA
ATOM     32  O   UNL d   1       1.518   0.351  -0.181  0.00  0.00    -0.532 OA
ENDBRANCH  27  30
ENDBRANCH  23  24
ENDBRANCH   1  23
TORSDOF 5
