REMARK  3 active torsions:
REMARK  status: ('A' for Active; 'I' for Inactive)
REMARK    1  A    between atoms: C_5  and  C_6 
REMARK       I    between atoms: C_6  and  N_7 
REMARK    2  A    between atoms: C_10  and  N_11 
REMARK       I    between atoms: N_11  and  C_12 
REMARK    3  A    between atoms: C_12  and  C_14 
ROOT
ATOM      1  C   UNL d   1       2.451  -0.353   0.499  0.00  0.00     0.050 C 
ATOM      2  C   UNL d   1       0.987  -0.114   0.292  0.00  0.00    -0.035 C 
ATOM      3  C   UNL d   1       0.225  -1.276   0.150  0.00  0.00     0.010 C 
ATOM      4  C   UNL d   1      -1.155  -1.231   0.037  0.00  0.00     0.017 C 
ATOM      5  C   UNL d   1      -1.824  -0.010   0.049  0.00  0.00     0.034 C 
ATOM      6  C   UNL d   1      -1.067   1.182   0.106  0.00  0.00     0.047 C 
ATOM      7  C   UNL d   1       0.351   1.141   0.170  0.00  0.00     0.042 C 
ENDROOT
BRANCH   7   8
ATOM      8  N   UNL d   1       1.054   2.372   0.017  0.00  0.00    -0.322 N 
ATOM      9  C   UNL d   1       2.406   2.580  -0.211  0.00  0.00     0.257 C 
ATOM     10  O   UNL d   1       3.021   3.371   0.506  0.00  0.00    -0.267 OA
ATOM     11  H   UNL d   1       0.539   3.226   0.209  0.00  0.00     0.169 HD
BRANCH   9  12
ATOM     12  C   UNL d   1       3.153   1.846  -1.310  0.00  0.00     0.054 C 
ATOM     13  C   UNL d   1       4.557   1.706  -1.120  0.00  0.00     0.020 C 
ATOM     14  C   UNL d   1       5.304   0.784  -1.873  0.00  0.00     0.025 C 
ATOM     15  C   UNL d   1       4.655  -0.053  -2.774  0.00  0.00     0.035 C 
ATOM     16 CL   UNL d   1       5.532  -1.231  -3.668  0.00  0.00    -0.084 Cl
ATOM     17  C   UNL d   1       3.284   0.060  -2.968  0.00  0.00     0.048 C 
ATOM     18  C   UNL d   1       2.549   1.074  -2.330  0.00  0.00     0.051 C 
ATOM     19 CL   UNL d   1       0.895   1.152  -2.828  0.00  0.00    -0.083 Cl
ENDBRANCH   9  12
ENDBRANCH   7   8
BRANCH   5  20
ATOM     20  C   UNL d   1      -3.322   0.040  -0.035  0.00  0.00     0.249 C 
ATOM     21  N   UNL d   1      -4.006  -1.158  -0.067  0.00  0.00    -0.366 N 
ATOM     22  H   UNL d   1      -3.594  -2.075  -0.040  0.00  0.00     0.159 HD
ATOM     23  H   UNL d   1      -5.016  -1.115  -0.093  0.00  0.00     0.159 HD
ATOM     24  O   UNL d   1      -3.929   1.091  -0.061  0.00  0.00    -0.268 OA
ENDBRANCH   5  20
TORSDOF 3
