REMARK  7 active torsions:
REMARK  status: ('A' for Active; 'I' for Inactive)
REMARK    1  A    between atoms: C_2  and  O_3 
REMARK    2  A    between atoms: C_2  and  C_11 
REMARK    3  A    between atoms: O_3  and  C_4 
REMARK       I    between atoms: C_11  and  N_13 
REMARK    4  A    between atoms: N_13  and  N_14 
REMARK    5  A    between atoms: C_15  and  C_16 
REMARK    6  A    between atoms: N_18  and  C_19 
REMARK    7  A    between atoms: C_26  and  C_27 
ROOT
ATOM      1  C   UNL d   1       6.609   2.128   4.143  0.00  0.00     0.032 A 
ATOM      2  C   UNL d   1       6.124   1.969   5.426  0.00  0.00     0.134 A 
ATOM      3  N   UNL d   1       6.917   2.722   6.262  0.00  0.00    -0.244 N 
ATOM      4  N   UNL d   1       7.883   3.384   5.578  0.00  0.00    -0.166 NA
ATOM      5  C   UNL d   1       7.728   2.997   4.300  0.00  0.00     0.101 A 
ENDROOT
BRANCH   1   6
ATOM      6  C   UNL d   1       6.098   1.548   2.912  0.00  0.00     0.154 C 
ATOM      7  N   UNL d   1       4.826   1.387   2.761  0.00  0.00    -0.184 NA
BRANCH   7   8
ATOM      8  N   UNL d   1       4.367   0.856   1.565  0.00  0.00    -0.245 N 
ATOM      9  C   UNL d   1       2.992   0.784   1.371  0.00  0.00     0.266 C 
ATOM     10  O   UNL d   1       2.193   1.214   2.219  0.00  0.00    -0.269 OA
ATOM     11  H   UNL d   1       5.021   0.533   0.861  0.00  0.00     0.192 HD
BRANCH   9  12
ATOM     12  C   UNL d   1       2.486   0.073   0.071  0.00  0.00     0.218 C 
ATOM     13  C   UNL d   1       0.957  -0.017   0.228  0.00  0.00     0.050 C 
BRANCH  12  14
ATOM     14  O   UNL d   1       2.930   0.765  -1.121  0.00  0.00    -0.337 OA
BRANCH  14  15
ATOM     15  C   UNL d   1       2.571   0.238  -2.341  0.00  0.00     0.070 C 
ATOM     16  C   UNL d   1       1.247   0.006  -2.720  0.00  0.00     0.038 C 
ATOM     17  C   UNL d   1       0.916  -0.583  -3.941  0.00  0.00     0.022 C 
ATOM     18  C   UNL d   1       1.911  -0.803  -4.878  0.00  0.00     0.011 C 
ATOM     19 BR   UNL d   1       1.443  -1.506  -6.567  0.00  0.00    -0.051 Br
ATOM     20  C   UNL d   1       3.228  -0.454  -4.584  0.00  0.00     0.022 C 
ATOM     21  C   UNL d   1       3.559   0.056  -3.313  0.00  0.00     0.038 C 
ENDBRANCH  14  15
ENDBRANCH  12  14
ENDBRANCH   9  12
ENDBRANCH   7   8
ENDBRANCH   1   6
BRANCH   5  22
ATOM     22  C   UNL d   1       8.562   3.537   3.229  0.00  0.00    -0.005 A 
ATOM     23  C   UNL d   1       9.928   3.247   3.142  0.00  0.00     0.014 A 
ATOM     24  C   UNL d   1      10.699   3.815   2.121  0.00  0.00     0.001 A 
ATOM     25  C   UNL d   1      10.097   4.618   1.150  0.00  0.00     0.000 A 
ATOM     26  C   UNL d   1       8.732   4.889   1.219  0.00  0.00     0.001 A 
ATOM     27  C   UNL d   1       7.970   4.358   2.260  0.00  0.00     0.014 A 
ENDBRANCH   5  22
BRANCH   3  28
ATOM     28  C   UNL d   1       6.867   2.757   7.680  0.00  0.00     0.058 A 
ATOM     29  C   UNL d   1       6.852   3.983   8.357  0.00  0.00     0.031 A 
ATOM     30  C   UNL d   1       6.886   4.004   9.757  0.00  0.00     0.002 A 
ATOM     31  C   UNL d   1       6.918   2.809  10.478  0.00  0.00     0.000 A 
ATOM     32  C   UNL d   1       6.931   1.589   9.802  0.00  0.00     0.002 A 
ATOM     33  C   UNL d   1       6.891   1.557   8.403  0.00  0.00     0.031 A 
ENDBRANCH   3  28
TORSDOF 7
