@<TRIPOS>MOLECULE
*****
 41 43 0 0 0
SMALL
GASTEIGER

@<TRIPOS>ATOM
      1 N           2.3057   -0.3586    0.0713 N.pl3   1  UNL1       -0.3565
      2 C           0.9525   -0.1155   -0.0050 C.ar    1  UNL1        0.0461
      3 C           0.1553   -1.2663   -0.0024 C.ar    1  UNL1       -0.0392
      4 C          -1.2256   -1.1936   -0.0047 C.ar    1  UNL1       -0.0599
      5 C          -1.8352    0.0539    0.0045 C.ar    1  UNL1       -0.0599
      6 C          -1.0567    1.2285    0.0007 C.ar    1  UNL1       -0.0387
      7 C           0.3559    1.1715   -0.0150 C.ar    1  UNL1        0.0545
      8 N           1.0793    2.4209   -0.0628 N.am    1  UNL1       -0.2800
      9 C           2.4509    2.5886   -0.1549 C.2     1  UNL1        0.2483
     10 O           3.3434    1.7326   -0.1480 O.2     1  UNL1       -0.2699
     11 C           3.0525    3.9114   -0.2201 C.ar    1  UNL1        0.0370
     12 C           4.2330    4.0488   -0.9827 C.ar    1  UNL1       -0.0493
     13 C           5.0529    5.1631   -0.8328 C.ar    1  UNL1       -0.0571
     14 C           4.6537    6.1929    0.0255 C.ar    1  UNL1       -0.0371
     15 C           5.4375    7.5031    0.0437 C.3     1  UNL1        0.0248
     16 S           4.6503    8.7177    1.1704 S.3     1  UNL1       -0.1012
     17 C           5.5514   10.2053    0.9425 C.ar    1  UNL1        0.0972
     18 C           4.8242   11.3888    1.0355 C.ar    1  UNL1       -0.0298
     19 C           5.5020   12.5966    0.9933 C.ar    1  UNL1       -0.0578
     20 C           6.8850   12.5800    0.8874 C.ar    1  UNL1       -0.0435
     21 C           7.5287   11.3514    0.8268 C.ar    1  UNL1        0.0288
     22 N           6.8926   10.1591    0.8417 N.ar    1  UNL1       -0.2488
     23 C           3.4926    5.9943    0.8127 C.ar    1  UNL1       -0.0571
     24 C           2.6933    4.8680    0.7040 C.ar    1  UNL1       -0.0493
     25 H           2.7450   -1.2554    0.0036 H       1  UNL1        0.1424
     26 H           2.9346    0.4374    0.0628 H       1  UNL1        0.1424
     27 H           0.6459   -2.2362    0.0032 H       1  UNL1        0.0636
     28 H          -1.8023   -2.1135   -0.0075 H       1  UNL1        0.0618
     29 H          -2.9218    0.1026    0.0102 H       1  UNL1        0.0618
     30 H          -1.5901    2.1771    0.0053 H       1  UNL1        0.0637
     31 H           0.5084    3.2598   -0.0830 H       1  UNL1        0.1552
     32 H           4.5433    3.2373   -1.6431 H       1  UNL1        0.0625
     33 H           5.9980    5.1996   -1.3725 H       1  UNL1        0.0621
     34 H           5.4264    7.9007   -0.9802 H       1  UNL1        0.0429
     35 H           6.4763    7.3165    0.3367 H       1  UNL1        0.0429
     36 H           3.7449   11.3705    1.1585 H       1  UNL1        0.0644
     37 H           4.9539   13.5313    1.0580 H       1  UNL1        0.0619
     38 H           7.4495   13.5044    0.8595 H       1  UNL1        0.0633
     39 H           8.6118   11.2951    0.7717 H       1  UNL1        0.0830
     40 H           3.1840    6.7122    1.5654 H       1  UNL1        0.0621
     41 H           1.8659    4.7256    1.3896 H       1  UNL1        0.0625
@<TRIPOS>BOND
     1     1     2    1
     2     2     3   ar
     3     3     4   ar
     4     4     5   ar
     5     5     6   ar
     6     6     7   ar
     7     2     7   ar
     8     7     8    1
     9     8     9   am
    10     9    10    2
    11     9    11    1
    12    11    12   ar
    13    12    13   ar
    14    13    14   ar
    15    14    15    1
    16    15    16    1
    17    16    17    1
    18    17    18   ar
    19    18    19   ar
    20    19    20   ar
    21    20    21   ar
    22    21    22   ar
    23    17    22   ar
    24    14    23   ar
    25    23    24   ar
    26    11    24   ar
    27     1    25    1
    28     1    26    1
    29     3    27    1
    30     4    28    1
    31     5    29    1
    32     6    30    1
    33     8    31    1
    34    12    32    1
    35    13    33    1
    36    15    34    1
    37    15    35    1
    38    18    36    1
    39    19    37    1
    40    20    38    1
    41    21    39    1
    42    23    40    1
    43    24    41    1
