@<TRIPOS>MOLECULE
*****
 51 54 0 0 0
SMALL
GASTEIGER

@<TRIPOS>ATOM
      1 O           0.9857   -0.0334   -0.0093 O.2     1  UNL1        0.0416
      2 N           2.2221   -0.0330   -0.0388 N.pl3   1  UNL1        0.0839
      3 O           2.9080    0.1423   -1.0591 O.co2   1  UNL1       -0.5759
      4 C           2.9108   -0.3265    1.1938 C.ar    1  UNL1        0.3243
      5 C           2.5047   -1.3680    2.0596 C.ar    1  UNL1        0.1096
      6 N           1.4559   -2.2269    1.7208 N.pl3   1  UNL1       -0.3384
      7 C           0.9616   -3.2580    2.6158 C.3     1  UNL1        0.0114
      8 C          -0.2628   -3.9455    2.0333 C.3     1  UNL1       -0.0142
      9 C          -0.7085   -5.0705    2.9552 C.3     1  UNL1        0.0456
     10 O          -1.8364   -5.7355    2.4147 O.3     1  UNL1       -0.3950
     11 C           3.2682   -1.5989    3.2524 C.ar    1  UNL1       -0.0108
     12 C           4.3935   -0.8576    3.7125 C.ar    1  UNL1        0.0632
     13 N           4.9866   -1.1783    4.9218 N.pl3   1  UNL1       -0.3251
     14 C           5.1676   -0.1949    5.9939 C.3     1  UNL1        0.0282
     15 C           4.5932   -0.7948    7.3200 C.3     1  UNL1        0.0331
     16 N           5.1663   -2.1318    7.6167 N.pl3   1  UNL1       -0.2750
     17 C           5.8997   -2.4003    8.7429 C.ar    1  UNL1        0.2719
     18 C           7.2188   -2.8737    8.7308 C.ar    1  UNL1        0.0264
     19 C           7.8285   -3.3128    9.9105 C.ar    1  UNL1       -0.0486
     20 C           7.1490   -3.2066   11.1147 C.ar    1  UNL1        0.0022
     21 C           5.8849   -2.6387   11.1086 C.ar    1  UNL1        0.1710
     22 N           5.3030   -2.2937    9.9460 N.ar    1  UNL1       -0.1981
     23 C           5.1062   -3.0873    6.4752 C.3     1  UNL1        0.0331
     24 C           5.6373   -2.4743    5.1530 C.3     1  UNL1        0.0282
     25 C           4.7417    0.1958    2.8200 C.ar    1  UNL1        0.1619
     26 N           5.7379    1.0878    2.9157 N.ar    1  UNL1       -0.0468
     27 O           5.6614    1.8720    1.7797 O.2     1  UNL1       -0.2413
     28 N           4.6001    1.5102    0.9760 N.ar    1  UNL1       -0.0419
     29 C           4.0163    0.4586    1.5691 C.ar    1  UNL1        0.2144
     30 H           0.8158   -1.9174    0.9823 H       1  UNL1        0.1463
     31 H           0.7005   -2.8309    3.5924 H       1  UNL1        0.0462
     32 H           1.7538   -4.0012    2.7617 H       1  UNL1        0.0462
     33 H          -0.0442   -4.3441    1.0351 H       1  UNL1        0.0302
     34 H          -1.0809   -3.2271    1.8957 H       1  UNL1        0.0302
     35 H          -0.9692   -4.6903    3.9486 H       1  UNL1        0.0557
     36 H           0.0919   -5.8081    3.0759 H       1  UNL1        0.0557
     37 H          -2.5531   -5.0855    2.3124 H       1  UNL1        0.2094
     38 H           2.9464   -2.4019    3.9139 H       1  UNL1        0.0657
     39 H           4.6582    0.7488    5.7719 H       1  UNL1        0.0479
     40 H           6.2371    0.0104    6.1190 H       1  UNL1        0.0479
     41 H           3.5102   -0.9305    7.1950 H       1  UNL1        0.0481
     42 H           4.7439   -0.0962    8.1488 H       1  UNL1        0.0481
     43 H           7.7870   -2.8937    7.8047 H       1  UNL1        0.0698
     44 H           8.8334   -3.7351    9.8893 H       1  UNL1        0.0622
     45 H           7.6046   -3.5527   12.0419 H       1  UNL1        0.0677
     46 H           5.3186   -2.4700   12.0198 H       1  UNL1        0.1376
     47 H           4.3350   -1.9873    9.9482 H       1  UNL1        0.4542
     48 H           4.0458   -3.3319    6.3258 H       1  UNL1        0.0481
     49 H           5.6181   -4.0305    6.6948 H       1  UNL1        0.0481
     50 H           5.4792   -3.1719    4.3223 H       1  UNL1        0.0479
     51 H           6.7195   -2.3129    5.2401 H       1  UNL1        0.0479
@<TRIPOS>UNITY_ATOM_ATTR
2 1
charge 1
3 1
charge -1
22 1
charge 1
@<TRIPOS>BOND
     1     1     2    2
     2     2     3    1
     3     2     4    1
     4     4     5   ar
     5     5     6    1
     6     6     7    1
     7     7     8    1
     8     8     9    1
     9     9    10    1
    10     5    11   ar
    11    11    12   ar
    12    12    13    1
    13    13    14    1
    14    14    15    1
    15    15    16    1
    16    16    17    1
    17    17    18   ar
    18    18    19   ar
    19    19    20   ar
    20    20    21   ar
    21    21    22   ar
    22    17    22   ar
    23    16    23    1
    24    23    24    1
    25    13    24    1
    26    12    25   ar
    27    25    26   ar
    28    26    27   ar
    29    27    28   ar
    30    28    29   ar
    31     4    29   ar
    32    25    29   ar
    33     6    30    1
    34     7    31    1
    35     7    32    1
    36     8    33    1
    37     8    34    1
    38     9    35    1
    39     9    36    1
    40    10    37    1
    41    11    38    1
    42    14    39    1
    43    14    40    1
    44    15    41    1
    45    15    42    1
    46    18    43    1
    47    19    44    1
    48    20    45    1
    49    21    46    1
    50    22    47    1
    51    23    48    1
    52    23    49    1
    53    24    50    1
    54    24    51    1
