@<TRIPOS>MOLECULE
*****
 56 59 0 0 0
SMALL
GASTEIGER

@<TRIPOS>ATOM
      1 C           3.0721    0.1193   -1.4601 C.3     1  UNL1       -0.0308
      2 C           2.6129    0.0059    0.0012 C.3     1  UNL1        0.1351
      3 C           1.0962    0.0123    0.0948 C.ar    1  UNL1       -0.0148
      4 C           0.3703    1.1352   -0.3328 C.ar    1  UNL1       -0.0560
      5 C          -1.0180    1.1752   -0.2104 C.ar    1  UNL1       -0.0607
      6 C          -1.7190    0.0635    0.2587 C.ar    1  UNL1       -0.0496
      7 C          -1.0319   -1.0874    0.6487 C.ar    1  UNL1        0.0368
      8 C          -1.7051   -2.2924    1.2163 C.2     1  UNL1        0.2415
      9 N          -3.0600   -2.2647    1.3683 N.am    1  UNL1       -0.3253
     10 O          -1.0768   -3.2850    1.5746 O.2     1  UNL1       -0.2704
     11 C           0.3660   -1.1018    0.5582 C.ar    1  UNL1       -0.0440
     12 N           3.2624    0.9771    0.8442 N.am    1  UNL1       -0.2813
     13 C           4.4333    0.4560    1.3691 C.2     1  UNL1        0.3100
     14 O           5.3944    1.1345    1.6976 O.2     1  UNL1       -0.2522
     15 N           4.3061   -0.9041    1.4072 N.am    1  UNL1       -0.2150
     16 C           5.2101   -1.8142    2.1574 C.3     1  UNL1        0.1005
     17 C           4.7100   -3.2722    2.2929 C.2     1  UNL1        0.2351
     18 O           3.5833   -3.5956    1.9193 O.2     1  UNL1       -0.2737
     19 N           5.4831   -4.2258    2.9439 N.am    1  UNL1       -0.2841
     20 C           5.0287   -5.5819    2.9224 C.ar    1  UNL1        0.0369
     21 C           5.0303   -6.3952    4.0492 C.ar    1  UNL1       -0.0402
     22 C           4.6436   -7.7429    3.9351 C.ar    1  UNL1       -0.0565
     23 C           4.2218   -8.2712    2.7055 C.ar    1  UNL1       -0.0192
     24 C           4.1908   -7.4540    1.5790 C.ar    1  UNL1        0.1302
     25 O           3.7726   -8.0115    0.3866 O.3     1  UNL1       -0.4560
     26 C           3.9420   -7.2899   -0.7803 C.ar    1  UNL1        0.1284
     27 C           2.8323   -7.1377   -1.6102 C.ar    1  UNL1       -0.0193
     28 C           2.9604   -6.4579   -2.8243 C.ar    1  UNL1       -0.0583
     29 C           4.1720   -5.8557   -3.1679 C.ar    1  UNL1       -0.0615
     30 C           5.2798   -5.9954   -2.3352 C.ar    1  UNL1       -0.0583
     31 C           5.1773   -6.7519   -1.1674 C.ar    1  UNL1       -0.0193
     32 C           4.5681   -6.1192    1.7151 C.ar    1  UNL1        0.0019
     33 C           3.3160   -1.2410    0.5229 C.2     1  UNL1        0.2512
     34 O           3.0524   -2.3428    0.0339 O.2     1  UNL1       -0.2724
     35 H           4.1654    0.0895   -1.5430 H       1  UNL1        0.0258
     36 H           2.7314    1.0452   -1.9289 H       1  UNL1        0.0258
     37 H           2.6807   -0.7221   -2.0467 H       1  UNL1        0.0258
     38 H           0.8786    1.9866   -0.7821 H       1  UNL1        0.0621
     39 H          -1.5576    2.0819   -0.4708 H       1  UNL1        0.0618
     40 H          -2.7982    0.1277    0.3081 H       1  UNL1        0.0625
     41 H          -3.6511   -1.4862    1.1324 H       1  UNL1        0.1453
     42 H          -3.4842   -3.0765    1.7973 H       1  UNL1        0.1453
     43 H           0.8691   -2.0249    0.8494 H       1  UNL1        0.0629
     44 H           3.0249    1.9576    0.9073 H       1  UNL1        0.1516
     45 H           5.2587   -1.4100    3.1795 H       1  UNL1        0.0566
     46 H           6.2241   -1.7535    1.7481 H       1  UNL1        0.0566
     47 H           6.1473   -3.9534    3.6555 H       1  UNL1        0.1549
     48 H           5.2415   -5.9854    5.0315 H       1  UNL1        0.0636
     49 H           4.6671   -8.3881    4.8105 H       1  UNL1        0.0619
     50 H           3.9058   -9.3098    2.6371 H       1  UNL1        0.0654
     51 H           1.8646   -7.5245   -1.3038 H       1  UNL1        0.0654
     52 H           2.1116   -6.3883   -3.4987 H       1  UNL1        0.0619
     53 H           4.2492   -5.2728   -4.0818 H       1  UNL1        0.0618
     54 H           6.2212   -5.5178   -2.5922 H       1  UNL1        0.0619
     55 H           6.0482   -6.8588   -0.5270 H       1  UNL1        0.0654
     56 H           4.5099   -5.4644    0.8526 H       1  UNL1        0.0673
@<TRIPOS>BOND
     1     3     4   ar
     2     4     5   ar
     3     5     6   ar
     4     6     7   ar
     5     7     8    1
     6     8     9   am
     7     8    10    2
     8     7    11   ar
     9     3    11   ar
    10     2    12    1
    11    12    13   am
    12    13    14    2
    13    13    15   am
    14    15    16    1
    15    16    17    1
    16    17    18    2
    17    17    19   am
    18    19    20    1
    19    20    21   ar
    20    21    22   ar
    21    22    23   ar
    22    23    24   ar
    23    24    25    1
    24    25    26    1
    25    26    27   ar
    26    27    28   ar
    27    28    29   ar
    28    29    30   ar
    29    30    31   ar
    30    26    31   ar
    31    24    32   ar
    32    20    32   ar
    33    15    33   am
    34     2    33    1
    35    33    34    2
    36     2     3    1
    37     2     1    1
    38     1    35    1
    39     1    36    1
    40     1    37    1
    41     4    38    1
    42     5    39    1
    43     6    40    1
    44     9    41    1
    45     9    42    1
    46    11    43    1
    47    12    44    1
    48    16    45    1
    49    16    46    1
    50    19    47    1
    51    21    48    1
    52    22    49    1
    53    23    50    1
    54    27    51    1
    55    28    52    1
    56    29    53    1
    57    30    54    1
    58    31    55    1
    59    32    56    1
