REMARK  7 active torsions:
REMARK  status: ('A' for Active; 'I' for Inactive)
REMARK    1  A    between atoms: O_2  and  C_3 
REMARK    2  A    between atoms: C_6  and  C_7 
REMARK       I    between atoms: C_7  and  N_9 
REMARK       I    between atoms: C_10  and  N_11 
REMARK       I    between atoms: C_10  and  N_23 
REMARK    3  A    between atoms: N_11  and  C_12 
REMARK    4  A    between atoms: C_12  and  C_13 
REMARK    5  A    between atoms: C_13  and  C_14 
REMARK    6  A    between atoms: N_23  and  C_24 
REMARK    7  A    between atoms: C_32  and  O_33 
ROOT
ATOM      1  C   UNL d   1       5.370   0.354   4.894  0.00  0.00     0.294 C 
ATOM      2  O   UNL d   1       6.372   1.087   4.877  0.00  0.00    -0.265 OA
ATOM      3  N   UNL d   1       4.921  -0.322   6.008  0.00  0.00    -0.023 NA
ATOM      4  C   UNL d   1       5.503  -0.142   7.165  0.00  0.00     0.704 C 
ATOM      5  N   UNL d   1       5.025  -0.806   8.269  0.00  0.00    -0.224 N 
ATOM      6  N   UNL d   1       6.546   0.717   7.424  0.00  0.00    -0.190 N 
ATOM      7  H   UNL d   1       5.394  -0.523   9.169  0.00  0.00     0.177 HD
ATOM      8  H   UNL d   1       6.907   1.185   6.588  0.00  0.00     0.184 HD
ENDROOT
BRANCH   5   9
ATOM      9  C   UNL d   1       3.845  -1.632   8.259  0.00  0.00     0.142 C 
BRANCH   9  10
ATOM     10  C   UNL d   1       3.574  -2.209   9.639  0.00  0.00     0.057 C 
BRANCH  10  11
ATOM     11  C   UNL d   1       2.358  -3.077   9.759  0.00  0.00    -0.048 A 
ATOM     12  C   UNL d   1       2.055  -3.667  10.915  0.00  0.00    -0.006 A 
ATOM     13  C   UNL d   1       2.710  -3.642  12.172  0.00  0.00     0.014 A 
ATOM     14  C   UNL d   1       0.856  -4.474  10.667  0.00  0.00     0.038 A 
ATOM     15  C   UNL d   1       2.273  -4.468  13.127  0.00  0.00     0.001 A 
ATOM     16  C   UNL d   1       1.074  -5.271  12.938  0.00  0.00     0.002 A 
ATOM     17  C   UNL d   1       0.365  -5.303  11.789  0.00  0.00     0.030 A 
ATOM     18  N   UNL d   1       0.428  -4.324   9.470  0.00  0.00    -0.385 N 
ATOM     19  C   UNL d   1       1.357  -3.440   8.698  0.00  0.00     0.155 A 
ATOM     20  H   UNL d   1      -0.431  -4.761   9.136  0.00  0.00     0.160 HD
ENDBRANCH  10  11
ENDBRANCH   9  10
ENDBRANCH   5   9
BRANCH   6  21
ATOM     21  C   UNL d   1       7.424   0.808   8.521  0.00  0.00     0.049 A 
ATOM     22  C   UNL d   1       7.946   2.062   8.884  0.00  0.00     0.033 A 
ATOM     23  C   UNL d   1       8.799   2.189   9.986  0.00  0.00     0.044 A 
ATOM     24  C   UNL d   1       9.067   1.079  10.776  0.00  0.00     0.116 A 
ATOM     25  F   UNL d   1       9.813   1.211  11.880  0.00  0.00    -0.206 F 
ATOM     26  C   UNL d   1       8.562  -0.168  10.442  0.00  0.00     0.044 A 
ATOM     27  C   UNL d   1       7.771  -0.303   9.302  0.00  0.00     0.033 A 
ENDBRANCH   6  21
BRANCH   1  28
ATOM     28  C   UNL d   1       4.568   0.219   3.630  0.00  0.00     0.037 A 
ATOM     29  C   UNL d   1       4.944   0.902   2.471  0.00  0.00     0.020 A 
ATOM     30  C   UNL d   1       4.130   0.869   1.320  0.00  0.00     0.040 A 
ATOM     31  C   UNL d   1       2.951   0.093   1.255  0.00  0.00     0.101 A 
ATOM     32  C   UNL d   1       2.609  -0.646   2.412  0.00  0.00     0.102 A 
ATOM     33  C   UNL d   1       3.411  -0.558   3.577  0.00  0.00     0.056 A 
BRANCH  31  34
ATOM     34  O   UNL d   1       2.460  -0.033  -0.028  0.00  0.00    -0.353 OA
ATOM     35  C   UNL d   1       1.112   0.298  -0.374  0.00  0.00     0.210 C 
ENDBRANCH  31  34
BRANCH  32  36
ATOM     36  O   UNL d   1       1.600  -1.554   2.645  0.00  0.00    -0.353 OA
ATOM     37  C   UNL d   1       0.633  -1.638   1.637  0.00  0.00     0.210 C 
ENDBRANCH  32  36
ENDBRANCH   1  28
TORSDOF 7
