@<TRIPOS>MOLECULE
*****
 36 36 0 0 0
SMALL
GASTEIGER

@<TRIPOS>ATOM
      1 C           1.0672   -0.0351    0.0748 C.3     1  UNL1       -0.0639
      2 C           2.5944   -0.0321    0.0557 C.3     1  UNL1       -0.0402
      3 C           3.1464    0.1634   -1.3611 C.3     1  UNL1        0.0128
      4 N           4.6072    0.1818   -1.4325 N.am    1  UNL1       -0.2982
      5 C           5.2571    0.3400   -2.6410 C.2     1  UNL1        0.3160
      6 O           4.6665    0.4718   -3.7118 O.2     1  UNL1       -0.2513
      7 N           6.6402    0.3053   -2.5488 N.am    1  UNL1       -0.2180
      8 N           7.4149    0.3677   -3.7545 N.am    1  UNL1       -0.2292
      9 C           8.8077    0.4368   -3.7557 C.2     1  UNL1        0.2602
     10 O           9.4023    1.2294   -4.4864 O.2     1  UNL1       -0.2687
     11 C           9.5993   -0.5627   -2.9617 C.ar    1  UNL1        0.0388
     12 C          11.0007   -0.5489   -2.9685 C.ar    1  UNL1       -0.0432
     13 C          11.7246   -1.5432   -2.2828 C.ar    1  UNL1        0.0166
     14 C          11.0627   -2.5673   -1.5679 C.ar    1  UNL1        0.2760
     15 N          11.9095   -3.5763   -0.8850 N.pl3   1  UNL1        0.0799
     16 O          13.1376   -3.4463   -0.9738 O.2     1  UNL1        0.0414
     17 O          11.3706   -4.4967   -0.2607 O.co2   1  UNL1       -0.5760
     18 C           9.6570   -2.5966   -1.5534 C.ar    1  UNL1        0.0273
     19 C           8.7608   -3.5734   -0.8448 C.3     1  UNL1       -0.0333
     20 C           8.9623   -1.6051   -2.2835 C.ar    1  UNL1       -0.0402
     21 H           0.6929   -0.1746    1.0954 H       1  UNL1        0.0230
     22 H           0.6646   -0.8461   -0.5412 H       1  UNL1        0.0230
     23 H           0.6644    0.9113   -0.3010 H       1  UNL1        0.0230
     24 H           2.9559   -0.9783    0.4754 H       1  UNL1        0.0278
     25 H           2.9554    0.7661    0.7148 H       1  UNL1        0.0278
     26 H           2.7813    1.1103   -1.7750 H       1  UNL1        0.0462
     27 H           2.7865   -0.6405   -2.0140 H       1  UNL1        0.0462
     28 H           5.1365    0.0660   -0.5821 H       1  UNL1        0.1503
     29 H           7.1229    0.3408   -1.6607 H       1  UNL1        0.1744
     30 H           6.9476    0.8827   -4.5034 H       1  UNL1        0.1732
     31 H          11.5496    0.2087   -3.5300 H       1  UNL1        0.0627
     32 H          12.8145   -1.5109   -2.3240 H       1  UNL1        0.0685
     33 H           9.2551   -4.3439   -0.2668 H       1  UNL1        0.0280
     34 H           8.1266   -4.0860   -1.5757 H       1  UNL1        0.0280
     35 H           8.1263   -3.0265   -0.1378 H       1  UNL1        0.0280
     36 H           7.8814   -1.6955   -2.3382 H       1  UNL1        0.0630
@<TRIPOS>UNITY_ATOM_ATTR
15 1
charge 1
17 1
charge -1
@<TRIPOS>BOND
     1     1     2    1
     2     2     3    1
     3     3     4    1
     4     4     5   am
     5     5     6    2
     6     5     7   am
     7     7     8    1
     8     8     9   am
     9     9    10    2
    10     9    11    1
    11    11    12   ar
    12    12    13   ar
    13    13    14   ar
    14    14    15    1
    15    15    16    2
    16    15    17    1
    17    14    18   ar
    18    18    19    1
    19    18    20   ar
    20    11    20   ar
    21     1    21    1
    22     1    22    1
    23     1    23    1
    24     2    24    1
    25     2    25    1
    26     3    26    1
    27     3    27    1
    28     4    28    1
    29     7    29    1
    30     8    30    1
    31    12    31    1
    32    13    32    1
    33    19    33    1
    34    19    34    1
    35    19    35    1
    36    20    36    1
