REMARK  5 active torsions:
REMARK  status: ('A' for Active; 'I' for Inactive)
REMARK    1  A    between atoms: C_2  and  O_3 
REMARK    2  A    between atoms: C_2  and  C_12 
REMARK    3  A    between atoms: O_3  and  C_4 
REMARK       I    between atoms: C_12  and  N_14 
REMARK    4  A    between atoms: N_14  and  C_15 
REMARK    5  A    between atoms: N_19  and  C_20 
ROOT
ATOM      1  C   UNL d   1       5.017  -2.910  -1.064  0.00  0.00     0.059 A 
ATOM      2  C   UNL d   1       6.038  -3.524  -0.282  0.00  0.00     0.067 A 
ATOM      3  C   UNL d   1       6.456  -4.825  -0.697  0.00  0.00     0.112 A 
ATOM      4  N   UNL d   1       7.307  -5.703  -0.123  0.00  0.00    -0.147 NA
ATOM      5  N   UNL d   1       7.370  -6.717  -1.031  0.00  0.00    -0.150 N 
ATOM      6  N   UNL d   1       6.586  -6.593  -2.129  0.00  0.00    -0.147 NA
ATOM      7  C   UNL d   1       5.930  -5.443  -1.911  0.00  0.00     0.111 A 
ATOM      8  C   UNL d   1       4.932  -4.835  -2.690  0.00  0.00     0.062 A 
ATOM      9  C   UNL d   1       4.509  -3.561  -2.246  0.00  0.00     0.063 A 
ATOM     10 CL   UNL d   1       3.445  -2.735  -3.357  0.00  0.00    -0.082 Cl
ENDROOT
BRANCH   1  11
ATOM     11  N   UNL d   1       4.498  -1.635  -0.626  0.00  0.00    -0.323 N 
ATOM     12  C   UNL d   1       3.125  -1.456  -0.457  0.00  0.00     0.251 C 
ATOM     13  O   UNL d   1       2.321  -2.381  -0.649  0.00  0.00    -0.270 OA
ATOM     14  H   UNL d   1       5.095  -1.041  -0.058  0.00  0.00     0.169 HD
BRANCH  12  15
ATOM     15  C   UNL d   1       2.616  -0.059   0.027  0.00  0.00     0.217 C 
ATOM     16  C   UNL d   1       1.090  -0.109  -0.139  0.00  0.00     0.050 C 
BRANCH  15  17
ATOM     17  O   UNL d   1       3.053   0.136   1.385  0.00  0.00    -0.335 OA
BRANCH  17  18
ATOM     18  C   UNL d   1       2.752   1.295   2.064  0.00  0.00     0.091 A 
ATOM     19  C   UNL d   1       1.463   1.829   2.170  0.00  0.00     0.040 A 
ATOM     20  C   UNL d   1       1.183   2.946   2.962  0.00  0.00     0.026 A 
ATOM     21  C   UNL d   1       2.183   3.503   3.739  0.00  0.00     0.035 A 
ATOM     22 CL   UNL d   1       1.802   4.811   4.786  0.00  0.00    -0.084 Cl
ATOM     23  C   UNL d   1       3.469   2.970   3.701  0.00  0.00     0.050 A 
ATOM     24  C   UNL d   1       3.751   1.879   2.861  0.00  0.00     0.069 A 
ATOM     25 CL   UNL d   1       5.366   1.260   2.857  0.00  0.00    -0.081 Cl
ENDBRANCH  17  18
ENDBRANCH  15  17
ENDBRANCH  12  15
ENDBRANCH   1  11
BRANCH   5  26
ATOM     26  C   UNL d   1       8.174  -7.881  -0.851  0.00  0.00     0.079 A 
ATOM     27  C   UNL d   1       8.977  -8.349  -1.905  0.00  0.00     0.033 A 
ATOM     28  C   UNL d   1       9.649  -9.573  -1.792  0.00  0.00     0.002 A 
ATOM     29  C   UNL d   1       9.558 -10.315  -0.616  0.00  0.00     0.000 A 
ATOM     30  C   UNL d   1       8.826  -9.815   0.463  0.00  0.00     0.002 A 
ATOM     31  C   UNL d   1       8.115  -8.610   0.344  0.00  0.00     0.033 A 
ENDBRANCH   5  26
TORSDOF 5
