@<TRIPOS>MOLECULE
*****
 34 35 0 0 0
SMALL
GASTEIGER

@<TRIPOS>ATOM
      1 N           4.5270   -1.6374   -1.8090 N.1     1  UNL1       -0.1942
      2 C           4.1453   -0.8866   -0.9975 C.1     1  UNL1        0.0899
      3 C           3.7005    0.0920    0.0296 C.3     1  UNL1        0.1388
      4 N           2.2430    0.0291    0.2331 N.am    1  UNL1       -0.2883
      5 C           1.5552    0.8145    1.1615 C.2     1  UNL1        0.3005
      6 O           2.0776    1.5106    2.0229 O.2     1  UNL1       -0.2651
      7 C           0.0207    0.8827    0.9449 C.2     1  UNL1        0.3032
      8 O          -0.4761    0.0772    0.1642 O.2     1  UNL1       -0.2648
      9 N          -0.6491    1.9131    1.6089 N.am    1  UNL1       -0.2777
     10 C          -2.0598    2.0233    1.6074 C.ar    1  UNL1        0.0338
     11 C          -2.6894    3.2669    1.4911 C.ar    1  UNL1       -0.0405
     12 C          -4.0912    3.3522    1.5196 C.ar    1  UNL1       -0.0600
     13 C          -4.8661    2.1968    1.6213 C.ar    1  UNL1       -0.0616
     14 C          -4.2427    0.9628    1.7724 C.ar    1  UNL1       -0.0600
     15 C          -2.8488    0.8798    1.7673 C.ar    1  UNL1       -0.0405
     16 C           4.2459    1.4913   -0.2886 C.ar    1  UNL1        0.0221
     17 C           5.6236    1.7212   -0.4907 C.ar    1  UNL1       -0.0504
     18 C           6.1179    3.0333   -0.5519 C.ar    1  UNL1       -0.0259
     19 C           5.2489    4.1143   -0.4425 C.ar    1  UNL1        0.1261
     20 F           5.7027    5.3629   -0.5952 F       1  UNL1       -0.2054
     21 C           3.9008    3.9165   -0.2700 C.ar    1  UNL1        0.0092
     22 C           3.4180    2.6250   -0.2894 C.ar    1  UNL1        0.1320
     23 F           2.0884    2.5250   -0.3936 F       1  UNL1       -0.2050
     24 H           4.1368   -0.2150    0.9927 H       1  UNL1        0.0709
     25 H           1.6796   -0.4948   -0.4328 H       1  UNL1        0.1507
     26 H          -0.0990    2.6660    2.0138 H       1  UNL1        0.1553
     27 H          -2.1189    4.1705    1.2939 H       1  UNL1        0.0636
     28 H          -4.5872    4.3181    1.4509 H       1  UNL1        0.0618
     29 H          -5.9513    2.2551    1.5755 H       1  UNL1        0.0618
     30 H          -4.8360    0.0612    1.8983 H       1  UNL1        0.0618
     31 H          -2.3835   -0.0906    1.9147 H       1  UNL1        0.0636
     32 H           6.3269    0.8995   -0.6371 H       1  UNL1        0.0623
     33 H           7.1789    3.2278   -0.6758 H       1  UNL1        0.0646
     34 H           3.2012    4.7347   -0.1617 H       1  UNL1        0.0675
@<TRIPOS>BOND
     1     1     2    3
     2     4     5   am
     3     5     6    2
     4     5     7    1
     5     7     8    2
     6     7     9   am
     7     9    10    1
     8    10    11   ar
     9    11    12   ar
    10    12    13   ar
    11    13    14   ar
    12    14    15   ar
    13    10    15   ar
    14     3    16    1
    15    16    17   ar
    16    17    18   ar
    17    18    19   ar
    18    19    20    1
    19    19    21   ar
    20    21    22   ar
    21    16    22   ar
    22    22    23    1
    23     3     4    1
    24     3     2    1
    25     3    24    1
    26     4    25    1
    27     9    26    1
    28    11    27    1
    29    12    28    1
    30    13    29    1
    31    14    30    1
    32    15    31    1
    33    17    32    1
    34    18    33    1
    35    21    34    1
