@<TRIPOS>MOLECULE
*****
 57 60 0 0 0
SMALL
GASTEIGER

@<TRIPOS>ATOM
      1 C           0.5752    2.2374    0.0062 C.3     1  UNL1       -0.0383
      2 C          -0.2481    0.9792    0.0126 C.ar    1  UNL1       -0.0320
      3 C          -1.6293    1.0968    0.0397 C.ar    1  UNL1       -0.0557
      4 C          -2.4329   -0.0416    0.1175 C.ar    1  UNL1       -0.0401
      5 C          -1.9309   -1.3540    0.1181 C.ar    1  UNL1        0.0362
      6 N          -2.8070   -2.5129    0.1290 N.am    1  UNL1       -0.2692
      7 C          -4.1964   -2.4333    0.3129 C.2     1  UNL1        0.3082
      8 O          -4.7648   -1.3988    0.6629 O.2     1  UNL1       -0.2522
      9 N          -4.9251   -3.5938    0.0512 N.am    1  UNL1       -0.2675
     10 C          -6.3706   -3.5199   -0.0685 C.ar    1  UNL1        0.0576
     11 C          -7.2091   -4.4052    0.6884 C.ar    1  UNL1       -0.0174
     12 C          -8.6215   -4.3888    0.5403 C.ar    1  UNL1        0.0355
     13 N          -9.4754   -5.3812    1.1300 N.am    1  UNL1       -0.2814
     14 C         -10.8323   -5.5453    0.8176 C.2     1  UNL1        0.2483
     15 O         -11.5085   -4.8537    0.0456 O.2     1  UNL1       -0.2699
     16 C         -11.5969   -6.6410    1.4584 C.ar    1  UNL1        0.0372
     17 C         -12.6612   -7.2393    0.7481 C.ar    1  UNL1       -0.0469
     18 C         -13.5633   -8.0798    1.4035 C.ar    1  UNL1       -0.0257
     19 C         -13.3602   -8.3704    2.7459 C.ar    1  UNL1        0.1234
     20 F         -14.1943   -9.2097    3.3728 F       1  UNL1       -0.2055
     21 C         -12.3030   -7.8004    3.4526 C.ar    1  UNL1       -0.0257
     22 C         -11.4220   -6.9246    2.8131 C.ar    1  UNL1       -0.0469
     23 C          -9.1692   -3.3931   -0.2576 C.ar    1  UNL1       -0.0386
     24 C          -8.3690   -2.5343   -0.9966 C.ar    1  UNL1       -0.0371
     25 C          -6.9718   -2.5811   -0.9535 C.ar    1  UNL1        0.0514
     26 N          -6.3294   -1.7290   -1.8294 N.pl3   1  UNL1       -0.3285
     27 C          -5.2228   -2.0730   -2.6964 C.3     1  UNL1        0.0123
     28 C          -4.2920   -0.8819   -2.5834 C.3     1  UNL1       -0.0358
     29 C          -5.2083    0.3020   -2.3219 C.3     1  UNL1       -0.0358
     30 C          -6.4390   -0.2837   -1.6238 C.3     1  UNL1        0.0123
     31 C          -0.5377   -1.4762    0.0463 C.ar    1  UNL1       -0.0218
     32 C           0.2895   -0.3195    0.0149 C.ar    1  UNL1        0.0456
     33 CL          2.0066   -0.5398   -0.0114 Cl      1  UNL1       -0.0832
     34 H          -0.0614    3.1325    0.0025 H       1  UNL1        0.0278
     35 H           1.2059    2.2906   -0.8855 H       1  UNL1        0.0278
     36 H           1.1936    2.2937    0.9072 H       1  UNL1        0.0278
     37 H          -2.1181    2.0689    0.0069 H       1  UNL1        0.0621
     38 H          -3.4953    0.1671    0.1220 H       1  UNL1        0.0636
     39 H          -2.3776   -3.4215    0.0219 H       1  UNL1        0.1564
     40 H          -4.5220   -4.4876    0.2832 H       1  UNL1        0.1564
     41 H          -6.7602   -5.0609    1.4308 H       1  UNL1        0.0655
     42 H          -9.0282   -6.0998    1.6860 H       1  UNL1        0.1551
     43 H         -12.8147   -7.0169   -0.3085 H       1  UNL1        0.0626
     44 H         -14.4322   -8.4820    0.8893 H       1  UNL1        0.0646
     45 H         -12.1964   -8.0101    4.5117 H       1  UNL1        0.0646
     46 H         -10.6535   -6.4209    3.3890 H       1  UNL1        0.0626
     47 H         -10.2358   -3.2500   -0.3709 H       1  UNL1        0.0637
     48 H          -8.8659   -1.8573   -1.6872 H       1  UNL1        0.0637
     49 H          -5.5957   -2.1354   -3.7222 H       1  UNL1        0.0464
     50 H          -4.7285   -3.0189   -2.4600 H       1  UNL1        0.0464
     51 H          -3.6307   -0.7505   -3.4412 H       1  UNL1        0.0281
     52 H          -3.6389   -1.0317   -1.7426 H       1  UNL1        0.0281
     53 H          -5.4926    0.7546   -3.2754 H       1  UNL1        0.0281
     54 H          -4.7320    1.0820   -1.7170 H       1  UNL1        0.0281
     55 H          -7.3483    0.1035   -2.0967 H       1  UNL1        0.0464
     56 H          -6.4689   -0.0021   -0.5640 H       1  UNL1        0.0464
     57 H          -0.0599   -2.4517    0.0281 H       1  UNL1        0.0651
@<TRIPOS>BOND
     1     1     2    1
     2     2     3   ar
     3     3     4   ar
     4     4     5   ar
     5     5     6    1
     6     6     7   am
     7     7     8    2
     8     7     9   am
     9     9    10    1
    10    10    11   ar
    11    11    12   ar
    12    12    13    1
    13    13    14   am
    14    14    15    2
    15    14    16    1
    16    16    17   ar
    17    17    18   ar
    18    18    19   ar
    19    19    20    1
    20    19    21   ar
    21    21    22   ar
    22    16    22   ar
    23    12    23   ar
    24    23    24   ar
    25    24    25   ar
    26    10    25   ar
    27    25    26    1
    28    26    27    1
    29    27    28    1
    30    28    29    1
    31    29    30    1
    32    26    30    1
    33     5    31   ar
    34    31    32   ar
    35     2    32   ar
    36    32    33    1
    37     1    34    1
    38     1    35    1
    39     1    36    1
    40     3    37    1
    41     4    38    1
    42     6    39    1
    43     9    40    1
    44    11    41    1
    45    13    42    1
    46    17    43    1
    47    18    44    1
    48    21    45    1
    49    22    46    1
    50    23    47    1
    51    24    48    1
    52    27    49    1
    53    27    50    1
    54    28    51    1
    55    28    52    1
    56    29    53    1
    57    29    54    1
    58    30    55    1
    59    30    56    1
    60    31    57    1
