REMARK  7 active torsions:
REMARK  status: ('A' for Active; 'I' for Inactive)
REMARK    1  A    between atoms: O_2  and  C_3 
REMARK    2  A    between atoms: C_5  and  N_6 
REMARK       I    between atoms: N_6  and  C_7 
REMARK       I    between atoms: C_7  and  N_9 
REMARK    3  A    between atoms: N_9  and  C_10 
REMARK    4  A    between atoms: C_12  and  C_13 
REMARK    5  A    between atoms: C_13  and  S_14 
REMARK    6  A    between atoms: S_14  and  C_15 
REMARK    7  A    between atoms: C_26  and  O_27 
ROOT
ATOM      1  N   UNL d   1       6.429  -1.900   2.059  0.00  0.00    -0.192 N 
ATOM      2  C   UNL d   1       7.439  -2.906   2.199  0.00  0.00     0.691 C 
ATOM      3  N   UNL d   1       7.181  -4.210   1.903  0.00  0.00    -0.234 N 
ATOM      4  N   UNL d   1       8.715  -2.662   2.675  0.00  0.00    -0.021 N 
ATOM      5  H   UNL d   1       6.739  -0.937   2.153  0.00  0.00     0.184 HD
ATOM      6  H   UNL d   1       6.434  -4.496   1.298  0.00  0.00     0.174 HD
ATOM      7  H   UNL d   1       7.885  -4.925   2.062  0.00  0.00     0.174 HD
ATOM      8  H   UNL d   1       8.963  -1.722   2.954  0.00  0.00     0.203 HD
ENDROOT
BRANCH   4   9
ATOM      9  C   UNL d   1       9.710  -3.687   2.798  0.00  0.00     0.722 A 
ATOM     10  N   UNL d   1       9.719  -4.692   1.971  0.00  0.00    -0.068 NA
ATOM     11  C   UNL d   1      10.693  -5.675   2.141  0.00  0.00     0.068 A 
ATOM     12  C   UNL d   1      11.536  -5.627   3.186  0.00  0.00     0.103 A 
ATOM     13  C   UNL d   1      11.427  -4.547   4.167  0.00  0.00     0.261 A 
ATOM     14  O   UNL d   1      12.088  -4.546   5.186  0.00  0.00    -0.268 OA
ATOM     15  N   UNL d   1      10.526  -3.571   3.868  0.00  0.00    -0.154 N 
ATOM     16  H   UNL d   1      10.385  -2.901   4.609  0.00  0.00     0.187 HD
BRANCH  11  17
ATOM     17  C   UNL d   1      10.741  -6.823   1.087  0.00  0.00     0.141 C 
BRANCH  17  18
ATOM     18  S   UNL d   1      11.983  -8.092   1.520  0.00  0.00    -0.095 SA
BRANCH  18  19
ATOM     19  C   UNL d   1      11.890  -9.320   0.301  0.00  0.00     0.159 A 
ATOM     20  N   UNL d   1      12.004  -9.079  -0.984  0.00  0.00    -0.135 NA
ATOM     21  N   UNL d   1      12.035 -10.252  -1.725  0.00  0.00    -0.146 NA
ATOM     22  C   UNL d   1      11.941 -11.327  -0.969  0.00  0.00     0.096 A 
ATOM     23  C   UNL d   1      11.911 -12.729  -1.465  0.00  0.00     0.081 C 
ATOM     24  S   UNL d   1      11.824 -10.988   0.709  0.00  0.00    -0.045 SA
ENDBRANCH  18  19
ENDBRANCH  17  18
ENDBRANCH  11  17
ENDBRANCH   4   9
BRANCH   1  25
ATOM     25  C   UNL d   1       5.090  -2.020   1.588  0.00  0.00     0.054 C 
ATOM     26  C   UNL d   1       4.288  -0.921   1.252  0.00  0.00     0.066 C 
ATOM     27  C   UNL d   1       3.065  -1.102   0.562  0.00  0.00     0.073 C 
ATOM     28  C   UNL d   1       2.644  -2.380   0.195  0.00  0.00     0.073 C 
ATOM     29  C   UNL d   1       3.380  -3.473   0.597  0.00  0.00     0.073 C 
ATOM     30  C   UNL d   1       4.505  -3.270   1.385  0.00  0.00     0.066 C 
BRANCH  27  31
ATOM     31  O   UNL d   1       2.404   0.036   0.182  0.00  0.00    -0.356 OA
ATOM     32  C   UNL d   1       0.981  -0.065   0.082  0.00  0.00     0.210 C 
ENDBRANCH  27  31
BRANCH  29  33
ATOM     33  O   UNL d   1       3.151  -4.784   0.289  0.00  0.00    -0.356 OA
ATOM     34  C   UNL d   1       2.013  -5.040  -0.524  0.00  0.00     0.210 C 
ENDBRANCH  29  33
ENDBRANCH   1  25
TORSDOF 7
