REMARK  6 active torsions:
REMARK  status: ('A' for Active; 'I' for Inactive)
REMARK    1  A    between atoms: C_2  and  C_3 
REMARK       I    between atoms: C_2  and  N_16 
REMARK    2  A    between atoms: C_3  and  C_4 
REMARK    3  A    between atoms: C_4  and  C_5 
REMARK    4  A    between atoms: C_7  and  C_8 
REMARK    5  A    between atoms: N_16  and  N_17 
REMARK       I    between atoms: N_17  and  C_18 
REMARK       I    between atoms: C_18  and  N_20 
REMARK    6  A    between atoms: N_20  and  C_21 
ROOT
ATOM      1  O   UNL d   1       1.037  -0.095   0.129  0.00  0.00    -0.272 OA
ATOM      2  C   UNL d   1       2.266  -0.074   0.057  0.00  0.00     0.236 C 
ATOM      3  N   UNL d   1       3.032  -0.414   1.151  0.00  0.00    -0.266 N 
ATOM      4  H   UNL d   1       2.539  -0.688   2.005  0.00  0.00     0.190 HD
ENDROOT
BRANCH   2   5
ATOM      5  C   UNL d   1       2.979   0.325  -1.221  0.00  0.00     0.112 C 
BRANCH   5   6
ATOM      6  C   UNL d   1       1.998   0.678  -2.347  0.00  0.00     0.098 C 
BRANCH   6   7
ATOM      7  C   UNL d   1       2.722   0.974  -3.609  0.00  0.00     0.173 A 
ATOM      8  N   UNL d   1       3.326   0.142  -4.425  0.00  0.00    -0.204 NA
ATOM      9  C   UNL d   1       3.829   0.983  -5.389  0.00  0.00     0.189 A 
ATOM     10  N   UNL d   1       3.558   2.283  -5.184  0.00  0.00    -0.106 NA
ATOM     11  O   UNL d   1       2.805   2.277  -4.005  0.00  0.00    -0.196 OA
BRANCH   9  12
ATOM     12  C   UNL d   1       4.584   0.486  -6.524  0.00  0.00     0.014 A 
ATOM     13  C   UNL d   1       5.889   0.935  -6.764  0.00  0.00     0.015 A 
ATOM     14  C   UNL d   1       6.585   0.502  -7.895  0.00  0.00     0.001 A 
ATOM     15  C   UNL d   1       6.007  -0.430  -8.756  0.00  0.00     0.000 A 
ATOM     16  C   UNL d   1       4.717  -0.900  -8.512  0.00  0.00     0.001 A 
ATOM     17  C   UNL d   1       4.005  -0.441  -7.401  0.00  0.00     0.015 A 
ENDBRANCH   9  12
ENDBRANCH   6   7
ENDBRANCH   5   6
ENDBRANCH   2   5
BRANCH   3  18
ATOM     18  N   UNL d   1       4.446  -0.451   1.216  0.00  0.00    -0.249 N 
ATOM     19  C   UNL d   1       5.043  -0.835   2.413  0.00  0.00     0.335 C 
ATOM     20  O   UNL d   1       4.380  -1.127   3.411  0.00  0.00    -0.246 OA
ATOM     21  N   UNL d   1       6.428  -0.859   2.378  0.00  0.00    -0.337 N 
ATOM     22  H   UNL d   1       6.911  -0.541   1.550  0.00  0.00     0.164 HD
ATOM     23  H   UNL d   1       4.986  -0.205   0.399  0.00  0.00     0.192 HD
BRANCH  21  24
ATOM     24  C   UNL d   1       7.225  -1.195   3.535  0.00  0.00     0.086 A 
ATOM     25  C   UNL d   1       8.068  -2.446   3.554  0.00  0.00     0.027 A 
ATOM     26  C   UNL d   1       8.734  -1.104   3.540  0.00  0.00     0.027 A 
ENDBRANCH  21  24
ENDBRANCH   3  18
TORSDOF 6
