@<TRIPOS>MOLECULE
*****
 63 65 0 0 0
SMALL
GASTEIGER

@<TRIPOS>ATOM
      1 C          12.1580    0.4942    5.4870 C.3     1  UNL1       -0.0653
      2 C          11.9306    1.9572    5.1537 C.3     1  UNL1       -0.0555
      3 C          10.5042    2.3593    5.4873 C.3     1  UNL1       -0.0463
      4 C          10.2487    3.8315    5.1684 C.3     1  UNL1        0.0106
      5 C           8.8406    4.1476    5.4799 C.ar    1  UNL1        0.1718
      6 N           8.4436    4.6732    6.6456 N.ar    1  UNL1       -0.0612
      7 O           7.0530    4.4833    6.6120 O.2     1  UNL1       -0.3361
      8 C           6.7633    3.9684    5.3715 C.ar    1  UNL1        0.2474
      9 C           5.3128    3.8193    4.9935 C.3     1  UNL1        0.0970
     10 C           5.2169    2.5213    4.1813 C.3     1  UNL1       -0.0379
     11 N           4.6007    4.8886    4.2329 N.pl3   1  UNL1       -0.3330
     12 C           4.6619    6.2223    4.6022 C.ar    1  UNL1        0.0278
     13 C           3.6165    7.1114    4.3253 C.ar    1  UNL1       -0.0391
     14 C           3.6695    8.4774    4.6943 C.ar    1  UNL1       -0.0387
     15 C           4.7481    8.9600    5.4186 C.ar    1  UNL1        0.0337
     16 N           4.7521   10.2984    5.9213 N.am    1  UNL1       -0.2811
     17 C           5.7768   10.7345    6.7076 C.2     1  UNL1        0.2624
     18 O           6.7176    9.9787    6.9534 O.2     1  UNL1       -0.2696
     19 C           5.8263   12.1387    7.3063 C.3     1  UNL1        0.0463
     20 N           7.1513   12.4607    8.1540 N.4     1  UNL1        0.2418
     21 C           7.7572   13.7718    7.7267 C.3     1  UNL1       -0.0314
     22 C           8.7090   14.2749    8.8045 C.3     1  UNL1       -0.0125
     23 C          10.1618   13.8273    8.6098 C.3     1  UNL1       -0.0481
     24 C          10.3500   12.3828    8.1824 C.3     1  UNL1       -0.0481
     25 C           9.4075   11.4707    8.9349 C.3     1  UNL1       -0.0125
     26 C           8.1389   11.3089    8.1525 C.3     1  UNL1       -0.0314
     27 C           5.8011    8.0730    5.6305 C.ar    1  UNL1       -0.0387
     28 C           5.7695    6.7710    5.1961 C.ar    1  UNL1       -0.0391
     29 N           7.8368    3.7289    4.6532 N.ar    1  UNL1       -0.1945
     30 H          13.1856    0.2074    5.2499 H       1  UNL1        0.0230
     31 H          11.4797   -0.1457    4.9128 H       1  UNL1        0.0230
     32 H          11.9839    0.3071    6.5517 H       1  UNL1        0.0230
     33 H          12.1249    2.1261    4.0885 H       1  UNL1        0.0263
     34 H          12.6328    2.5781    5.7206 H       1  UNL1        0.0263
     35 H          10.2996    2.1714    6.5500 H       1  UNL1        0.0269
     36 H           9.8029    1.7287    4.9228 H       1  UNL1        0.0269
     37 H          10.4348    4.0201    4.1039 H       1  UNL1        0.0345
     38 H          10.9316    4.4730    5.7364 H       1  UNL1        0.0345
     39 H           4.7384    3.6818    5.9175 H       1  UNL1        0.0593
     40 H           5.8324    2.5817    3.2732 H       1  UNL1        0.0252
     41 H           4.1905    2.3099    3.8743 H       1  UNL1        0.0252
     42 H           5.5901    1.6753    4.7705 H       1  UNL1        0.0252
     43 H           4.5787    4.7536    3.2248 H       1  UNL1        0.1468
     44 H           2.7185    6.7362    3.8428 H       1  UNL1        0.0637
     45 H           2.8541    9.1331    4.4109 H       1  UNL1        0.0637
     46 H           3.9380   10.8716    5.7363 H       1  UNL1        0.1550
     47 H           5.0013   12.2810    8.0100 H       1  UNL1        0.0913
     48 H           5.7829   12.8726    6.4982 H       1  UNL1        0.0913
     49 H           6.8378   12.5376    9.1291 H       1  UNL1        0.2038
     50 H           6.9287   14.4773    7.6078 H       1  UNL1        0.0814
     51 H           8.2379   13.6227    6.7535 H       1  UNL1        0.0814
     52 H           8.3542   13.9663    9.7973 H       1  UNL1        0.0317
     53 H           8.6941   15.3697    8.8145 H       1  UNL1        0.0317
     54 H          10.6987   13.9781    9.5529 H       1  UNL1        0.0267
     55 H          10.6398   14.4670    7.8612 H       1  UNL1        0.0267
     56 H          11.3824   12.0636    8.3540 H       1  UNL1        0.0267
     57 H          10.1976   12.2978    7.0964 H       1  UNL1        0.0267
     58 H           9.1953   11.7914    9.9580 H       1  UNL1        0.0317
     59 H           9.8595   10.4717    9.0004 H       1  UNL1        0.0317
     60 H           7.6331   10.4795    8.6550 H       1  UNL1        0.0814
     61 H           8.4126   11.1392    7.1018 H       1  UNL1        0.0814
     62 H           6.7425    8.2719    6.1242 H       1  UNL1        0.0637
     63 H           6.6990    6.2578    5.3493 H       1  UNL1        0.0637
@<TRIPOS>UNITY_ATOM_ATTR
20 1
charge 1
@<TRIPOS>BOND
     1     1     2    1
     2     2     3    1
     3     3     4    1
     4     4     5    1
     5     5     6   ar
     6     6     7   ar
     7     7     8   ar
     8     9    11    1
     9    11    12    1
    10    12    13   ar
    11    13    14   ar
    12    14    15   ar
    13    15    16    1
    14    16    17   am
    15    17    18    2
    16    17    19    1
    17    19    20    1
    18    20    21    1
    19    21    22    1
    20    22    23    1
    21    23    24    1
    22    24    25    1
    23    25    26    1
    24    20    26    1
    25    15    27   ar
    26    27    28   ar
    27    12    28   ar
    28     8    29   ar
    29     5    29   ar
    30     9    10    1
    31     9     8    1
    32     1    30    1
    33     1    31    1
    34     1    32    1
    35     2    33    1
    36     2    34    1
    37     3    35    1
    38     3    36    1
    39     4    37    1
    40     4    38    1
    41     9    39    1
    42    10    40    1
    43    10    41    1
    44    10    42    1
    45    11    43    1
    46    13    44    1
    47    14    45    1
    48    16    46    1
    49    19    47    1
    50    19    48    1
    51    20    49    1
    52    21    50    1
    53    21    51    1
    54    22    52    1
    55    22    53    1
    56    23    54    1
    57    23    55    1
    58    24    56    1
    59    24    57    1
    60    25    58    1
    61    25    59    1
    62    26    60    1
    63    26    61    1
    64    27    62    1
    65    28    63    1
