@<TRIPOS>MOLECULE
*****
 38 38 0 0 0
SMALL
GASTEIGER

@<TRIPOS>ATOM
      1 C           1.0793   -0.0914    0.0647 C.3     1  UNL1       -0.0543
      2 C           2.6133   -0.1170    0.1233 C.3     1  UNL1        0.0314
      3 C           3.1058    1.2526    0.5850 C.3     1  UNL1       -0.0543
      4 C           3.1083   -1.2486    1.0433 C.2     1  UNL1        0.2316
      5 O           2.3388   -2.0094    1.6352 O.2     1  UNL1       -0.2740
      6 N           4.4803   -1.3934    1.1513 N.am    1  UNL1       -0.2339
      7 N           4.9983   -2.4212    1.9811 N.am    1  UNL1       -0.2304
      8 C           6.3671   -2.5238    2.1520 C.2     1  UNL1        0.2601
      9 O           7.1616   -1.7472    1.6106 O.2     1  UNL1       -0.2687
     10 C           6.8949   -3.6409    2.9887 C.ar    1  UNL1        0.0382
     11 C           8.0950   -3.4672    3.6942 C.ar    1  UNL1       -0.0493
     12 C           8.7440   -4.5609    4.2857 C.ar    1  UNL1       -0.0576
     13 C           8.1610   -5.8370    4.2690 C.ar    1  UNL1       -0.0448
     14 C           8.8147   -6.9853    5.0368 C.3     1  UNL1       -0.0215
     15 C           8.9448   -6.6224    6.5243 C.3     1  UNL1       -0.0587
     16 C           8.0395   -8.3058    4.9314 C.3     1  UNL1       -0.0587
     17 C           6.9538   -5.9914    3.5662 C.ar    1  UNL1       -0.0576
     18 C           6.3205   -4.9106    2.9395 C.ar    1  UNL1       -0.0493
     19 H           0.7167    0.7039   -0.5974 H       1  UNL1        0.0237
     20 H           0.6503    0.0835    1.0585 H       1  UNL1        0.0237
     21 H           0.6800   -1.0413   -0.3058 H       1  UNL1        0.0237
     22 H           2.9886   -0.3123   -0.8896 H       1  UNL1        0.0389
     23 H           2.7572    1.4692    1.6007 H       1  UNL1        0.0237
     24 H           2.7315    2.0462   -0.0734 H       1  UNL1        0.0237
     25 H           4.1975    1.3103    0.5848 H       1  UNL1        0.0237
     26 H           5.1664   -0.8133    0.6700 H       1  UNL1        0.1728
     27 H           4.3109   -2.9885    2.4761 H       1  UNL1        0.1731
     28 H           8.5438   -2.4792    3.7766 H       1  UNL1        0.0625
     29 H           9.7146   -4.4069    4.7566 H       1  UNL1        0.0621
     30 H           9.8205   -7.1533    4.6260 H       1  UNL1        0.0343
     31 H           7.9606   -6.4158    6.9609 H       1  UNL1        0.0235
     32 H           9.5659   -5.7336    6.6771 H       1  UNL1        0.0235
     33 H           9.4029   -7.4391    7.0924 H       1  UNL1        0.0235
     34 H           7.0222   -8.1909    5.3261 H       1  UNL1        0.0235
     35 H           8.5222   -9.1061    5.4999 H       1  UNL1        0.0235
     36 H           7.9668   -8.6367    3.8894 H       1  UNL1        0.0235
     37 H           6.4817   -6.9659    3.4710 H       1  UNL1        0.0621
     38 H           5.4078   -5.0999    2.3837 H       1  UNL1        0.0625
@<TRIPOS>BOND
     1     1     2    1
     2     2     3    1
     3     2     4    1
     4     4     5    2
     5     4     6   am
     6     6     7    1
     7     7     8   am
     8     8     9    2
     9     8    10    1
    10    10    11   ar
    11    11    12   ar
    12    12    13   ar
    13    13    14    1
    14    14    15    1
    15    14    16    1
    16    13    17   ar
    17    17    18   ar
    18    10    18   ar
    19     1    19    1
    20     1    20    1
    21     1    21    1
    22     2    22    1
    23     3    23    1
    24     3    24    1
    25     3    25    1
    26     6    26    1
    27     7    27    1
    28    11    28    1
    29    12    29    1
    30    14    30    1
    31    15    31    1
    32    15    32    1
    33    15    33    1
    34    16    34    1
    35    16    35    1
    36    16    36    1
    37    17    37    1
    38    18    38    1
