REMARK  13 active torsions:
REMARK  status: ('A' for Active; 'I' for Inactive)
REMARK    1  A    between atoms: C_2  and  C_3 
REMARK    2  A    between atoms: C_3  and  C_4 
REMARK    3  A    between atoms: C_4  and  N_5 
REMARK       I    between atoms: N_5  and  C_6 
REMARK    4  A    between atoms: C_6  and  C_8 
REMARK    5  A    between atoms: C_8  and  C_9 
REMARK    6  A    between atoms: C_8  and  N_18 
REMARK    7  A    between atoms: C_10  and  O_11 
REMARK    8  A    between atoms: C_13  and  O_14 
REMARK    9  A    between atoms: C_16  and  O_17 
REMARK       I    between atoms: N_18  and  C_19 
REMARK   10  A    between atoms: N_18  and  C_30 
REMARK   11  A    between atoms: C_19  and  C_21 
REMARK   12  A    between atoms: C_21  and  O_22 
REMARK   13  A    between atoms: C_21  and  C_24 
ROOT
ATOM      1  C   UNL d   1       6.900  -2.895  -3.332  0.00  0.00     0.219 C 
ENDROOT
BRANCH   1   2
ATOM      2  C   UNL d   1       6.067  -1.739  -2.592  0.00  0.00     0.245 C 
ATOM      3  N   UNL d   1       4.754  -1.873  -2.236  0.00  0.00    -0.359 N 
ATOM      4  H   UNL d   1       4.204  -2.686  -2.470  0.00  0.00     0.162 HD
ATOM      5  O   UNL d   1       6.517  -0.628  -2.402  0.00  0.00    -0.271 OA
BRANCH   3   6
ATOM      6  C   UNL d   1       4.370  -0.952  -1.172  0.00  0.00     0.122 C 
BRANCH   6   7
ATOM      7  C   UNL d   1       2.892  -0.921  -1.028  0.00  0.00     0.019 C 
BRANCH   7   8
ATOM      8  C   UNL d   1       2.481   0.105   0.010  0.00  0.00    -0.003 C 
ATOM      9  C   UNL d   1       0.971   0.129   0.040  0.00  0.00     0.005 C 
ENDBRANCH   7   8
ENDBRANCH   6   7
ENDBRANCH   3   6
ENDBRANCH   1   2
BRANCH   1  10
ATOM     10  C   UNL d   1       6.429  -2.646  -4.739  0.00  0.00     0.040 A 
ATOM     11  C   UNL d   1       6.521  -1.344  -5.269  0.00  0.00     0.080 A 
ATOM     12  C   UNL d   1       6.100  -1.081  -6.545  0.00  0.00     0.073 A 
ATOM     13  C   UNL d   1       5.700  -2.132  -7.347  0.00  0.00     0.071 A 
ATOM     14  C   UNL d   1       5.607  -3.434  -6.869  0.00  0.00     0.073 A 
ATOM     15  C   UNL d   1       5.897  -3.679  -5.535  0.00  0.00     0.080 A 
BRANCH  11  16
ATOM     16  O   UNL d   1       7.029  -0.227  -4.667  0.00  0.00    -0.360 OA
ATOM     17  H   UNL d   1       7.124  -0.291  -3.694  0.00  0.00     0.217 HD
ENDBRANCH  11  16
BRANCH  13  18
ATOM     18  O   UNL d   1       5.410  -1.895  -8.653  0.00  0.00    -0.361 OA
ATOM     19  H   UNL d   1       5.514  -0.937  -8.790  0.00  0.00     0.217 HD
ENDBRANCH  13  18
BRANCH  15  20
ATOM     20  O   UNL d   1       5.813  -4.955  -5.047  0.00  0.00    -0.360 OA
ATOM     21  H   UNL d   1       5.703  -5.577  -5.792  0.00  0.00     0.217 HD
ENDBRANCH  15  20
ENDBRANCH   1  10
BRANCH   1  22
ATOM     22  N   UNL d   1       8.491  -2.964  -3.234  0.00  0.00    -0.324 N 
ATOM     23  C   UNL d   1       9.280  -2.298  -2.246  0.00  0.00     0.255 C 
ATOM     24  O   UNL d   1      10.515  -2.267  -2.259  0.00  0.00    -0.270 OA
BRANCH  23  25
ATOM     25  C   UNL d   1       8.621  -1.482  -1.148  0.00  0.00     0.245 C 
BRANCH  25  26
ATOM     26  O   UNL d   1       7.843  -2.099  -0.129  0.00  0.00    -0.377 OA
ATOM     27  C   UNL d   1       7.029  -3.212  -0.415  0.00  0.00     0.203 C 
ENDBRANCH  25  26
BRANCH  25  28
ATOM     28  C   UNL d   1       9.531  -0.516  -0.405  0.00  0.00    -0.020 A 
ATOM     29  C   UNL d   1      10.474  -1.039   0.468  0.00  0.00     0.010 A 
ATOM     30  C   UNL d   1      11.146  -0.189   1.326  0.00  0.00     0.001 A 
ATOM     31  C   UNL d   1      10.957   1.193   1.241  0.00  0.00     0.000 A 
ATOM     32  C   UNL d   1      10.067   1.737   0.318  0.00  0.00     0.001 A 
ATOM     33  C   UNL d   1       9.344   0.884  -0.503  0.00  0.00     0.010 A 
ENDBRANCH  25  28
ENDBRANCH  23  25
BRANCH  22  34
ATOM     34  C   UNL d   1       9.253  -4.003  -4.085  0.00  0.00     0.025 C 
ATOM     35  C   UNL d   1       8.861  -5.447  -3.702  0.00  0.00     0.037 C 
ATOM     36  C   UNL d   1       9.051  -3.772  -5.584  0.00  0.00     0.037 C 
ATOM     37  C   UNL d   1      10.803  -3.962  -3.960  0.00  0.00     0.037 C 
ENDBRANCH  22  34
ENDBRANCH   1  22
TORSDOF 13
