REMARK  7 active torsions:
REMARK  status: ('A' for Active; 'I' for Inactive)
REMARK    1  A    between atoms: C_2  and  C_3 
REMARK    2  A    between atoms: C_6  and  N_7 
REMARK    3  A    between atoms: C_11  and  S_12 
REMARK    4  A    between atoms: S_12  and  N_15 
REMARK    5  A    between atoms: N_15  and  C_16 
REMARK    6  A    between atoms: C_19  and  O_20 
REMARK    7  A    between atoms: C_22  and  N_23 
REMARK       I    between atoms: N_23  and  C_24 
ROOT
ATOM      1  N   UNL d   1       4.536   1.634  -0.967  0.00  0.00    -0.281 N 
ATOM      2  H   UNL d   1       3.964   1.552  -0.145  0.00  0.00     0.179 HD
ENDROOT
BRANCH   1   3
ATOM      3  S   UNL d   1       5.102   0.273  -1.817  0.00  0.00     0.263 S 
ATOM      4  O   UNL d   1       6.469   0.068  -1.357  0.00  0.00    -0.200 OA
ATOM      5  O   UNL d   1       4.810   0.402  -3.219  0.00  0.00    -0.200 OA
BRANCH   3   6
ATOM      6  C   UNL d   1       4.194  -1.221  -1.358  0.00  0.00     0.088 A 
ATOM      7  C   UNL d   1       4.652  -2.426  -1.955  0.00  0.00     0.061 A 
ATOM      8  C   UNL d   1       3.979  -3.633  -1.700  0.00  0.00     0.104 A 
ATOM      9  C   UNL d   1       2.885  -3.662  -0.839  0.00  0.00     0.037 A 
ATOM     10  C   UNL d   1       2.395  -2.472  -0.328  0.00  0.00     0.011 A 
ATOM     11  C   UNL d   1       3.016  -1.240  -0.589  0.00  0.00    -0.035 A 
BRANCH   8  12
ATOM     12  N   UNL d   1       4.355  -4.885  -2.371  0.00  0.00    -0.116 N 
ATOM     13  O   UNL d   1       3.693  -5.900  -2.103  0.00  0.00    -0.532 OA
ATOM     14  O   UNL d   1       5.292  -4.850  -3.178  0.00  0.00    -0.532 OA
ENDBRANCH   8  12
BRANCH  11  15
ATOM     15  C   UNL d   1       2.389  -0.018  -0.003  0.00  0.00     0.035 C 
ATOM     16  C   UNL d   1       0.885   0.038   0.094  0.00  0.00     0.010 C 
ENDBRANCH  11  15
ENDBRANCH   3   6
ENDBRANCH   1   3
BRANCH   1  17
ATOM     17  C   UNL d   1       4.953   2.976  -1.210  0.00  0.00     0.045 C 
ATOM     18  C   UNL d   1       4.890   3.955  -0.238  0.00  0.00     0.033 C 
ATOM     19  C   UNL d   1       5.176   5.283  -0.600  0.00  0.00     0.041 C 
ATOM     20  C   UNL d   1       5.501   5.643  -1.936  0.00  0.00     0.095 C 
ATOM     21  C   UNL d   1       5.458   4.652  -2.933  0.00  0.00     0.070 C 
ATOM     22  C   UNL d   1       5.271   3.355  -2.490  0.00  0.00     0.062 C 
BRANCH  20  23
ATOM     23  O   UNL d   1       5.872   6.960  -2.045  0.00  0.00    -0.354 OA
ATOM     24  C   UNL d   1       6.406   7.412  -3.280  0.00  0.00     0.210 C 
ENDBRANCH  20  23
BRANCH  21  25
ATOM     25  N   UNL d   1       5.606   4.860  -4.324  0.00  0.00    -0.325 N 
ATOM     26  C   UNL d   1       5.488   4.074  -5.431  0.00  0.00     0.218 C 
ATOM     27  C   UNL d   1       5.071   2.631  -5.436  0.00  0.00     0.117 C 
ATOM     28  O   UNL d   1       5.745   4.619  -6.513  0.00  0.00    -0.274 OA
ATOM     29  H   UNL d   1       5.810   5.783  -4.658  0.00  0.00     0.169 HD
ENDBRANCH  21  25
ENDBRANCH   1  17
TORSDOF 7
