@<TRIPOS>MOLECULE
*****
 41 42 0 0 0
SMALL
GASTEIGER

@<TRIPOS>ATOM
      1 C           1.1093    0.0769   -0.0426 C.3     1  UNL1       -0.0135
      2 S           2.9296   -0.1135    0.0042 S.3     1  UNL1       -0.1285
      3 C           3.3615    1.3454    0.9298 C.ar    1  UNL1        0.0094
      4 C           3.8326    1.3009    2.2337 C.ar    1  UNL1       -0.0482
      5 C           3.9846    2.4859    2.9661 C.ar    1  UNL1       -0.0590
      6 C           3.7306    3.7298    2.3721 C.ar    1  UNL1       -0.0404
      7 C           3.2962    3.7726    1.0431 C.ar    1  UNL1        0.0345
      8 N           2.9371    4.9943    0.4431 N.am    1  UNL1       -0.2839
      9 C           2.4470    5.1212   -0.8737 C.2     1  UNL1        0.2372
     10 O           2.1923    4.2202   -1.6527 O.2     1  UNL1       -0.2734
     11 C           2.2804    6.5717   -1.3470 C.3     1  UNL1        0.0948
     12 C           3.6434    7.1586   -1.0803 C.3     1  UNL1       -0.0381
     13 N           1.9437    6.5775   -2.7970 N.pl3   1  UNL1       -0.3329
     14 C           1.4854    7.6415   -3.5671 C.ar    1  UNL1        0.0306
     15 C           0.2829    7.4992   -4.2908 C.ar    1  UNL1       -0.0406
     16 C          -0.1909    8.5112   -5.1485 C.ar    1  UNL1       -0.0600
     17 C           0.4793    9.7205   -5.2516 C.ar    1  UNL1       -0.0614
     18 C           1.6419    9.8967   -4.5393 C.ar    1  UNL1       -0.0571
     19 C           2.1502    8.8794   -3.7203 C.ar    1  UNL1       -0.0296
     20 C           3.4165    9.2875   -3.0565 C.3     1  UNL1       -0.0380
     21 C           3.1703    2.5803    0.3372 C.ar    1  UNL1       -0.0271
     22 H           0.6854   -0.7514   -0.6184 H       1  UNL1        0.0344
     23 H           0.7805    1.0118   -0.5113 H       1  UNL1        0.0344
     24 H           0.7027    0.0272    0.9719 H       1  UNL1        0.0344
     25 H           4.0703    0.3436    2.6856 H       1  UNL1        0.0629
     26 H           4.2683    2.4272    4.0145 H       1  UNL1        0.0618
     27 H           3.8708    4.6304    2.9672 H       1  UNL1        0.0636
     28 H           3.0545    5.8233    1.0133 H       1  UNL1        0.1549
     29 H           1.4802    7.0377   -0.7621 H       1  UNL1        0.0591
     30 H           4.4170    6.7133   -1.7178 H       1  UNL1        0.0252
     31 H           3.9761    7.1661   -0.0439 H       1  UNL1        0.0252
     32 H           3.5759    8.2002   -1.2312 H       1  UNL1        0.0252
     33 H           1.6611    5.6451   -3.1200 H       1  UNL1        0.1468
     34 H          -0.3188    6.5957   -4.1992 H       1  UNL1        0.0636
     35 H          -1.0852    8.3583   -5.7450 H       1  UNL1        0.0618
     36 H           0.1174   10.5324   -5.8714 H       1  UNL1        0.0618
     37 H           2.1920   10.8318   -4.6181 H       1  UNL1        0.0621
     38 H           3.9155   10.1625   -3.4754 H       1  UNL1        0.0278
     39 H           4.1481    8.4787   -3.1283 H       1  UNL1        0.0278
     40 H           3.1198    9.6320   -2.0613 H       1  UNL1        0.0278
     41 H           2.8981    2.5659   -0.7068 H       1  UNL1        0.0647
@<TRIPOS>BOND
     1     1     2    1
     2     2     3    1
     3     3     4   ar
     4     4     5   ar
     5     5     6   ar
     6     6     7   ar
     7     7     8    1
     8     8     9   am
     9     9    10    2
    10     9    11    1
    11    11    12    1
    12    11    13    1
    13    13    14    1
    14    14    15   ar
    15    15    16   ar
    16    16    17   ar
    17    17    18   ar
    18    18    19   ar
    19    14    19   ar
    20    19    20    1
    21     7    21   ar
    22     3    21   ar
    23     1    22    1
    24     1    23    1
    25     1    24    1
    26     4    25    1
    27     5    26    1
    28     6    27    1
    29     8    28    1
    30    11    29    1
    31    12    30    1
    32    12    31    1
    33    12    32    1
    34    13    33    1
    35    15    34    1
    36    16    35    1
    37    17    36    1
    38    18    37    1
    39    20    38    1
    40    20    39    1
    41    20    40    1
    42    21    41    1
