REMARK  6 active torsions:
REMARK  status: ('A' for Active; 'I' for Inactive)
REMARK    1  A    between atoms: N_1  and  C_2 
REMARK    2  A    between atoms: C_2  and  C_18 
REMARK    3  A    between atoms: N_3  and  N_4 
REMARK       I    between atoms: N_4  and  C_5 
REMARK       I    between atoms: C_5  and  N_7 
REMARK    4  A    between atoms: N_7  and  C_8 
REMARK    5  A    between atoms: C_12  and  C_13 
REMARK    6  A    between atoms: C_21  and  C_22 
ROOT
ATOM      1  N   UNL d   1       2.479   2.398   0.325  0.00  0.00    -0.227 N 
ATOM      2  C   UNL d   1       3.256   3.555   0.410  0.00  0.00     0.341 C 
ATOM      3  O   UNL d   1       4.492   3.530   0.389  0.00  0.00    -0.245 OA
ATOM      4  N   UNL d   1       2.524   4.739   0.552  0.00  0.00    -0.308 N 
ATOM      5  H   UNL d   1       1.476   2.439   0.281  0.00  0.00     0.194 HD
ATOM      6  H   UNL d   1       1.549   4.691   0.805  0.00  0.00     0.170 HD
ENDROOT
BRANCH   1   7
ATOM      7  N   UNL d   1       3.117   1.167   0.248  0.00  0.00    -0.151 NA
ATOM      8  C   UNL d   1       2.442   0.065   0.076  0.00  0.00     0.170 C 
BRANCH   8   9
ATOM      9  N   UNL d   1       1.065  -0.003  -0.054  0.00  0.00    -0.381 N 
ATOM     10  H   UNL d   1       0.510   0.787   0.231  0.00  0.00     0.157 HD
ATOM     11  H   UNL d   1       0.613  -0.899   0.099  0.00  0.00     0.157 HD
ENDBRANCH   8   9
BRANCH   8  12
ATOM     12  C   UNL d   1       3.219  -1.259  -0.039  0.00  0.00     0.103 A 
ATOM     13  C   UNL d   1       2.803  -2.217  -0.962  0.00  0.00     0.036 A 
ATOM     14  C   UNL d   1       3.492  -3.432  -1.043  0.00  0.00     0.020 A 
ATOM     15  C   UNL d   1       4.581  -3.672  -0.202  0.00  0.00     0.065 A 
ATOM     16  C   UNL d   1       4.923  -2.661   0.690  0.00  0.00     0.133 A 
ATOM     17  N   UNL d   1       4.266  -1.472   0.799  0.00  0.00    -0.256 NA
BRANCH  15  18
ATOM     18  C   UNL d   1       5.361  -4.956  -0.240  0.00  0.00     0.418 C 
ATOM     19  F   UNL d   1       6.676  -4.770  -0.535  0.00  0.00    -0.166 F 
ATOM     20  F   UNL d   1       5.332  -5.622   0.947  0.00  0.00    -0.166 F 
ATOM     21  F   UNL d   1       4.896  -5.841  -1.168  0.00  0.00    -0.166 F 
ENDBRANCH  15  18
ENDBRANCH   8  12
ENDBRANCH   1   7
BRANCH   4  22
ATOM     22  C   UNL d   1       3.153   6.017   0.621  0.00  0.00     0.037 A 
ATOM     23  C   UNL d   1       2.675   7.030   1.463  0.00  0.00     0.029 A 
ATOM     24  C   UNL d   1       3.281   8.300   1.467  0.00  0.00     0.003 A 
ATOM     25  C   UNL d   1       4.376   8.563   0.643  0.00  0.00     0.016 A 
ATOM     26  C   UNL d   1       4.850   7.569  -0.221  0.00  0.00     0.050 A 
ATOM     27  C   UNL d   1       4.238   6.305  -0.211  0.00  0.00     0.045 A 
BRANCH  26  28
ATOM     28  C   UNL d   1       5.964   7.861  -1.190  0.00  0.00     0.417 C 
ATOM     29  F   UNL d   1       5.654   8.898  -2.019  0.00  0.00    -0.166 F 
ATOM     30  F   UNL d   1       7.125   8.211  -0.574  0.00  0.00    -0.166 F 
ATOM     31  F   UNL d   1       6.269   6.817  -2.009  0.00  0.00    -0.166 F 
ENDBRANCH  26  28
ENDBRANCH   4  22
TORSDOF 6
