@<TRIPOS>MOLECULE
*****
 45 48 0 0 0
SMALL
GASTEIGER

@<TRIPOS>ATOM
      1 O           1.1235   -0.2064   -0.1510 O.2     1  UNL1       -0.2699
      2 C           2.3460   -0.2495   -0.1255 C.2     1  UNL1        0.2484
      3 N           3.0534   -1.2505    0.5384 N.am    1  UNL1       -0.2815
      4 C           2.3610   -2.3957    1.0331 C.ar    1  UNL1        0.0338
      5 C           2.7897   -3.1020    2.1599 C.ar    1  UNL1       -0.0386
      6 C           2.1419   -4.3074    2.5232 C.ar    1  UNL1       -0.0333
      7 C           1.0295   -4.7802    1.7947 C.ar    1  UNL1        0.1087
      8 S           0.1377   -6.2272    2.3947 S.O2    1  UNL1        0.0746
      9 O           1.0632   -7.3484    2.1854 O.2     1  UNL1       -0.1499
     10 O          -0.3183   -5.8689    3.6991 O.2     1  UNL1       -0.1499
     11 N          -1.1791   -6.4415    1.3901 N.pl3   1  UNL1       -0.1836
     12 C          -1.9578   -7.5867    1.5883 C.ar    1  UNL1        0.2347
     13 N          -2.3106   -8.2561    0.4798 N.ar    1  UNL1       -0.2217
     14 C          -3.1353   -9.3139    0.6770 C.ar    1  UNL1        0.0327
     15 C          -3.6492   -9.6649    1.9047 C.ar    1  UNL1       -0.0253
     16 C          -3.2716   -8.8536    2.9466 C.ar    1  UNL1        0.0327
     17 N          -2.4297   -7.8120    2.8131 N.ar    1  UNL1       -0.2217
     18 C           0.5945   -4.0639    0.6904 C.ar    1  UNL1       -0.0333
     19 C           1.2518   -2.8867    0.3312 C.ar    1  UNL1       -0.0386
     20 C           3.0284    0.9849   -0.5908 C.ar    1  UNL1        0.0407
     21 C           4.1770    1.3306   -1.3148 C.ar    1  UNL1       -0.0459
     22 C           4.5707    2.7653   -1.4703 C.ar    1  UNL1       -0.0156
     23 C           3.8101    3.7947   -0.8374 C.ar    1  UNL1        0.1621
     24 C           2.8508    3.2515   -0.0597 C.ar    1  UNL1        0.1628
     25 C           2.3182    2.0118   -0.0670 C.ar    1  UNL1       -0.0042
     26 O           2.7093    3.7630    1.1961 O.3     1  UNL1       -0.4849
     27 C           1.7754    4.7612    0.9584 C.3     1  UNL1        0.1237
     28 C           2.6622    5.8092    0.2923 C.3     1  UNL1        0.1237
     29 O           3.8111    5.1951   -0.6847 O.3     1  UNL1       -0.4849
     30 H           4.0112   -1.0954    0.8151 H       1  UNL1        0.1551
     31 H           3.5784   -2.7118    2.8005 H       1  UNL1        0.0637
     32 H           2.5103   -4.8737    3.3787 H       1  UNL1        0.0638
     33 H          -1.2553   -6.0347    0.4732 H       1  UNL1        0.1767
     34 H          -3.3842   -9.8982   -0.2069 H       1  UNL1        0.0831
     35 H          -4.3039  -10.5152    2.0463 H       1  UNL1        0.0648
     36 H          -3.6427   -9.0193    3.9538 H       1  UNL1        0.0831
     37 H          -0.2332   -4.3712    0.0690 H       1  UNL1        0.0638
     38 H           0.8843   -2.3629   -0.5477 H       1  UNL1        0.0637
     39 H           4.7485    0.5185   -1.7732 H       1  UNL1        0.0626
     40 H           5.5146    2.9121   -2.0115 H       1  UNL1        0.0655
     41 H           1.4867    1.8848    0.6141 H       1  UNL1        0.0663
     42 H           1.3843    4.9069    1.9675 H       1  UNL1        0.0731
     43 H           0.9112    4.4492    0.3400 H       1  UNL1        0.0731
     44 H           3.1651    6.3307    1.1222 H       1  UNL1        0.0731
     45 H           2.0338    6.5557   -0.2224 H       1  UNL1        0.0731
@<TRIPOS>BOND
     1     1     2    2
     2     2     3   am
     3     3     4    1
     4     4     5   ar
     5     5     6   ar
     6     6     7   ar
     7     7     8    1
     8     8     9    2
     9     8    10    2
    10     8    11    1
    11    11    12    1
    12    12    13   ar
    13    13    14   ar
    14    14    15   ar
    15    15    16   ar
    16    16    17   ar
    17    12    17   ar
    18     7    18   ar
    19    18    19   ar
    20     4    19   ar
    21     2    20    1
    22    20    21   ar
    23    21    22   ar
    24    22    23   ar
    25    23    24   ar
    26    24    25   ar
    27    20    25   ar
    28    24    26    1
    29    26    27    1
    30    27    28    1
    31    28    29    1
    32    23    29    1
    33     3    30    1
    34     5    31    1
    35     6    32    1
    36    11    33    1
    37    14    34    1
    38    15    35    1
    39    16    36    1
    40    18    37    1
    41    19    38    1
    42    21    39    1
    43    22    40    1
    44    25    41    1
    45    27    42    1
    46    27    43    1
    47    28    44    1
    48    28    45    1
