@<TRIPOS>MOLECULE
*****
 61 63 0 0 0
SMALL
GASTEIGER

@<TRIPOS>ATOM
      1 C          13.9208    9.1106   -1.3191 C.3     1  UNL1       -0.0307
      2 C          13.4145    7.6897   -1.2072 C.3     1  UNL1        0.0868
      3 O          12.0037    7.7583   -1.3677 O.3     1  UNL1       -0.4922
      4 C          11.3201    6.6285   -1.0738 C.ar    1  UNL1        0.1206
      5 C          10.1389    6.4464   -1.7420 C.ar    1  UNL1       -0.0182
      6 C           9.2687    5.4377   -1.3298 C.ar    1  UNL1       -0.0368
      7 C           9.6700    4.3554   -0.5675 C.ar    1  UNL1        0.0376
      8 N           9.0107    3.0496   -0.6427 N.am    1  UNL1       -0.2551
      9 C           7.9202    2.7000   -1.5657 C.2     1  UNL1        0.2614
     10 O           7.3889    1.5884   -1.5058 O.2     1  UNL1       -0.2689
     11 C           7.4955    3.6008   -2.6318 C.ar    1  UNL1        0.1156
     12 S           5.8864    4.1820   -2.7700 S.2     1  UNL1        0.0190
     13 N           6.2041    5.3419   -3.9459 N.ar    1  UNL1       -0.2031
     14 C           7.4946    5.2382   -4.3078 C.ar    1  UNL1        0.1554
     15 C           8.1590    6.2066   -5.2020 C.2     1  UNL1        0.2624
     16 N           7.4020    7.1030   -5.8905 N.am    1  UNL1       -0.3240
     17 O           9.3923    6.2507   -5.3295 O.2     1  UNL1       -0.2687
     18 C           8.2251    4.1710   -3.6527 C.ar    1  UNL1        0.0765
     19 N           9.5565    3.9428   -3.8297 N.pl3   1  UNL1       -0.3551
     20 C           9.4529    1.9462    0.3099 C.3     1  UNL1        0.1070
     21 C           8.4902    1.8935    1.5332 C.3     1  UNL1       -0.0282
     22 C           7.3426    0.9170    1.3220 C.3     1  UNL1       -0.0631
     23 C          10.9450    1.9127    0.8236 C.2     1  UNL1        0.2342
     24 O          11.2250    1.9481    2.0243 O.2     1  UNL1       -0.2738
     25 N          11.9484    1.9253   -0.1374 N.am    1  UNL1       -0.3109
     26 C          13.3448    2.2120    0.2149 C.3     1  UNL1        0.0232
     27 C          14.3118    1.2184   -0.4008 C.3     1  UNL1       -0.0345
     28 C          15.6755    1.8916   -0.2758 C.3     1  UNL1       -0.0513
     29 C          15.4125    3.3879   -0.3624 C.3     1  UNL1       -0.0513
     30 C          13.8964    3.5379   -0.3258 C.3     1  UNL1       -0.0345
     31 C          10.7883    4.6515    0.2025 C.ar    1  UNL1       -0.0368
     32 C          11.5964    5.7734   -0.0349 C.ar    1  UNL1       -0.0182
     33 H          15.0113    9.1358   -1.2869 H       1  UNL1        0.0262
     34 H          13.5249    9.7171   -0.4962 H       1  UNL1        0.0262
     35 H          13.5693    9.5693   -2.2486 H       1  UNL1        0.0262
     36 H          13.7232    7.2916   -0.2360 H       1  UNL1        0.0694
     37 H          13.8285    7.0670   -2.0069 H       1  UNL1        0.0694
     38 H           9.8598    7.0995   -2.5631 H       1  UNL1        0.0655
     39 H           8.2585    5.5398   -1.6784 H       1  UNL1        0.0637
     40 H           6.3957    7.1385   -5.8063 H       1  UNL1        0.1453
     41 H           7.8862    7.7091   -6.5397 H       1  UNL1        0.1453
     42 H          10.0776    4.7387   -4.2223 H       1  UNL1        0.1424
     43 H          10.0823    3.5717   -3.0419 H       1  UNL1        0.1424
     44 H           9.3633    0.9923   -0.2327 H       1  UNL1        0.0600
     45 H           9.0008    1.5645    2.4458 H       1  UNL1        0.0285
     46 H           8.0959    2.8935    1.7507 H       1  UNL1        0.0285
     47 H           7.7295   -0.0744    1.0633 H       1  UNL1        0.0230
     48 H           6.6741    1.2534    0.5331 H       1  UNL1        0.0230
     49 H           6.7254    0.8270    2.2185 H       1  UNL1        0.0230
     50 H          11.6823    1.9189   -1.1134 H       1  UNL1        0.1490
     51 H          13.4557    2.2235    1.3067 H       1  UNL1        0.0498
     52 H          14.0704    1.0653   -1.4590 H       1  UNL1        0.0283
     53 H          14.2759    0.2499    0.1033 H       1  UNL1        0.0283
     54 H          16.3615    1.5610   -1.0599 H       1  UNL1        0.0266
     55 H          16.1318    1.6563    0.6927 H       1  UNL1        0.0266
     56 H          15.8295    3.8322   -1.2728 H       1  UNL1        0.0266
     57 H          15.8745    3.9121    0.4845 H       1  UNL1        0.0266
     58 H          13.5147    3.7616   -1.3293 H       1  UNL1        0.0283
     59 H          13.6683    4.3679    0.3362 H       1  UNL1        0.0283
     60 H          11.1215    4.0713    1.0463 H       1  UNL1        0.0637
     61 H          12.4358    5.9415    0.6266 H       1  UNL1        0.0655
@<TRIPOS>BOND
     1     1     2    1
     2     2     3    1
     3     3     4    1
     4     4     5   ar
     5     5     6   ar
     6     6     7   ar
     7     7     8    1
     8     8     9   am
     9     9    10    2
    10     9    11    1
    11    11    12   ar
    12    12    13   ar
    13    13    14   ar
    14    14    15    1
    15    15    16   am
    16    15    17    2
    17    14    18   ar
    18    11    18   ar
    19    18    19    1
    20    21    22    1
    21    20    23    1
    22    23    24    2
    23    23    25   am
    24    25    26    1
    25    26    27    1
    26    27    28    1
    27    28    29    1
    28    29    30    1
    29    26    30    1
    30     7    31   ar
    31    31    32   ar
    32     4    32   ar
    33    20    21    1
    34    20     8    1
    35     1    33    1
    36     1    34    1
    37     1    35    1
    38     2    36    1
    39     2    37    1
    40     5    38    1
    41     6    39    1
    42    16    40    1
    43    16    41    1
    44    19    42    1
    45    19    43    1
    46    20    44    1
    47    21    45    1
    48    21    46    1
    49    22    47    1
    50    22    48    1
    51    22    49    1
    52    25    50    1
    53    26    51    1
    54    27    52    1
    55    27    53    1
    56    28    54    1
    57    28    55    1
    58    29    56    1
    59    29    57    1
    60    30    58    1
    61    30    59    1
    62    31    60    1
    63    32    61    1
