@<TRIPOS>MOLECULE
*****
 63 64 0 0 0
SMALL
GASTEIGER

@<TRIPOS>ATOM
      1 C           0.9411    0.0779    0.0194 C.3     1  UNL1       -0.0653
      2 C           2.4582    0.0819    0.0306 C.3     1  UNL1       -0.0559
      3 C           2.9761    0.6729    1.3366 C.3     1  UNL1       -0.0532
      4 C           4.4958    0.6707    1.3715 C.3     1  UNL1       -0.0500
      5 C           5.0043    1.2393    2.6959 C.3     1  UNL1       -0.0186
      6 C           6.5244    1.2199    2.7090 C.3     1  UNL1        0.0896
      7 O           7.0174    1.8501    3.8905 O.3     1  UNL1       -0.4909
      8 C           8.3844    1.9523    3.9657 C.ar    1  UNL1        0.1344
      9 C           8.9305    1.5888    5.2038 C.ar    1  UNL1       -0.0181
     10 C          10.3113    1.6906    5.4218 C.ar    1  UNL1       -0.0461
     11 C          11.1809    2.1718    4.4177 C.ar    1  UNL1        0.0383
     12 C          12.6355    2.2670    4.7200 C.2     1  UNL1        0.2496
     13 O          12.9237    1.8520    5.8486 O.2     1  UNL1       -0.2698
     14 N          13.5776    2.7617    3.7855 N.am    1  UNL1       -0.2636
     15 C          14.9556    2.9533    4.0475 C.2     1  UNL1        0.1411
     16 S          15.6304    2.7056    5.5819 S.2     1  UNL1       -0.0182
     17 N          15.7141    3.4108    2.9355 N.am    1  UNL1       -0.2966
     18 C          17.1524    3.5188    2.9572 C.ar    1  UNL1        0.0328
     19 C          17.8449    4.6357    2.4753 C.ar    1  UNL1       -0.0370
     20 C          19.2605    4.6872    2.5661 C.ar    1  UNL1       -0.0182
     21 C          19.9888    3.6588    3.1818 C.ar    1  UNL1        0.1207
     22 O          21.3445    3.8299    3.3111 O.3     1  UNL1       -0.4897
     23 C          22.0443    2.8081    4.0451 C.3     1  UNL1        0.1128
     24 C          23.5207    3.1751    4.1608 C.3     1  UNL1        0.0817
     25 O          24.2387    2.1423    4.8456 O.3     1  UNL1       -0.3767
     26 C          25.6246    2.4722    4.9476 C.3     1  UNL1        0.0450
     27 C          26.3610    1.3626    5.6716 C.3     1  UNL1       -0.0416
     28 C          19.2971    2.5419    3.6226 C.ar    1  UNL1       -0.0182
     29 C          17.9125    2.4652    3.4740 C.ar    1  UNL1       -0.0370
     30 C          10.6336    2.5533    3.2049 C.ar    1  UNL1       -0.0321
     31 C           9.2494    2.4661    2.9813 C.ar    1  UNL1        0.0602
     32 BR          8.7370    3.2276    1.3112 Br      1  UNL1       -0.0465
     33 H           0.5680   -0.3491   -0.9153 H       1  UNL1        0.0230
     34 H           0.5509    1.0964    0.1139 H       1  UNL1        0.0230
     35 H           0.5502   -0.5172    0.8509 H       1  UNL1        0.0230
     36 H           2.8305    0.6644   -0.8204 H       1  UNL1        0.0263
     37 H           2.8285   -0.9430   -0.0896 H       1  UNL1        0.0263
     38 H           2.5925    0.0926    2.1839 H       1  UNL1        0.0265
     39 H           2.6071    1.6996    1.4507 H       1  UNL1        0.0265
     40 H           4.8816    1.2656    0.5323 H       1  UNL1        0.0266
     41 H           4.8729   -0.3504    1.2367 H       1  UNL1        0.0266
     42 H           4.6097    0.6744    3.5466 H       1  UNL1        0.0298
     43 H           4.6518    2.2723    2.8151 H       1  UNL1        0.0298
     44 H           6.8026    1.7685    1.8199 H       1  UNL1        0.0696
     45 H           6.9080    0.1966    2.6276 H       1  UNL1        0.0696
     46 H           8.2936    1.2287    6.0132 H       1  UNL1        0.0655
     47 H          10.7075    1.3932    6.3965 H       1  UNL1        0.0626
     48 H          13.2470    3.0326    2.8718 H       1  UNL1        0.1568
     49 H          15.2580    3.8854    2.1653 H       1  UNL1        0.1538
     50 H          17.3227    5.5132    2.1014 H       1  UNL1        0.0637
     51 H          19.7977    5.5486    2.1713 H       1  UNL1        0.0655
     52 H          21.9638    1.8443    3.5262 H       1  UNL1        0.0720
     53 H          21.6310    2.6978    5.0571 H       1  UNL1        0.0720
     54 H          23.6250    4.1190    4.7077 H       1  UNL1        0.0594
     55 H          23.9427    3.3130    3.1592 H       1  UNL1        0.0594
     56 H          25.7367    3.4100    5.5024 H       1  UNL1        0.0557
     57 H          26.0447    2.5961    3.9435 H       1  UNL1        0.0557
     58 H          25.9525    1.2155    6.6764 H       1  UNL1        0.0252
     59 H          27.4258    1.6009    5.7565 H       1  UNL1        0.0252
     60 H          26.2550    0.4126    5.1380 H       1  UNL1        0.0252
     61 H          19.7877    1.6996    4.0964 H       1  UNL1        0.0655
     62 H          17.4320    1.5507    3.8076 H       1  UNL1        0.0637
     63 H          11.2565    2.9511    2.4166 H       1  UNL1        0.0637
@<TRIPOS>BOND
     1     1     2    1
     2     2     3    1
     3     3     4    1
     4     4     5    1
     5     5     6    1
     6     6     7    1
     7     7     8    1
     8     8     9   ar
     9     9    10   ar
    10    10    11   ar
    11    11    12    1
    12    12    13    2
    13    12    14   am
    14    14    15    1
    15    15    16    2
    16    15    17    1
    17    17    18    1
    18    18    19   ar
    19    19    20   ar
    20    20    21   ar
    21    21    22    1
    22    22    23    1
    23    23    24    1
    24    24    25    1
    25    25    26    1
    26    26    27    1
    27    21    28   ar
    28    28    29   ar
    29    18    29   ar
    30    11    30   ar
    31    30    31   ar
    32     8    31   ar
    33    31    32    1
    34     1    33    1
    35     1    34    1
    36     1    35    1
    37     2    36    1
    38     2    37    1
    39     3    38    1
    40     3    39    1
    41     4    40    1
    42     4    41    1
    43     5    42    1
    44     5    43    1
    45     6    44    1
    46     6    45    1
    47     9    46    1
    48    10    47    1
    49    14    48    1
    50    17    49    1
    51    19    50    1
    52    20    51    1
    53    23    52    1
    54    23    53    1
    55    24    54    1
    56    24    55    1
    57    26    56    1
    58    26    57    1
    59    27    58    1
    60    27    59    1
    61    27    60    1
    62    28    61    1
    63    29    62    1
    64    30    63    1
