@<TRIPOS>MOLECULE
*****
 38 39 0 0 0
SMALL
GASTEIGER

@<TRIPOS>ATOM
      1 C           3.0584    0.0520   -0.0007 C.3     1  UNL1       -0.0396
      2 C           1.5585    0.1048    0.0009 C.ar    1  UNL1       -0.0485
      3 C           0.8194    1.2698   -0.0002 C.ar    1  UNL1       -0.0560
      4 C          -0.5769    1.1795   -0.0024 C.ar    1  UNL1       -0.0244
      5 C          -1.2280   -0.0807   -0.0028 C.ar    1  UNL1        0.1445
      6 F          -2.5713   -0.0865   -0.0028 F       1  UNL1       -0.2035
      7 C          -0.5008   -1.2862   -0.0034 C.ar    1  UNL1        0.0685
      8 N          -1.1175   -2.6119   -0.0082 N.am    1  UNL1       -0.2935
      9 C          -0.4766   -3.8838   -0.0081 C.2     1  UNL1        0.1511
     10 S           1.1844   -4.2418   -0.0146 S.2     1  UNL1       -0.0171
     11 N          -1.3288   -5.0031   -0.0078 N.am    1  UNL1       -0.2453
     12 N          -0.6935   -6.3317    0.0670 N.am    1  UNL1       -0.2298
     13 C          -1.4003   -7.5209    0.0330 C.2     1  UNL1        0.2784
     14 O          -2.6255   -7.5500   -0.0555 O.2     1  UNL1       -0.2670
     15 C          -0.5837   -8.8136   -0.0042 C.ar    1  UNL1        0.1272
     16 C          -0.9302   -9.7770   -0.9454 C.ar    1  UNL1       -0.0299
     17 C          -0.0721  -10.8606   -1.1611 C.ar    1  UNL1       -0.0404
     18 C           0.9283  -11.1399   -0.2353 C.ar    1  UNL1        0.0728
     19 C           1.6237  -12.3933   -0.2926 C.1     1  UNL1        0.1009
     20 N           2.1721  -13.4234   -0.2875 N.1     1  UNL1       -0.1908
     21 C           1.1412  -10.2035    0.7822 C.ar    1  UNL1        0.0564
     22 C           2.1021  -10.5155    1.9048 C.3     1  UNL1       -0.0211
     23 N           0.4691   -8.9952    0.8470 N.ar    1  UNL1       -0.2459
     24 C           0.8813   -1.1173   -0.0001 C.ar    1  UNL1       -0.0348
     25 H           3.4964    1.0503    0.0042 H       1  UNL1        0.0278
     26 H           3.4134   -0.4801   -0.8922 H       1  UNL1        0.0278
     27 H           3.4165   -0.4899    0.8837 H       1  UNL1        0.0278
     28 H           1.3273    2.2305    0.0005 H       1  UNL1        0.0621
     29 H          -1.1559    2.1005   -0.0047 H       1  UNL1        0.0647
     30 H          -2.1356   -2.5774   -0.0071 H       1  UNL1        0.1539
     31 H          -2.3457   -4.9915   -0.0017 H       1  UNL1        0.1718
     32 H           0.3291   -6.3156    0.0401 H       1  UNL1        0.1731
     33 H          -1.8492   -9.6911   -1.5155 H       1  UNL1        0.0641
     34 H          -0.2066  -11.4950   -2.0352 H       1  UNL1        0.0632
     35 H           2.5665  -11.5041    1.8128 H       1  UNL1        0.0293
     36 H           1.5682  -10.5154    2.8599 H       1  UNL1        0.0293
     37 H           2.9085   -9.7806    1.9223 H       1  UNL1        0.0293
     38 H           1.5586   -1.9413    0.0017 H       1  UNL1        0.0640
@<TRIPOS>BOND
     1     1     2    1
     2     2     3   ar
     3     3     4   ar
     4     4     5   ar
     5     5     6    1
     6     5     7   ar
     7     7     8    1
     8     8     9    1
     9     9    10    2
    10     9    11    1
    11    11    12    1
    12    12    13   am
    13    13    14    2
    14    13    15    1
    15    15    16   ar
    16    16    17   ar
    17    17    18   ar
    18    18    19    1
    19    19    20    3
    20    18    21   ar
    21    21    22    1
    22    21    23   ar
    23    15    23   ar
    24     7    24   ar
    25     2    24   ar
    26     1    25    1
    27     1    26    1
    28     1    27    1
    29     3    28    1
    30     4    29    1
    31     8    30    1
    32    11    31    1
    33    12    32    1
    34    16    33    1
    35    17    34    1
    36    22    35    1
    37    22    36    1
    38    22    37    1
    39    24    38    1
