@<TRIPOS>MOLECULE
*****
 49 50 0 0 0
SMALL
GASTEIGER

@<TRIPOS>ATOM
      1 C           1.0101   -0.1682    0.1133 C.3     1  UNL1       -0.0251
      2 C           2.5355   -0.0395   -0.0290 C.2     1  UNL1        0.0237
      3 C           3.1009    0.8231   -0.9164 C.2     1  UNL1        0.0184
      4 C           2.3438    1.6744   -1.8959 C.2     1  UNL1        0.2426
      5 O           1.1599    1.4605   -2.1478 O.2     1  UNL1       -0.2704
      6 N           3.0622    2.6469   -2.5776 N.am    1  UNL1       -0.2817
      7 C           2.3658    3.4763   -3.5132 C.ar    1  UNL1        0.0380
      8 C           2.7889    3.4703   -4.8526 C.ar    1  UNL1       -0.0401
      9 C           2.0714    4.1747   -5.8252 C.ar    1  UNL1       -0.0586
     10 C           0.9499    4.9147   -5.4626 C.ar    1  UNL1       -0.0430
     11 C           0.5405    4.9605   -4.1276 C.ar    1  UNL1        0.0456
     12 CL         -0.8557    5.9278   -3.7864 Cl      1  UNL1       -0.0832
     13 C           1.2405    4.2558   -3.1268 C.ar    1  UNL1       -0.0110
     14 C           0.8441    4.3811   -1.6739 C.3     1  UNL1       -0.0366
     15 N           3.2620   -0.8758    0.8435 N.pl3   1  UNL1       -0.2683
     16 N           4.6675   -1.0018    0.9368 N.am    1  UNL1       -0.2290
     17 C           5.2932   -1.8792    1.8322 C.2     1  UNL1        0.3152
     18 O           4.7330   -2.6616    2.5977 O.2     1  UNL1       -0.2636
     19 C           6.8577   -1.7895    1.7878 C.2     1  UNL1        0.3046
     20 O           7.3483   -0.9828    1.0009 O.2     1  UNL1       -0.2648
     21 N           7.5786   -2.6789    2.6021 N.am    1  UNL1       -0.2777
     22 C           9.0066   -2.7129    2.6554 C.ar    1  UNL1        0.0352
     23 C           9.7528   -1.5309    2.6456 C.ar    1  UNL1       -0.0401
     24 C          11.1573   -1.5463    2.6877 C.ar    1  UNL1       -0.0557
     25 C          11.8675   -2.7520    2.7137 C.ar    1  UNL1       -0.0320
     26 C          13.3755   -2.7293    2.7229 C.3     1  UNL1       -0.0383
     27 C          11.1223   -3.9418    2.7279 C.ar    1  UNL1        0.0456
     28 CL         11.9241   -5.4774    2.7028 Cl      1  UNL1       -0.0832
     29 C           9.7069   -3.9251    2.7347 C.ar    1  UNL1       -0.0219
     30 H           0.4086    0.5054   -0.4943 H       1  UNL1        0.0290
     31 H           0.6922    0.0622    1.1352 H       1  UNL1        0.0290
     32 H           0.6751   -1.1759   -0.1531 H       1  UNL1        0.0290
     33 H           4.1770    0.9130   -0.9649 H       1  UNL1        0.0685
     34 H           4.0421    2.4599   -2.7509 H       1  UNL1        0.1551
     35 H           3.6291    2.8606   -5.1750 H       1  UNL1        0.0636
     36 H           2.3657    4.1315   -6.8717 H       1  UNL1        0.0619
     37 H           0.3917    5.4587   -6.2221 H       1  UNL1        0.0632
     38 H           0.0175    5.0735   -1.5072 H       1  UNL1        0.0279
     39 H           1.6923    4.7523   -1.0903 H       1  UNL1        0.0279
     40 H           0.5010    3.4379   -1.2487 H       1  UNL1        0.0279
     41 H           2.7178   -1.5091    1.4409 H       1  UNL1        0.1696
     42 H           5.2449   -0.4079    0.3492 H       1  UNL1        0.1732
     43 H           7.0558   -3.4287    3.0476 H       1  UNL1        0.1553
     44 H           9.2510   -0.5669    2.6437 H       1  UNL1        0.0636
     45 H          11.6896   -0.5966    2.6937 H       1  UNL1        0.0621
     46 H          13.7645   -1.7038    2.7312 H       1  UNL1        0.0278
     47 H          13.7809   -3.2184    1.8304 H       1  UNL1        0.0278
     48 H          13.7673   -3.2264    3.6168 H       1  UNL1        0.0278
     49 H           9.1788   -4.8751    2.7296 H       1  UNL1        0.0651
@<TRIPOS>BOND
     1     1     2    1
     2     2     3    2
     3     3     4    1
     4     4     5    2
     5     4     6   am
     6     6     7    1
     7     7     8   ar
     8     8     9   ar
     9     9    10   ar
    10    10    11   ar
    11    11    12    1
    12    11    13   ar
    13     7    13   ar
    14    13    14    1
    15     2    15    1
    16    15    16    1
    17    16    17   am
    18    17    18    2
    19    17    19    1
    20    19    20    2
    21    19    21   am
    22    21    22    1
    23    22    23   ar
    24    23    24   ar
    25    24    25   ar
    26    25    26    1
    27    25    27   ar
    28    27    28    1
    29    27    29   ar
    30    22    29   ar
    31     1    30    1
    32     1    31    1
    33     1    32    1
    34     3    33    1
    35     6    34    1
    36     8    35    1
    37     9    36    1
    38    10    37    1
    39    14    38    1
    40    14    39    1
    41    14    40    1
    42    15    41    1
    43    16    42    1
    44    21    43    1
    45    23    44    1
    46    24    45    1
    47    26    46    1
    48    26    47    1
    49    26    48    1
    50    29    49    1
