@<TRIPOS>MOLECULE
*****
 48 49 0 0 0
SMALL
GASTEIGER

@<TRIPOS>ATOM
      1 C           1.0569   -0.0072   -0.0793 C.3     1  UNL1       -0.0307
      2 C           2.5732    0.0011   -0.0689 C.3     1  UNL1        0.0868
      3 O           3.0273    0.8713   -1.1054 O.3     1  UNL1       -0.4922
      4 C           4.3816    0.8844   -1.3134 C.ar    1  UNL1        0.1212
      5 C           4.9230    2.1143   -1.6977 C.ar    1  UNL1       -0.0199
      6 C           6.2609    2.1985   -2.0661 C.ar    1  UNL1       -0.0576
      7 C           7.0645    1.0573   -1.9954 C.ar    1  UNL1       -0.0494
      8 C           6.5342   -0.1959   -1.6092 C.ar    1  UNL1        0.0405
      9 C           7.4592   -1.3825   -1.6397 C.2     1  UNL1        0.2497
     10 O           8.6081   -1.1353   -1.9686 O.2     1  UNL1       -0.2698
     11 N           6.9896   -2.6836   -1.3156 N.am    1  UNL1       -0.2627
     12 C           7.7493   -3.8720   -1.3273 C.2     1  UNL1        0.1533
     13 S           9.3877   -3.9839   -1.7206 S.2     1  UNL1       -0.0170
     14 N           7.0354   -5.0340   -0.9783 N.am    1  UNL1       -0.2454
     15 N           7.7201   -6.2993   -1.0201 N.am    1  UNL1       -0.2321
     16 C           7.1084   -7.4937   -0.6351 C.2     1  UNL1        0.2695
     17 O           5.9186   -7.5268   -0.3245 O.2     1  UNL1       -0.2702
     18 C           8.0527   -8.7616   -0.6514 C.3     1  UNL1        0.1741
     19 C           9.2714   -8.3963    0.1630 C.3     1  UNL1       -0.0190
     20 O           7.4052   -9.9532   -0.1272 O.3     1  UNL1       -0.4784
     21 C           8.0489  -11.1756   -0.0545 C.ar    1  UNL1        0.1399
     22 C           7.3234  -12.2603   -0.6013 C.ar    1  UNL1       -0.0171
     23 C           7.7570  -13.5937   -0.4422 C.ar    1  UNL1       -0.0398
     24 C           8.9900  -13.8539    0.1366 C.ar    1  UNL1        0.0426
     25 CL          9.6051  -15.4511    0.2765 Cl      1  UNL1       -0.0835
     26 C           9.7246  -12.8151    0.6665 C.ar    1  UNL1       -0.0215
     27 C           9.2094  -11.5145    0.6803 C.ar    1  UNL1        0.0839
     28 CL         10.0274  -10.5860    1.8975 Cl      1  UNL1       -0.0797
     29 C           5.1836   -0.2659   -1.2733 C.ar    1  UNL1       -0.0078
     30 H           0.6726   -0.6228    0.7389 H       1  UNL1        0.0262
     31 H           0.6824   -0.4127   -1.0258 H       1  UNL1        0.0262
     32 H           0.6607    1.0076    0.0165 H       1  UNL1        0.0262
     33 H           2.9045   -1.0308   -0.2144 H       1  UNL1        0.0694
     34 H           2.9410    0.3725    0.8933 H       1  UNL1        0.0694
     35 H           4.3017    3.0077   -1.7155 H       1  UNL1        0.0654
     36 H           6.6748    3.1392   -2.4254 H       1  UNL1        0.0619
     37 H           8.1175    1.1550   -2.2628 H       1  UNL1        0.0625
     38 H           6.0194   -2.7849   -1.0734 H       1  UNL1        0.1569
     39 H           6.0561   -5.0876   -0.7056 H       1  UNL1        0.1718
     40 H           8.7161   -6.2274   -1.2325 H       1  UNL1        0.1729
     41 H           8.3378   -8.9394   -1.6972 H       1  UNL1        0.0829
     42 H           8.9897   -8.4118    1.2219 H       1  UNL1        0.0270
     43 H           9.7297   -7.4274   -0.0179 H       1  UNL1        0.0270
     44 H          10.0556   -9.1117   -0.0853 H       1  UNL1        0.0270
     45 H           6.3795  -12.0947   -1.1211 H       1  UNL1        0.0655
     46 H           7.1284  -14.4255   -0.7542 H       1  UNL1        0.0633
     47 H          10.6642  -13.0216    1.1740 H       1  UNL1        0.0648
     48 H           4.7403   -1.2144   -1.0201 H       1  UNL1        0.0662
@<TRIPOS>BOND
     1     1     2    1
     2     2     3    1
     3     3     4    1
     4     4     5   ar
     5     5     6   ar
     6     6     7   ar
     7     7     8   ar
     8     8     9    1
     9     9    10    2
    10     9    11   am
    11    11    12    1
    12    12    13    2
    13    12    14    1
    14    14    15    1
    15    15    16   am
    16    16    17    2
    17    16    18    1
    18    18    19    1
    19    18    20    1
    20    20    21    1
    21    21    22   ar
    22    22    23   ar
    23    23    24   ar
    24    24    25    1
    25    24    26   ar
    26    26    27   ar
    27    21    27   ar
    28    27    28    1
    29     8    29   ar
    30     4    29   ar
    31     1    30    1
    32     1    31    1
    33     1    32    1
    34     2    33    1
    35     2    34    1
    36     5    35    1
    37     6    36    1
    38     7    37    1
    39    11    38    1
    40    14    39    1
    41    15    40    1
    42    18    41    1
    43    19    42    1
    44    19    43    1
    45    19    44    1
    46    22    45    1
    47    23    46    1
    48    26    47    1
    49    29    48    1
