REMARK  5 active torsions:
REMARK  status: ('A' for Active; 'I' for Inactive)
REMARK    1  A    between atoms: C_2  and  C_3 
REMARK    2  A    between atoms: C_2  and  N_8 
REMARK    3  A    between atoms: C_3  and  C_4 
REMARK       I    between atoms: C_4  and  N_6 
REMARK    4  A    between atoms: N_6  and  N_7 
REMARK    5  A    between atoms: N_8  and  C_9 
ROOT
ATOM      1  N   UNL d   1       3.005  -0.023   1.319  0.00  0.00    -0.385 N 
ATOM      2  H   UNL d   1       2.385  -0.498   1.967  0.00  0.00     0.160 HD
ENDROOT
BRANCH   1   3
ATOM      3  C   UNL d   1       2.473   0.094  -0.071  0.00  0.00     0.086 C 
ATOM      4  C   UNL d   1       0.936   0.013   0.008  0.00  0.00     0.032 C 
BRANCH   3   5
ATOM      5  C   UNL d   1       2.883   1.424  -0.712  0.00  0.00     0.128 C 
BRANCH   5   6
ATOM      6  C   UNL d   1       2.387   1.647  -2.112  0.00  0.00     0.233 C 
ATOM      7  O   UNL d   1       1.759   0.817  -2.772  0.00  0.00    -0.272 OA
ATOM      8  N   UNL d   1       2.784   2.868  -2.644  0.00  0.00    -0.294 N 
ATOM      9  H   UNL d   1       3.326   3.540  -2.101  0.00  0.00     0.183 HD
BRANCH   8  10
ATOM     10  N   UNL d   1       2.345   3.206  -3.938  0.00  0.00    -0.247 NA
ATOM     11  H   UNL d   1       1.777   2.405  -4.261  0.00  0.00     0.143 HD
ATOM     12  H   UNL d   1       3.150   3.204  -4.568  0.00  0.00     0.143 HD
ENDBRANCH   8  10
ENDBRANCH   5   6
ENDBRANCH   3   5
ENDBRANCH   1   3
BRANCH   1  13
ATOM     13  C   UNL d   1       4.373  -0.204   1.587  0.00  0.00     0.039 A 
ATOM     14  C   UNL d   1       5.290   0.743   1.109  0.00  0.00     0.030 A 
ATOM     15  C   UNL d   1       6.664   0.628   1.260  0.00  0.00     0.003 A 
ATOM     16  C   UNL d   1       7.175  -0.420   1.996  0.00  0.00     0.012 A 
ATOM     17  C   UNL d   1       6.312  -1.352   2.583  0.00  0.00    -0.024 A 
ATOM     18  C   UNL d   1       6.862  -2.349   3.399  0.00  0.00     0.012 A 
ATOM     19  C   UNL d   1       4.899  -1.278   2.366  0.00  0.00     0.001 A 
ATOM     20  C   UNL d   1       6.049  -3.299   4.007  0.00  0.00     0.001 A 
ATOM     21  C   UNL d   1       4.677  -3.268   3.793  0.00  0.00     0.001 A 
ATOM     22  C   UNL d   1       4.111  -2.279   2.979  0.00  0.00     0.014 A 
ENDBRANCH   1  13
TORSDOF 5
