@<TRIPOS>MOLECULE
*****
 51 54 0 0 0
SMALL
GASTEIGER

@<TRIPOS>ATOM
      1 C           1.2697   -0.5179    0.1470 C.3     1  UNL1        0.0790
      2 O           2.6246   -0.0751    0.0340 O.3     1  UNL1       -0.4915
      3 C           3.0631    0.5781   -1.0973 C.ar    1  UNL1        0.1615
      4 C           4.1846   -0.0319   -1.6813 C.ar    1  UNL1       -0.0156
      5 C           4.8972    0.5959   -2.7186 C.ar    1  UNL1       -0.0459
      6 C           4.4785    1.8269   -3.2661 C.ar    1  UNL1        0.0408
      7 C           5.2103    2.3475   -4.4669 C.2     1  UNL1        0.2496
      8 O           6.1193    1.6190   -4.8278 O.2     1  UNL1       -0.2698
      9 N           4.8244    3.5476   -5.1430 N.am    1  UNL1       -0.2636
     10 C           5.5003    4.0940   -6.2722 C.2     1  UNL1        0.1411
     11 S           6.9288    3.4211   -6.8868 S.2     1  UNL1       -0.0182
     12 N           4.9125    5.2792   -6.8171 N.am    1  UNL1       -0.2966
     13 C           5.4034    5.9056   -8.0366 C.ar    1  UNL1        0.0326
     14 C           5.7143    7.2721   -8.1707 C.ar    1  UNL1       -0.0398
     15 C           6.3387    7.7969   -9.3690 C.ar    1  UNL1       -0.0494
     16 C           6.6981    6.9580  -10.4323 C.ar    1  UNL1        0.0174
     17 C           7.4304    7.2646  -11.7079 C.ar    1  UNL1        0.1393
     18 N           7.2934    6.4350  -12.7251 N.ar    1  UNL1       -0.2277
     19 C           8.0195    6.9153  -13.7587 C.ar    1  UNL1        0.0895
     20 C           7.9794    6.4769  -15.0823 C.ar    1  UNL1       -0.0342
     21 C           8.8743    6.9924  -16.0091 C.ar    1  UNL1       -0.0596
     22 C           9.8299    7.9179  -15.5956 C.ar    1  UNL1       -0.0597
     23 C           9.8409    8.4340  -14.2681 C.ar    1  UNL1       -0.0362
     24 C           8.8393    7.9632  -13.3734 C.ar    1  UNL1        0.0665
     25 N           8.2842    8.3027  -12.1224 N.ar    1  UNL1       -0.3379
     26 C           6.2719    5.6190  -10.2970 C.ar    1  UNL1       -0.0494
     27 C           5.6187    5.1187   -9.1607 C.ar    1  UNL1       -0.0398
     28 C           3.4007    2.4511   -2.6690 C.ar    1  UNL1       -0.0042
     29 C           2.7052    1.8594   -1.5831 C.ar    1  UNL1        0.1622
     30 O           1.7718    2.7657   -1.1419 O.3     1  UNL1       -0.4914
     31 C           0.8563    2.2811   -0.2033 C.3     1  UNL1        0.0790
     32 H           1.2115   -1.3837    0.8128 H       1  UNL1        0.0660
     33 H           0.8031   -0.7484   -0.8144 H       1  UNL1        0.0660
     34 H           0.6678    0.1960    0.7116 H       1  UNL1        0.0660
     35 H           4.5357   -1.0015   -1.3258 H       1  UNL1        0.0655
     36 H           5.7972    0.1056   -3.0976 H       1  UNL1        0.0626
     37 H           4.0176    4.0401   -4.7991 H       1  UNL1        0.1568
     38 H           4.3116    5.8518   -6.2371 H       1  UNL1        0.1538
     39 H           5.5700    7.9502   -7.3314 H       1  UNL1        0.0636
     40 H           6.5259    8.8660   -9.4289 H       1  UNL1        0.0625
     41 H           7.2145    5.7625  -15.3509 H       1  UNL1        0.0639
     42 H           8.8238    6.6411  -17.0370 H       1  UNL1        0.0618
     43 H          10.5570    8.2532  -16.3392 H       1  UNL1        0.0618
     44 H          10.6278    9.1343  -13.9947 H       1  UNL1        0.0639
     45 H           8.2945    9.2287  -11.7194 H       1  UNL1        0.1674
     46 H           6.4694    4.9018  -11.0949 H       1  UNL1        0.0625
     47 H           5.3335    4.0694   -9.1631 H       1  UNL1        0.0636
     48 H           3.0739    3.4308   -2.9977 H       1  UNL1        0.0663
     49 H           0.1316    3.0354    0.1001 H       1  UNL1        0.0660
     50 H           1.4054    2.0005    0.7000 H       1  UNL1        0.0660
     51 H           0.2715    1.4984   -0.6947 H       1  UNL1        0.0660
@<TRIPOS>BOND
     1     1     2    1
     2     2     3    1
     3     3     4   ar
     4     4     5   ar
     5     5     6   ar
     6     6     7    1
     7     7     8    2
     8     7     9   am
     9     9    10    1
    10    10    11    2
    11    10    12    1
    12    12    13    1
    13    13    14   ar
    14    14    15   ar
    15    15    16   ar
    16    16    17    1
    17    17    18   ar
    18    18    19   ar
    19    19    20   ar
    20    20    21   ar
    21    21    22   ar
    22    22    23   ar
    23    23    24   ar
    24    19    24   ar
    25    24    25   ar
    26    17    25   ar
    27    16    26   ar
    28    26    27   ar
    29    13    27   ar
    30     6    28   ar
    31    28    29   ar
    32     3    29   ar
    33    29    30    1
    34    30    31    1
    35     1    32    1
    36     1    33    1
    37     1    34    1
    38     4    35    1
    39     5    36    1
    40     9    37    1
    41    12    38    1
    42    14    39    1
    43    15    40    1
    44    20    41    1
    45    21    42    1
    46    22    43    1
    47    23    44    1
    48    25    45    1
    49    26    46    1
    50    27    47    1
    51    28    48    1
    52    31    49    1
    53    31    50    1
    54    31    51    1
