@<TRIPOS>MOLECULE
*****
 66 69 0 0 0
SMALL
GASTEIGER

@<TRIPOS>ATOM
      1 C           0.9415    0.4086   -0.0072 C.3     1  UNL1       -0.0307
      2 C           2.7153    0.7244   -0.2206 C.3     1  UNL1        0.0869
      3 O           4.1076   -0.0253   -0.1837 O.3     1  UNL1       -0.4888
      4 C           4.7602   -1.3535   -0.1515 C.ar    1  UNL1        0.1587
      5 C           5.1218   -2.2695   -1.2384 C.ar    1  UNL1       -0.0165
      6 C           6.3877   -2.7949   -1.2797 C.ar    1  UNL1       -0.0581
      7 C           7.2425   -2.2997   -0.3017 C.ar    1  UNL1       -0.0583
      8 C           6.7636   -1.5519    0.8440 C.ar    1  UNL1       -0.0196
      9 C           5.4163   -1.2798    1.0191 C.ar    1  UNL1        0.1415
     10 N           4.6054   -0.7382    2.0669 N.pl3   1  UNL1       -0.2417
     11 C           3.0963   -0.7163    1.9060 C.2     1  UNL1        0.3843
     12 N           2.2547   -1.4000    1.0383 N.am    1  UNL1        0.0006
     13 C           2.3766   -1.7433   -0.4669 C.2     1  UNL1        0.3405
     14 O           3.0162   -1.2294   -1.4293 O.2     1  UNL1       -0.2484
     15 C           1.4083   -2.1333   -1.4822 C.ar    1  UNL1        0.0562
     16 C           1.6555   -3.3593   -2.0399 C.ar    1  UNL1       -0.0463
     17 C           1.1016   -3.6262   -3.2991 C.ar    1  UNL1       -0.0397
     18 C           0.3779   -2.5926   -3.9435 C.ar    1  UNL1        0.0334
     19 N          -0.5835   -2.9350   -4.9132 N.am    1  UNL1       -0.2857
     20 C          -1.5492   -2.1347   -5.4178 C.2     1  UNL1        0.2141
     21 C          -1.8114   -0.6789   -5.0774 C.3     1  UNL1        0.0125
     22 O          -2.3195   -2.6856   -6.2822 O.2     1  UNL1       -0.2758
     23 C           0.5493   -1.3177   -3.6404 C.ar    1  UNL1       -0.0397
     24 C           1.0571   -1.0651   -2.4026 C.ar    1  UNL1       -0.0463
     25 N           2.5685    0.4097    2.7777 N.pl3   1  UNL1       -0.2767
     26 C           1.2744    1.1556    2.5995 C.3     1  UNL1        0.0684
     27 C           0.9000    2.1809    3.6605 C.3     1  UNL1        0.0059
     28 C          -0.5235    2.7093    3.6549 C.2     1  UNL1        0.0106
     29 C          -0.9368    3.4430    4.6881 C.ar    1  UNL1        0.0510
     30 C          -0.2331    3.8235    5.8565 C.ar    1  UNL1       -0.0482
     31 C          -0.9372    4.2982    6.8844 C.ar    1  UNL1       -0.0608
     32 C          -2.3443    4.6307    6.7364 C.ar    1  UNL1       -0.0555
     33 C          -3.0579    4.4081    5.6094 C.ar    1  UNL1        0.0098
     34 C          -2.3558    3.7408    4.4867 C.ar    1  UNL1        0.2086
     35 N          -2.7538    3.3272    3.3412 N.2     1  UNL1       -0.2369
     36 C          -1.6683    2.4990    2.6931 C.3     1  UNL1        0.1661
     37 H           0.4010    1.3466    0.1279 H       1  UNL1        0.0262
     38 H           0.5467   -0.3072    0.7489 H       1  UNL1        0.0262
     39 H           0.3446    0.0270   -0.8234 H       1  UNL1        0.0262
     40 H           2.9340    1.4319    0.5728 H       1  UNL1        0.0694
     41 H           2.8422    1.2030   -1.1758 H       1  UNL1        0.0694
     42 H           4.4818   -2.5450   -2.0906 H       1  UNL1        0.0655
     43 H           6.7172   -3.4176   -2.1178 H       1  UNL1        0.0619
     44 H           8.3043   -2.4922   -0.4342 H       1  UNL1        0.0619
     45 H           7.4978   -1.1338    1.5203 H       1  UNL1        0.0653
     46 H           5.0705    0.0857    2.4481 H       1  UNL1        0.2648
     47 H           2.3779   -4.0221   -1.5639 H       1  UNL1        0.0626
     48 H           1.2662   -4.5996   -3.7221 H       1  UNL1        0.0636
     49 H          -0.6366   -3.9042   -5.1541 H       1  UNL1        0.1548
     50 H          -1.4204   -0.2836   -4.1442 H       1  UNL1        0.0323
     51 H          -2.8724   -0.5260   -4.8823 H       1  UNL1        0.0323
     52 H          -1.4538   -0.0435   -5.8967 H       1  UNL1        0.0323
     53 H           0.3363   -0.4054   -4.1898 H       1  UNL1        0.0636
     54 H           1.3589   -0.0180   -2.3127 H       1  UNL1        0.0626
     55 H           3.2787    1.0536    3.1323 H       1  UNL1        0.2577
     56 H           0.4666    0.4304    2.5681 H       1  UNL1        0.0658
     57 H           1.2777    1.8113    1.7219 H       1  UNL1        0.0658
     58 H           1.5511    3.0672    3.5782 H       1  UNL1        0.0343
     59 H           1.0947    1.7254    4.6338 H       1  UNL1        0.0343
     60 H           0.8329    3.6414    5.9199 H       1  UNL1        0.0626
     61 H          -0.4427    4.4362    7.8415 H       1  UNL1        0.0618
     62 H          -2.7858    5.1149    7.6059 H       1  UNL1        0.0620
     63 H          -4.1073    4.6763    5.5660 H       1  UNL1        0.0683
     64 H          -3.6776    3.5643    2.9763 H       1  UNL1        0.4459
     65 H          -1.4718    2.8672    1.6826 H       1  UNL1        0.1077
     66 H          -2.0107    1.4570    2.6665 H       1  UNL1        0.1077
@<TRIPOS>UNITY_ATOM_ATTR
35 1
charge 1
@<TRIPOS>BOND
     1     1     2    1
     2     2     3    1
     3     3     4    1
     4     4     5   ar
     5     5     6   ar
     6     6     7   ar
     7     7     8   ar
     8     8     9   ar
     9     4     9   ar
    10     9    10    1
    11    10    11    1
    12    11    12    2
    13    12    13    1
    14    13    14    2
    15    13    15    1
    16    15    16   ar
    17    16    17   ar
    18    17    18   ar
    19    18    19    1
    20    19    20   am
    21    20    21    1
    22    20    22    2
    23    18    23   ar
    24    23    24   ar
    25    15    24   ar
    26    11    25    1
    27    25    26    1
    28    26    27    1
    29    27    28    1
    30    28    29    2
    31    29    30   ar
    32    30    31   ar
    33    31    32   ar
    34    32    33   ar
    35    33    34   ar
    36    29    34   ar
    37    34    35    2
    38    35    36    1
    39    28    36    1
    40     1    37    1
    41     1    38    1
    42     1    39    1
    43     2    40    1
    44     2    41    1
    45     5    42    1
    46     6    43    1
    47     7    44    1
    48     8    45    1
    49    10    46    1
    50    16    47    1
    51    17    48    1
    52    19    49    1
    53    21    50    1
    54    21    51    1
    55    21    52    1
    56    23    53    1
    57    24    54    1
    58    25    55    1
    59    26    56    1
    60    26    57    1
    61    27    58    1
    62    27    59    1
    63    30    60    1
    64    31    61    1
    65    32    62    1
    66    33    63    1
    67    35    64    1
    68    36    65    1
    69    36    66    1
