@<TRIPOS>MOLECULE
*****
 51 53 0 0 0
SMALL
GASTEIGER

@<TRIPOS>ATOM
      1 C           1.0642   -0.0692    0.0712 C.3     1  UNL1        0.0788
      2 O           2.4937   -0.0568    0.0187 O.3     1  UNL1       -0.4944
      3 C           3.0868   -0.8873    0.9358 C.ar    1  UNL1        0.1323
      4 C           2.6928   -2.2325    1.0180 C.ar    1  UNL1       -0.0178
      5 C           3.2719   -3.0878    1.9513 C.ar    1  UNL1       -0.0399
      6 C           4.2704   -2.6064    2.7897 C.ar    1  UNL1        0.0419
      7 CL          4.9490   -3.6646    3.9668 Cl      1  UNL1       -0.0835
      8 C           4.7178   -1.2837    2.6784 C.ar    1  UNL1       -0.0277
      9 C           4.1397   -0.4037    1.7366 C.ar    1  UNL1        0.0811
     10 C           4.6675    1.0124    1.6597 C.2     1  UNL1        0.2637
     11 O           5.5530    1.3900    2.4254 O.2     1  UNL1       -0.2685
     12 N           4.1171    1.8520    0.7019 N.am    1  UNL1       -0.2303
     13 N           4.4596    3.2215    0.6434 N.am    1  UNL1       -0.2335
     14 C           3.7888    4.0403   -0.2691 C.2     1  UNL1        0.2394
     15 O           2.9730    3.5692   -1.0621 O.2     1  UNL1       -0.2734
     16 C           4.1999    5.5329   -0.2088 C.3     1  UNL1        0.0790
     17 S           3.3375    6.5147   -1.5360 S.3     1  UNL1       -0.0766
     18 C           4.0423    8.1087   -1.7232 C.ar    1  UNL1        0.1925
     19 N           3.2987    9.1736   -1.5702 N.ar    1  UNL1       -0.1446
     20 N           4.1273   10.2277   -1.8655 N.ar    1  UNL1       -0.2258
     21 C           5.3944    9.7768   -2.1856 C.ar    1  UNL1        0.3448
     22 O           6.3724   10.4530   -2.4153 O.2     1  UNL1       -0.2450
     23 N           5.3003    8.4011   -2.1612 N.ar    1  UNL1       -0.2704
     24 C           6.4587    7.6325   -2.5463 C.3     1  UNL1        0.0340
     25 C           6.1657    6.1671   -2.6558 C.3     1  UNL1       -0.0094
     26 C           7.2662    5.1869   -2.7306 C.ar    1  UNL1       -0.0457
     27 C           6.9827    3.8145   -2.6466 C.ar    1  UNL1       -0.0585
     28 C           8.0367    2.9138   -2.6184 C.ar    1  UNL1       -0.0615
     29 C           9.3467    3.3841   -2.7292 C.ar    1  UNL1       -0.0617
     30 C           9.6161    4.7482   -2.7674 C.ar    1  UNL1       -0.0615
     31 C           8.5760    5.6469   -2.7431 C.ar    1  UNL1       -0.0585
     32 H           0.7026    0.6789   -0.6394 H       1  UNL1        0.0660
     33 H           0.7064    0.2045    1.0700 H       1  UNL1        0.0660
     34 H           0.6517   -1.0343   -0.2355 H       1  UNL1        0.0660
     35 H           1.9420   -2.6375    0.3455 H       1  UNL1        0.0655
     36 H           2.9390   -4.1218    2.0134 H       1  UNL1        0.0633
     37 H           5.5180   -0.9427    3.3334 H       1  UNL1        0.0641
     38 H           3.3740    1.5394    0.0737 H       1  UNL1        0.1731
     39 H           5.2410    3.5143    1.2274 H       1  UNL1        0.1728
     40 H           5.2906    5.4721   -0.1991 H       1  UNL1        0.0476
     41 H           3.9621    5.9806    0.7518 H       1  UNL1        0.0476
     42 H           3.8451   11.1982   -1.8278 H       1  UNL1        0.1937
     43 H           7.1993    7.8277   -1.7566 H       1  UNL1        0.0497
     44 H           6.8779    8.0183   -3.4818 H       1  UNL1        0.0497
     45 H           5.3526    5.9335   -3.3473 H       1  UNL1        0.0330
     46 H           5.8604    5.9941   -1.6593 H       1  UNL1        0.0330
     47 H           5.9557    3.4458   -2.5983 H       1  UNL1        0.0620
     48 H           7.8440    1.8494   -2.5200 H       1  UNL1        0.0618
     49 H          10.1710    2.6845   -2.7918 H       1  UNL1        0.0618
     50 H          10.6269    5.1336   -2.8187 H       1  UNL1        0.0618
     51 H           8.7997    6.7083   -2.7366 H       1  UNL1        0.0620
@<TRIPOS>BOND
     1     1     2    1
     2     2     3    1
     3     3     4   ar
     4     4     5   ar
     5     5     6   ar
     6     6     7    1
     7     6     8   ar
     8     8     9   ar
     9     3     9   ar
    10     9    10    1
    11    10    11    2
    12    10    12   am
    13    12    13    1
    14    13    14   am
    15    14    15    2
    16    14    16    1
    17    16    17    1
    18    17    18    1
    19    18    19   ar
    20    19    20   ar
    21    20    21   ar
    22    21    22    2
    23    21    23   ar
    24    18    23   ar
    25    23    24    1
    26    24    25    1
    27    25    26    1
    28    26    27   ar
    29    27    28   ar
    30    28    29   ar
    31    29    30   ar
    32    30    31   ar
    33    26    31   ar
    34     1    32    1
    35     1    33    1
    36     1    34    1
    37     4    35    1
    38     5    36    1
    39     8    37    1
    40    12    38    1
    41    13    39    1
    42    16    40    1
    43    16    41    1
    44    20    42    1
    45    24    43    1
    46    24    44    1
    47    25    45    1
    48    25    46    1
    49    27    47    1
    50    28    48    1
    51    29    49    1
    52    30    50    1
    53    31    51    1
