@<TRIPOS>MOLECULE
*****
 67 70 0 0 0
SMALL
GASTEIGER

@<TRIPOS>ATOM
      1 C           1.0896    0.3560   -0.2984 C.3     1  UNL1       -0.0108
      2 C           2.5633    0.0716   -0.0888 C.3     1  UNL1        0.0878
      3 N           2.9097   -0.7332    1.1714 N.pl3   1  UNL1       -0.3883
      4 C           2.0619   -1.7957    1.8469 C.3     1  UNL1        0.0878
      5 C           0.5656   -1.6003    1.7243 C.3     1  UNL1       -0.0108
      6 C           4.3933   -1.0394    1.2334 C.ar    1  UNL1        0.1446
      7 C           4.9833   -2.3072    1.3697 C.ar    1  UNL1        0.0053
      8 C           6.3720   -2.4382    1.6946 C.ar    1  UNL1       -0.0345
      9 C           7.2069   -1.3119    1.7849 C.ar    1  UNL1        0.0338
     10 N           8.6257   -1.4255    2.0122 N.am    1  UNL1       -0.2848
     11 C           9.5099   -0.3252    1.9982 C.2     1  UNL1        0.2275
     12 O           9.1168    0.8201    1.8266 O.2     1  UNL1       -0.2746
     13 C          11.0297   -0.6008    2.1918 C.3     1  UNL1        0.0780
     14 S          11.8783    1.0271    2.1578 S.3     1  UNL1       -0.0750
     15 C          13.5789    0.7918    2.3900 C.ar    1  UNL1        0.2105
     16 N          14.1989   -0.3880    2.4706 N.ar    1  UNL1       -0.1443
     17 N          15.4870    0.0139    2.6323 N.ar    1  UNL1       -0.2446
     18 C          15.6108    1.3809    2.6528 C.ar    1  UNL1        0.2317
     19 N          16.8072    2.0213    2.8122 N.pl3   1  UNL1       -0.2054
     20 N          16.8591    3.3897    2.8236 N.2     1  UNL1       -0.1875
     21 C          18.0103    3.9820    2.8882 C.2     1  UNL1        0.0529
     22 C          18.0788    5.4648    2.9000 C.ar    1  UNL1       -0.0020
     23 C          19.0729    6.1733    2.2234 C.ar    1  UNL1       -0.0529
     24 C          19.1075    7.5732    2.3097 C.ar    1  UNL1       -0.0577
     25 C          18.1361    8.2602    3.0474 C.ar    1  UNL1       -0.0193
     26 C          17.1446    7.5468    3.7266 C.ar    1  UNL1        0.1290
     27 O          16.2192    8.2860    4.4339 O.3     1  UNL1       -0.4560
     28 C          15.4073    7.6398    5.3419 C.ar    1  UNL1        0.1284
     29 C          14.0403    7.9057    5.2796 C.ar    1  UNL1       -0.0193
     30 C          13.1802    7.3346    6.2196 C.ar    1  UNL1       -0.0583
     31 C          13.6739    6.4373    7.1681 C.ar    1  UNL1       -0.0615
     32 C          15.0373    6.1556    7.2191 C.ar    1  UNL1       -0.0583
     33 C          15.9089    6.7905    6.3358 C.ar    1  UNL1       -0.0193
     34 C          17.1132    6.1534    3.6286 C.ar    1  UNL1       -0.0107
     35 N          14.4060    1.8806    2.4922 N.ar    1  UNL1       -0.1865
     36 C           6.5826   -0.0756    1.6099 C.ar    1  UNL1       -0.0345
     37 C           5.2231    0.0647    1.3365 C.ar    1  UNL1        0.0053
     38 H           0.9151    1.1175   -1.0637 H       1  UNL1        0.0289
     39 H           0.6325    0.7567    0.6096 H       1  UNL1        0.0289
     40 H           0.5740   -0.5357   -0.6549 H       1  UNL1        0.0289
     41 H           3.0178    1.0586    0.0746 H       1  UNL1        0.0965
     42 H           3.0276   -0.3788   -0.9708 H       1  UNL1        0.0965
     43 H           2.8400    0.0064    1.8809 H       1  UNL1        0.3743
     44 H           2.3131   -1.7078    2.9126 H       1  UNL1        0.0965
     45 H           2.3365   -2.7935    1.4994 H       1  UNL1        0.0965
     46 H           0.2736   -0.5849    1.9985 H       1  UNL1        0.0289
     47 H           0.0043   -2.2582    2.3915 H       1  UNL1        0.0289
     48 H           0.2309   -1.8611    0.7186 H       1  UNL1        0.0289
     49 H           4.4129   -3.2257    1.2475 H       1  UNL1        0.0682
     50 H           6.7668   -3.4364    1.8891 H       1  UNL1        0.0638
     51 H           9.0136   -2.3566    2.1092 H       1  UNL1        0.1548
     52 H          11.3887   -1.2271    1.3711 H       1  UNL1        0.0475
     53 H          11.1903   -1.0906    3.1550 H       1  UNL1        0.0475
     54 H          16.2121   -0.6847    2.7216 H       1  UNL1        0.1919
     55 H          17.6739    1.5017    2.9257 H       1  UNL1        0.1774
     56 H          18.9700    3.4402    2.9507 H       1  UNL1        0.0851
     57 H          19.7922    5.6601    1.5926 H       1  UNL1        0.0624
     58 H          19.8862    8.1346    1.7958 H       1  UNL1        0.0619
     59 H          18.1484    9.3490    3.0777 H       1  UNL1        0.0654
     60 H          13.6434    8.5460    4.4969 H       1  UNL1        0.0654
     61 H          12.1239    7.5886    6.2129 H       1  UNL1        0.0619
     62 H          12.9955    5.9582    7.8688 H       1  UNL1        0.0618
     63 H          15.4247    5.4501    7.9491 H       1  UNL1        0.0619
     64 H          16.9726    6.5792    6.3968 H       1  UNL1        0.0654
     65 H          16.3420    5.5745    4.1269 H       1  UNL1        0.0661
     66 H           7.1092    0.8651    1.6998 H       1  UNL1        0.0638
     67 H           4.8575    1.0802    1.2269 H       1  UNL1        0.0682
@<TRIPOS>UNITY_ATOM_ATTR
3 1
charge 1
@<TRIPOS>BOND
     1     1     2    1
     2     2     3    1
     3     3     4    1
     4     4     5    1
     5     3     6    1
     6     6     7   ar
     7     7     8   ar
     8     8     9   ar
     9     9    10    1
    10    10    11   am
    11    11    12    2
    12    11    13    1
    13    13    14    1
    14    14    15    1
    15    15    16   ar
    16    16    17   ar
    17    17    18   ar
    18    18    19    1
    19    19    20    1
    20    20    21    2
    21    21    22    1
    22    22    23   ar
    23    23    24   ar
    24    24    25   ar
    25    25    26   ar
    26    26    27    1
    27    27    28    1
    28    28    29   ar
    29    29    30   ar
    30    30    31   ar
    31    31    32   ar
    32    32    33   ar
    33    28    33   ar
    34    26    34   ar
    35    22    34   ar
    36    18    35   ar
    37    15    35   ar
    38     9    36   ar
    39    36    37   ar
    40     6    37   ar
    41     1    38    1
    42     1    39    1
    43     1    40    1
    44     2    41    1
    45     2    42    1
    46     3    43    1
    47     4    44    1
    48     4    45    1
    49     5    46    1
    50     5    47    1
    51     5    48    1
    52     7    49    1
    53     8    50    1
    54    10    51    1
    55    13    52    1
    56    13    53    1
    57    17    54    1
    58    19    55    1
    59    21    56    1
    60    23    57    1
    61    24    58    1
    62    25    59    1
    63    29    60    1
    64    30    61    1
    65    31    62    1
    66    32    63    1
    67    33    64    1
    68    34    65    1
    69    36    66    1
    70    37    67    1
