@<TRIPOS>MOLECULE
*****
 44 44 0 0 0
SMALL
GASTEIGER

@<TRIPOS>ATOM
      1 C           3.6089    0.3917   -3.6613 C.3     1  UNL1       -0.0379
      2 C           3.0828   -0.3110   -2.4419 C.ar    1  UNL1       -0.0286
      3 C           2.8328   -1.7085   -2.5125 C.ar    1  UNL1       -0.0436
      4 C           2.3086   -2.4165   -1.4253 C.ar    1  UNL1        0.0088
      5 S           2.0446   -4.1780   -1.5813 S.3     1  UNL1       -0.1192
      6 C           1.3573   -4.7584    0.0513 C.3     1  UNL1        0.0128
      7 C           2.3661   -4.5504    1.1949 C.3     1  UNL1       -0.0506
      8 C          -0.0248   -4.1374    0.3180 C.3     1  UNL1       -0.0506
      9 C           1.1406   -6.2817   -0.0712 C.3     1  UNL1       -0.0506
     10 C           2.0415   -1.6853   -0.2819 C.ar    1  UNL1       -0.0465
     11 C           2.3170   -0.3312   -0.1868 C.ar    1  UNL1       -0.0395
     12 C           2.8151    0.4032   -1.2573 C.ar    1  UNL1        0.0307
     13 N           3.1199    1.7617   -1.1069 N.pl3   1  UNL1       -0.3329
     14 C           2.5133    2.5325    0.0018 C.3     1  UNL1        0.0949
     15 C           0.9733    2.4962   -0.0160 C.3     1  UNL1       -0.0381
     16 C           2.9335    4.0148   -0.0329 C.2     1  UNL1        0.2404
     17 O           2.0949    4.9195   -0.0191 O.2     1  UNL1       -0.2733
     18 N           4.2937    4.2678   -0.0201 N.am    1  UNL1       -0.2388
     19 C           4.8776    5.5071   -0.0157 C.2     1  UNL1        0.3034
     20 N           4.0453    6.5711   -0.0196 N.am    1  UNL1       -0.3130
     21 O           6.1002    5.6521   -0.0093 O.2     1  UNL1       -0.2527
     22 H           3.7869   -0.3014   -4.4895 H       1  UNL1        0.0278
     23 H           4.5565    0.8848   -3.4265 H       1  UNL1        0.0278
     24 H           2.8808    1.1363   -4.0006 H       1  UNL1        0.0278
     25 H           3.0556   -2.2459   -3.4345 H       1  UNL1        0.0632
     26 H           2.6426   -3.5158    1.3866 H       1  UNL1        0.0243
     27 H           3.3058   -5.0800    1.0007 H       1  UNL1        0.0243
     28 H           1.9572   -4.9247    2.1393 H       1  UNL1        0.0243
     29 H          -0.0350   -3.0523    0.4008 H       1  UNL1        0.0243
     30 H          -0.4376   -4.5107    1.2609 H       1  UNL1        0.0243
     31 H          -0.7336   -4.3837   -0.4811 H       1  UNL1        0.0243
     32 H           2.0774   -6.8179   -0.2610 H       1  UNL1        0.0243
     33 H           0.4302   -6.5349   -0.8662 H       1  UNL1        0.0243
     34 H           0.7281   -6.6802    0.8654 H       1  UNL1        0.0243
     35 H           1.6175   -2.1041    0.6128 H       1  UNL1        0.0629
     36 H           2.0919    0.1211    0.7725 H       1  UNL1        0.0636
     37 H           3.2849    2.2701   -1.9705 H       1  UNL1        0.1468
     38 H           2.8846    2.1301    0.9531 H       1  UNL1        0.0591
     39 H           0.5754    2.9940   -0.9065 H       1  UNL1        0.0252
     40 H           0.5776    3.0142    0.8665 H       1  UNL1        0.0252
     41 H           0.5430    1.4929    0.0011 H       1  UNL1        0.0252
     42 H           4.9456    3.4941   -0.0230 H       1  UNL1        0.1591
     43 H           3.0367    6.4261   -0.0181 H       1  UNL1        0.1465
     44 H           4.4036    7.5135   -0.0192 H       1  UNL1        0.1465
@<TRIPOS>BOND
     1     1     2    1
     2     2     3   ar
     3     3     4   ar
     4     4     5    1
     5     5     6    1
     6     6     7    1
     7     6     8    1
     8     6     9    1
     9     4    10   ar
    10    10    11   ar
    11    11    12   ar
    12     2    12   ar
    13    12    13    1
    14    14    16    1
    15    16    17    2
    16    16    18   am
    17    18    19   am
    18    19    20   am
    19    19    21    2
    20    14    15    1
    21    14    13    1
    22     1    22    1
    23     1    23    1
    24     1    24    1
    25     3    25    1
    26     7    26    1
    27     7    27    1
    28     7    28    1
    29     8    29    1
    30     8    30    1
    31     8    31    1
    32     9    32    1
    33     9    33    1
    34     9    34    1
    35    10    35    1
    36    11    36    1
    37    13    37    1
    38    14    38    1
    39    15    39    1
    40    15    40    1
    41    15    41    1
    42    18    42    1
    43    20    43    1
    44    20    44    1
