REMARK  7 active torsions:
REMARK  status: ('A' for Active; 'I' for Inactive)
REMARK    1  A    between atoms: C_2  and  C_3 
REMARK    2  A    between atoms: C_2  and  O_10 
REMARK    3  A    between atoms: C_4  and  C_5 
REMARK    4  A    between atoms: O_10  and  C_11 
REMARK    5  A    between atoms: C_15  and  C_14 
REMARK    6  A    between atoms: N_26  and  C_27 
REMARK    7  A    between atoms: C_27  and  C_28 
ROOT
ATOM      1  C   UNL d   1       8.789   0.035  -1.322  0.00  0.00     0.219 C 
ATOM      2  N   UNL d   1       9.302  -1.149  -1.956  0.00  0.00    -0.332 N 
ATOM      3  C   UNL d   1      10.644  -1.284  -2.080  0.00  0.00     0.256 C 
ATOM      4  O   UNL d   1      11.207  -1.708  -3.107  0.00  0.00    -0.267 OA
ATOM      5  C   UNL d   1      11.353  -0.985  -0.856  0.00  0.00     0.073 A 
ATOM      6  C   UNL d   1      10.684  -0.311   0.145  0.00  0.00     0.088 A 
ATOM      7  S   UNL d   1      11.715   0.032   1.459  0.00  0.00    -0.074 SA
ATOM      8  C   UNL d   1      13.035  -0.805   0.728  0.00  0.00     0.018 A 
ATOM      9  C   UNL d   1      12.690  -1.341  -0.500  0.00  0.00    -0.023 A 
ATOM     10  C   UNL d   1      13.675  -1.944  -1.458  0.00  0.00     0.068 C 
ATOM     11  C   UNL d   1      15.142  -1.938  -1.023  0.00  0.00     0.240 C 
ATOM     12  N   UNL d   1      15.523  -1.102   0.210  0.00  0.00    -0.062 N 
ATOM     13  C   UNL d   1      14.439  -0.684   1.233  0.00  0.00     0.282 C 
ATOM     14  N   UNL d   1       9.380   0.045   0.015  0.00  0.00    -0.358 N 
ATOM     15  H   UNL d   1       8.701  -1.794  -2.443  0.00  0.00     0.165 HD
ATOM     16  H   UNL d   1      16.134  -1.724   0.751  0.00  0.00     0.280 HD
ATOM     17  H   UNL d   1       8.848   0.516   0.741  0.00  0.00     0.162 HD
ENDROOT
BRANCH   1  18
ATOM     18  C   UNL d   1       9.154   1.277  -2.146  0.00  0.00    -0.016 C 
ATOM     19  C   UNL d   1       8.926   1.322  -3.541  0.00  0.00     0.014 C 
ATOM     20  C   UNL d   1       9.439   2.369  -4.322  0.00  0.00     0.038 C 
ATOM     21  C   UNL d   1      10.090   3.425  -3.688  0.00  0.00     0.079 C 
ATOM     22  C   UNL d   1      10.181   3.470  -2.305  0.00  0.00     0.038 C 
ATOM     23  C   UNL d   1       9.780   2.380  -1.549  0.00  0.00     0.014 C 
BRANCH  21  24
ATOM     24  O   UNL d   1      10.623   4.477  -4.484  0.00  0.00    -0.276 OA
BRANCH  24  25
ATOM     25  C   UNL d   1      11.753   5.303  -4.289  0.00  0.00     0.288 C 
ATOM     26  O   UNL d   1      11.935   6.297  -4.980  0.00  0.00    -0.260 OA
BRANCH  25  27
ATOM     27  C   UNL d   1      12.715   4.889  -3.231  0.00  0.00     0.085 C 
ATOM     28  C   UNL d   1      13.843   5.565  -2.931  0.00  0.00     0.043 C 
BRANCH  28  29
ATOM     29  C   UNL d   1      14.697   5.183  -1.833  0.00  0.00     0.075 C 
ATOM     30  C   UNL d   1      14.716   4.001  -1.112  0.00  0.00     0.039 C 
ATOM     31  C   UNL d   1      15.844   3.941  -0.277  0.00  0.00     0.027 C 
ATOM     32  C   UNL d   1      16.390   5.186  -0.363  0.00  0.00     0.142 C 
ATOM     33  O   UNL d   1      15.728   5.939  -1.289  0.00  0.00    -0.323 OA
ENDBRANCH  28  29
ENDBRANCH  25  27
ENDBRANCH  24  25
ENDBRANCH  21  24
ENDBRANCH   1  18
BRANCH  12  34
ATOM     34  C   UNL d   1      16.399   0.082  -0.241  0.00  0.00     0.273 C 
BRANCH  34  35
ATOM     35  C   UNL d   1      15.766   0.873  -1.365  0.00  0.00    -0.033 C 
ATOM     36  C   UNL d   1      14.386   0.849  -1.567  0.00  0.00     0.009 C 
ATOM     37  C   UNL d   1      13.701   1.218  -2.710  0.00  0.00     0.001 C 
ATOM     38  C   UNL d   1      14.391   2.021  -3.568  0.00  0.00     0.000 C 
ATOM     39  C   UNL d   1      15.743   2.299  -3.300  0.00  0.00     0.001 C 
ATOM     40  C   UNL d   1      16.455   1.671  -2.253  0.00  0.00     0.009 C 
ENDBRANCH  34  35
ENDBRANCH  12  34
TORSDOF 7
