REMARK  11 active torsions:
REMARK  status: ('A' for Active; 'I' for Inactive)
REMARK    1  A    between atoms: C_4  and  O_5 
REMARK    2  A    between atoms: O_5  and  C_6 
REMARK    3  A    between atoms: C_6  and  C_7 
REMARK       I    between atoms: C_7  and  N_9 
REMARK    4  A    between atoms: N_9  and  C_10 
REMARK    5  A    between atoms: C_10  and  N_12 
REMARK    6  A    between atoms: N_12  and  N_13 
REMARK       I    between atoms: N_13  and  C_14 
REMARK    7  A    between atoms: C_14  and  C_16 
REMARK    8  A    between atoms: C_16  and  C_17 
REMARK    9  A    between atoms: C_17  and  C_18 
REMARK       I    between atoms: C_18  and  N_20 
REMARK   10  A    between atoms: N_20  and  C_21 
REMARK   11  A    between atoms: C_21  and  C_22 
ROOT
ATOM      1  N   UNL d   1      10.091  -2.384   0.059  0.00  0.00    -0.273 N 
ATOM      2  H   UNL d   1       9.796  -3.359   0.059  0.00  0.00     0.189 HD
ENDROOT
BRANCH   1   3
ATOM      3  C   UNL d   1       9.259  -1.244   0.050  0.00  0.00     0.193 C 
ATOM      4  S   UNL d   1       9.979   0.284   0.051  0.00  0.00    -0.039 SA
BRANCH   3   5
ATOM      5  N   UNL d   1       7.854  -1.486   0.040  0.00  0.00    -0.301 N 
ATOM      6  C   UNL d   1       6.836  -0.489   0.029  0.00  0.00     0.248 C 
ATOM      7  O   UNL d   1       7.089   0.717   0.029  0.00  0.00    -0.271 OA
ATOM      8  H   UNL d   1       7.552  -2.451   0.040  0.00  0.00     0.171 HD
BRANCH   6   9
ATOM      9  C   UNL d   1       5.336  -0.912   0.017  0.00  0.00     0.278 C 
BRANCH   9  10
ATOM     10  O   UNL d   1       4.515   0.289   0.001  0.00  0.00    -0.342 OA
BRANCH  10  11
ATOM     11  C   UNL d   1       3.148   0.195  -0.001  0.00  0.00     0.070 A 
ATOM     12  C   UNL d   1       2.447  -1.005  -0.001  0.00  0.00     0.044 A 
ATOM     13  C   UNL d   1       1.037  -1.037   0.001  0.00  0.00    -0.042 A 
ATOM     14  C   UNL d   1       0.354  -2.373  -0.007  0.00  0.00     0.049 C 
ATOM     15  C   UNL d   1       0.325   0.171   0.005  0.00  0.00     0.017 A 
ATOM     16  C   UNL d   1       1.012   1.385   0.003  0.00  0.00     0.022 A 
ATOM     17 BR   UNL d   1      -1.575   0.213   0.006  0.00  0.00    -0.051 Br
ATOM     18  C   UNL d   1       2.417   1.395  -0.003  0.00  0.00     0.038 A 
ENDBRANCH  10  11
ENDBRANCH   9  10
ENDBRANCH   6   9
ENDBRANCH   3   5
ENDBRANCH   1   3
BRANCH   1  19
ATOM     19  N   UNL d   1      11.550  -2.198   0.070  0.00  0.00    -0.268 N 
ATOM     20  C   UNL d   1      12.432  -3.271   0.079  0.00  0.00     0.236 C 
ATOM     21  O   UNL d   1      12.036  -4.437   0.079  0.00  0.00    -0.272 OA
ATOM     22  H   UNL d   1      11.864  -1.225   0.070  0.00  0.00     0.190 HD
BRANCH  20  23
ATOM     23  C   UNL d   1      13.931  -2.903   0.090  0.00  0.00     0.114 C 
BRANCH  23  24
ATOM     24  C   UNL d   1      14.862  -4.134   0.101  0.00  0.00     0.112 C 
BRANCH  24  25
ATOM     25  C   UNL d   1      16.343  -3.756   0.101  0.00  0.00     0.218 C 
ATOM     26  O   UNL d   1      16.733  -2.586   0.101  0.00  0.00    -0.274 OA
ATOM     27  N   UNL d   1      17.214  -4.822   0.091  0.00  0.00    -0.357 N 
ATOM     28  H   UNL d   1      16.837  -5.750   0.209  0.00  0.00     0.162 HD
BRANCH  27  29
ATOM     29  C   UNL d   1      18.663  -4.635   0.092  0.00  0.00     0.161 C 
BRANCH  29  30
ATOM     30  C   UNL d   1      19.481  -5.911   0.134  0.00  0.00    -0.041 A 
ATOM     31  C   UNL d   1      18.924  -7.182  -0.068  0.00  0.00     0.009 A 
ATOM     32  C   UNL d   1      19.676  -8.339   0.136  0.00  0.00     0.001 A 
ATOM     33  C   UNL d   1      21.033  -8.249   0.420  0.00  0.00     0.000 A 
ATOM     34  C   UNL d   1      21.631  -6.998   0.541  0.00  0.00     0.001 A 
ATOM     35  C   UNL d   1      20.860  -5.837   0.409  0.00  0.00     0.009 A 
ENDBRANCH  29  30
ENDBRANCH  27  29
ENDBRANCH  24  25
ENDBRANCH  23  24
ENDBRANCH  20  23
ENDBRANCH   1  19
TORSDOF 11
