REMARK  5 active torsions:
REMARK  status: ('A' for Active; 'I' for Inactive)
REMARK       I    between atoms: C_2  and  N_3 
REMARK    1  A    between atoms: C_2  and  C_12 
REMARK    2  A    between atoms: N_3  and  O_4 
REMARK    3  A    between atoms: O_4  and  C_5 
REMARK    4  A    between atoms: C_5  and  C_6 
REMARK       I    between atoms: C_12  and  N_14 
REMARK    5  A    between atoms: N_14  and  C_15 
ROOT
ATOM      1  C   UNL d   1       3.098  -1.116  -0.721  0.00  0.00     0.316 C 
ATOM      2  O   UNL d   1       2.437  -1.966  -1.339  0.00  0.00    -0.262 OA
ATOM      3  N   UNL d   1       4.488  -1.131  -0.661  0.00  0.00    -0.319 N 
ATOM      4  H   UNL d   1       4.979  -0.582   0.025  0.00  0.00     0.169 HD
ENDROOT
BRANCH   1   5
ATOM      5  C   UNL d   1       2.347  -0.019   0.070  0.00  0.00     0.333 C 
ATOM      6  O   UNL d   1       1.104  -0.025   0.072  0.00  0.00    -0.260 OA
ATOM      7  N   UNL d   1       3.108   0.916   0.728  0.00  0.00    -0.226 N 
ATOM      8  H   UNL d   1       4.115   0.977   0.726  0.00  0.00     0.198 HD
BRANCH   7   9
ATOM      9  O   UNL d   1       2.382   1.932   1.411  0.00  0.00    -0.273 OA
BRANCH   9  10
ATOM     10  C   UNL d   1       3.290   2.848   2.020  0.00  0.00     0.240 C 
BRANCH  10  11
ATOM     11  C   UNL d   1       2.582   3.941   2.775  0.00  0.00    -0.032 A 
ATOM     12  C   UNL d   1       2.853   5.285   2.479  0.00  0.00     0.009 A 
ATOM     13  C   UNL d   1       2.398   6.299   3.321  0.00  0.00     0.001 A 
ATOM     14  C   UNL d   1       1.584   5.990   4.408  0.00  0.00     0.000 A 
ATOM     15  C   UNL d   1       1.256   4.662   4.677  0.00  0.00     0.001 A 
ATOM     16  C   UNL d   1       1.758   3.640   3.868  0.00  0.00     0.009 A 
ENDBRANCH  10  11
ENDBRANCH   9  10
ENDBRANCH   7   9
ENDBRANCH   1   5
BRANCH   3  17
ATOM     17  C   UNL d   1       5.286  -2.033  -1.401  0.00  0.00     0.036 C 
ATOM     18  C   UNL d   1       6.370  -2.666  -0.762  0.00  0.00     0.030 C 
ATOM     19  C   UNL d   1       7.069  -3.658  -1.454  0.00  0.00     0.011 C 
ATOM     20  C   UNL d   1       6.678  -3.891  -2.769  0.00  0.00    -0.029 C 
ATOM     21  C   UNL d   1       5.982  -2.946  -3.511  0.00  0.00     0.036 C 
ATOM     22  C   UNL d   1       6.637  -5.130  -3.626  0.00  0.00     0.135 C 
ATOM     23  C   UNL d   1       5.055  -2.234  -2.780  0.00  0.00     0.046 C 
ATOM     24  C   UNL d   1       5.922  -3.542  -4.905  0.00  0.00     0.232 C 
ATOM     25  O   UNL d   1       6.637  -3.347  -5.871  0.00  0.00    -0.274 OA
ATOM     26  N   UNL d   1       5.553  -4.827  -4.599  0.00  0.00    -0.254 NA
ATOM     27  H   UNL d   1       4.573  -4.717  -4.309  0.00  0.00     0.131 HD
ENDBRANCH   3  17
TORSDOF 5
