@<TRIPOS>MOLECULE
*****
 48 51 0 0 0
SMALL
GASTEIGER

@<TRIPOS>ATOM
      1 C           0.9075    0.0172   -0.0061 C.3     1  UNL1        0.0788
      2 O           2.3231    0.0759   -0.0403 O.3     1  UNL1       -0.4951
      3 C           2.9583   -0.2238    1.1247 C.ar    1  UNL1        0.1209
      4 C           2.6655   -1.2921    1.9558 C.ar    1  UNL1       -0.0179
      5 C           3.6219   -1.6836    2.9027 C.ar    1  UNL1       -0.0321
      6 C           4.6235   -0.7705    3.3108 C.ar    1  UNL1        0.0754
      7 N           5.4054   -0.8675    4.4102 N.ar    1  UNL1       -0.2460
      8 C           6.4758    0.0855    4.9497 C.ar    1  UNL1        0.0834
      9 C           7.5537   -0.4004    6.7018 C.ar    1  UNL1        0.0009
     10 C           7.3896    0.0871    8.0364 C.ar    1  UNL1       -0.0526
     11 C           8.4368    0.1431    8.8276 C.ar    1  UNL1       -0.0611
     12 C           9.1443   -1.0439    8.7798 C.ar    1  UNL1       -0.0617
     13 C           8.8527   -2.1452    7.9743 C.ar    1  UNL1       -0.0611
     14 C           7.9133   -1.8846    7.0743 C.ar    1  UNL1       -0.0526
     15 C           6.5782    1.1598    4.1072 C.ar    1  UNL1        0.0648
     16 C           7.5314    2.1268    4.5531 C.3     1  UNL1       -0.0003
     17 N           7.9137    1.4763    5.7700 N.4     1  UNL1        0.2386
     18 C           8.8605   -0.0985    5.1877 C.3     1  UNL1       -0.0314
     19 C           7.4740   -1.5246    5.0565 C.3     1  UNL1       -0.0077
     20 C           5.8604   -0.9874    6.4138 C.3     1  UNL1       -0.0077
     21 C           6.1206    1.0955    6.6307 C.3     1  UNL1       -0.0314
     22 C           5.7758    1.3003    2.9727 C.ar    1  UNL1        0.1364
     23 O           5.9098    2.4412    2.2252 O.3     1  UNL1       -0.5056
     24 C           4.8162    0.3625    2.5573 C.ar    1  UNL1        0.0457
     25 C           4.0644    0.5616    1.3999 C.ar    1  UNL1       -0.0073
     26 H           0.5524    0.2249   -1.0199 H       1  UNL1        0.0660
     27 H           0.5222    0.7952    0.6587 H       1  UNL1        0.0660
     28 H           0.5324   -0.9681    0.2796 H       1  UNL1        0.0660
     29 H           1.7273   -1.8323    1.8758 H       1  UNL1        0.0655
     30 H           3.5484   -2.6919    3.3189 H       1  UNL1        0.0640
     31 H           6.4045    0.3191    8.5101 H       1  UNL1        0.0624
     32 H           8.4247    0.9574    9.5372 H       1  UNL1        0.0618
     33 H           9.8659   -1.1605    9.5462 H       1  UNL1        0.0618
     34 H           9.2657   -3.1415    7.9306 H       1  UNL1        0.0618
     35 H           7.4444   -2.7886    6.5392 H       1  UNL1        0.0624
     36 H           7.0367    3.0470    4.8368 H       1  UNL1        0.0869
     37 H           8.3587    2.1837    3.8514 H       1  UNL1        0.0869
     38 H           8.5636    2.0658    6.3258 H       1  UNL1        0.2037
     39 H           9.5975   -0.2492    6.0468 H       1  UNL1        0.0814
     40 H           9.4819    0.0788    4.3062 H       1  UNL1        0.0814
     41 H           8.2874   -2.2983    5.1042 H       1  UNL1        0.0319
     42 H           7.2687   -1.5610    3.9689 H       1  UNL1        0.0319
     43 H           5.9244   -1.4577    7.4684 H       1  UNL1        0.0319
     44 H           4.8109   -1.2562    6.3024 H       1  UNL1        0.0319
     45 H           6.4078    1.7591    7.5135 H       1  UNL1        0.0814
     46 H           5.3645    1.7156    6.1457 H       1  UNL1        0.0814
     47 H           6.5573    3.0495    2.6041 H       1  UNL1        0.2922
     48 H           4.3104    1.3861    0.7384 H       1  UNL1        0.0662
@<TRIPOS>UNITY_ATOM_ATTR
17 1
charge 1
@<TRIPOS>BOND
     1     1     2    1
     2     2     3    1
     3     3     4   ar
     4     4     5   ar
     5     5     6   ar
     6     6     7   ar
     7     7     8   ar
     8     8     9    1
     9     9    10   ar
    10    10    11   ar
    11    11    12   ar
    12    12    13   ar
    13    13    14   ar
    14     9    14   ar
    15     8    15   ar
    16    15    16    1
    17    16    17    1
    18    17    18    1
    19    18    19    1
    20    19    20    1
    21    20    21    1
    22    17    21    1
    23    15    22   ar
    24    22    23    1
    25    22    24   ar
    26     6    24   ar
    27    24    25   ar
    28     3    25   ar
    29     1    26    1
    30     1    27    1
    31     1    28    1
    32     4    29    1
    33     5    30    1
    34    10    31    1
    35    11    32    1
    36    12    33    1
    37    13    34    1
    38    14    35    1
    39    16    36    1
    40    16    37    1
    41    17    38    1
    42    18    39    1
    43    18    40    1
    44    19    41    1
    45    19    42    1
    46    20    43    1
    47    20    44    1
    48    21    45    1
    49    21    46    1
    50    23    47    1
    51    25    48    1
