@<TRIPOS>MOLECULE
*****
 63 66 0 0 0
SMALL
GASTEIGER

@<TRIPOS>ATOM
      1 C           1.1609    0.1637    0.3582 C.3     1  UNL1        0.0790
      2 O           2.5308    0.0803   -0.0421 O.3     1  UNL1       -0.4915
      3 C           3.0445   -1.0530   -0.6360 C.ar    1  UNL1        0.1615
      4 C           4.1755   -1.5565    0.0399 C.ar    1  UNL1       -0.0155
      5 C           4.9999   -2.5514   -0.5201 C.ar    1  UNL1       -0.0444
      6 C           4.6782   -3.1361   -1.7474 C.ar    1  UNL1        0.0598
      7 C           5.4830   -4.2931   -2.2664 C.2     1  UNL1        0.3407
      8 O           6.4269   -4.7030   -1.5718 O.2     1  UNL1       -0.2483
      9 N           5.0983   -4.8536   -3.4654 N.am    1  UNL1        0.0006
     10 C           5.6969   -5.9321   -3.9039 C.2     1  UNL1        0.3842
     11 N           5.2882   -6.4959   -5.0873 N.pl3   1  UNL1       -0.2767
     12 C           4.1636   -6.0196   -5.8502 C.3     1  UNL1        0.0684
     13 C           3.9542   -6.8627   -7.0958 C.3     1  UNL1        0.0059
     14 C           2.8050   -6.4668   -7.9709 C.2     1  UNL1        0.0106
     15 C           2.5771   -7.1055   -9.1177 C.ar    1  UNL1        0.0510
     16 C           3.2719   -8.1765   -9.7344 C.ar    1  UNL1       -0.0482
     17 C           2.9381   -8.5051  -10.9855 C.ar    1  UNL1       -0.0608
     18 C           1.7947   -7.8925  -11.6440 C.ar    1  UNL1       -0.0555
     19 C           1.0418   -6.9161  -11.0921 C.ar    1  UNL1        0.0098
     20 C           1.4300   -6.4430   -9.7448 C.ar    1  UNL1        0.2086
     21 N           0.9525   -5.5232   -8.9938 N.2     1  UNL1       -0.2369
     22 C           1.8043   -5.3623   -7.7721 C.3     1  UNL1        0.1661
     23 N           6.6915   -6.6215   -3.2549 N.pl3   1  UNL1       -0.2450
     24 C           7.5393   -7.6627   -3.6706 C.ar    1  UNL1        0.1000
     25 C           7.9137   -8.6481   -2.7468 C.ar    1  UNL1       -0.0232
     26 C           8.7344   -9.7136   -3.1269 C.ar    1  UNL1       -0.0583
     27 C           9.1318   -9.8487   -4.4552 C.ar    1  UNL1       -0.0586
     28 C           8.7769   -8.8765   -5.3915 C.ar    1  UNL1       -0.0472
     29 C           9.2474   -8.9514   -6.8105 C.3     1  UNL1       -0.0396
     30 C           7.9999   -7.7845   -4.9850 C.ar    1  UNL1       -0.0203
     31 C           3.5738   -2.6333   -2.4367 C.ar    1  UNL1       -0.0027
     32 C           2.7653   -1.5912   -1.9132 C.ar    1  UNL1        0.1623
     33 O           1.8211   -1.2449   -2.8529 O.3     1  UNL1       -0.4914
     34 C           0.8470   -0.3330   -2.4236 C.3     1  UNL1        0.0790
     35 H           1.0533    0.8751    1.1820 H       1  UNL1        0.0660
     36 H           0.7246   -0.8012    0.6290 H       1  UNL1        0.0660
     37 H           0.5565    0.6670   -0.3983 H       1  UNL1        0.0660
     38 H           4.4430   -1.1576    1.0186 H       1  UNL1        0.0655
     39 H           5.9021   -2.8579    0.0091 H       1  UNL1        0.0627
     40 H           5.6665   -7.4078   -5.3157 H       1  UNL1        0.2577
     41 H           4.3503   -4.9852   -6.1522 H       1  UNL1        0.0658
     42 H           3.2568   -6.0621   -5.2407 H       1  UNL1        0.0658
     43 H           3.8085   -7.9137   -6.8058 H       1  UNL1        0.0343
     44 H           4.8738   -6.8433   -7.7013 H       1  UNL1        0.0343
     45 H           4.0806   -8.6678   -9.2049 H       1  UNL1        0.0626
     46 H           3.5281   -9.2470  -11.5168 H       1  UNL1        0.0618
     47 H           1.5587   -8.3018  -12.6250 H       1  UNL1        0.0620
     48 H           0.2006   -6.4962  -11.6309 H       1  UNL1        0.0683
     49 H           0.1083   -5.0033   -9.2329 H       1  UNL1        0.4459
     50 H           1.1879   -5.4959   -6.8794 H       1  UNL1        0.1077
     51 H           2.2570   -4.3649   -7.7956 H       1  UNL1        0.1077
     52 H           6.9909   -6.1904   -2.3765 H       1  UNL1        0.2646
     53 H           7.5500   -8.6055   -1.7220 H       1  UNL1        0.0652
     54 H           9.0668  -10.4380   -2.3871 H       1  UNL1        0.0619
     55 H           9.7323  -10.7069   -4.7485 H       1  UNL1        0.0620
     56 H           9.8585   -9.8417   -6.9837 H       1  UNL1        0.0278
     57 H           9.8557   -8.0705   -7.0390 H       1  UNL1        0.0278
     58 H           8.3904   -8.9847   -7.4912 H       1  UNL1        0.0278
     59 H           7.7780   -7.0025   -5.7073 H       1  UNL1        0.0655
     60 H           3.3325   -3.0295   -3.4201 H       1  UNL1        0.0663
     61 H           0.1117   -0.0992   -3.1940 H       1  UNL1        0.0660
     62 H           1.3405    0.6128   -2.1789 H       1  UNL1        0.0660
     63 H           0.2745   -0.8179   -1.6277 H       1  UNL1        0.0660
@<TRIPOS>UNITY_ATOM_ATTR
21 1
charge 1
@<TRIPOS>BOND
     1     1     2    1
     2     2     3    1
     3     3     4   ar
     4     4     5   ar
     5     5     6   ar
     6     6     7    1
     7     7     8    2
     8     7     9    1
     9     9    10    2
    10    10    11    1
    11    11    12    1
    12    12    13    1
    13    13    14    1
    14    14    15    2
    15    15    16   ar
    16    16    17   ar
    17    17    18   ar
    18    18    19   ar
    19    19    20   ar
    20    15    20   ar
    21    20    21    2
    22    21    22    1
    23    14    22    1
    24    10    23    1
    25    23    24    1
    26    24    25   ar
    27    25    26   ar
    28    26    27   ar
    29    27    28   ar
    30    28    29    1
    31    28    30   ar
    32    24    30   ar
    33     6    31   ar
    34    31    32   ar
    35     3    32   ar
    36    32    33    1
    37    33    34    1
    38     1    35    1
    39     1    36    1
    40     1    37    1
    41     4    38    1
    42     5    39    1
    43    11    40    1
    44    12    41    1
    45    12    42    1
    46    13    43    1
    47    13    44    1
    48    16    45    1
    49    17    46    1
    50    18    47    1
    51    19    48    1
    52    21    49    1
    53    22    50    1
    54    22    51    1
    55    23    52    1
    56    25    53    1
    57    26    54    1
    58    27    55    1
    59    29    56    1
    60    29    57    1
    61    29    58    1
    62    30    59    1
    63    31    60    1
    64    34    61    1
    65    34    62    1
    66    34    63    1
