@<TRIPOS>MOLECULE
*****
 34 36 0 0 0
SMALL
GASTEIGER

@<TRIPOS>ATOM
      1 O           0.9406    0.0597    0.2164 O.2     1  UNL1       -0.2697
      2 C           2.1674    0.0420    0.1015 C.2     1  UNL1        0.2518
      3 N           2.8747    0.6398   -0.9426 N.am    1  UNL1       -0.2814
      4 C           2.2273    1.3055   -2.0109 C.ar    1  UNL1        0.0337
      5 C           2.6791    1.1404   -3.3248 C.ar    1  UNL1       -0.0398
      6 C           2.0254    1.7938   -4.3857 C.ar    1  UNL1       -0.0508
      7 C           0.9085    2.6033   -4.1419 C.ar    1  UNL1        0.0022
      8 C           0.1451    3.1962   -5.2357 C.ar    1  UNL1        0.0925
      9 C          -0.1051    4.5740   -5.4664 C.ar    1  UNL1       -0.0165
     10 C          -0.9393    4.6202   -6.5572 C.ar    1  UNL1        0.0229
     11 N          -1.1458    3.3230   -6.9181 N.ar    1  UNL1       -0.2842
     12 N          -0.4768    2.4415   -6.1567 N.ar    1  UNL1       -0.1739
     13 C           0.4933    2.8024   -2.8219 C.ar    1  UNL1       -0.0508
     14 C           1.1424    2.1502   -1.7694 C.ar    1  UNL1       -0.0398
     15 C           2.9861   -0.7232    1.0856 C.ar    1  UNL1        0.0783
     16 C           4.1831   -0.1782    1.5734 C.ar    1  UNL1       -0.0461
     17 C           5.0201   -0.9435    2.3917 C.ar    1  UNL1       -0.0608
     18 C           4.6291   -2.2197    2.7973 C.ar    1  UNL1       -0.0583
     19 C           3.4075   -2.7438    2.3739 C.ar    1  UNL1       -0.0194
     20 C           2.5909   -1.9991    1.5185 C.ar    1  UNL1        0.1290
     21 O           1.4202   -2.5489    1.0776 O.3     1  UNL1       -0.5060
     22 H           3.8408    0.3694   -1.0789 H       1  UNL1        0.1551
     23 H           3.4791    0.4422   -3.5574 H       1  UNL1        0.0636
     24 H           2.3772    1.6568   -5.4063 H       1  UNL1        0.0625
     25 H           0.2696    5.4128   -4.8988 H       1  UNL1        0.0654
     26 H          -1.4018    5.4401   -7.0878 H       1  UNL1        0.0824
     27 H          -1.7272    2.9675   -7.6708 H       1  UNL1        0.1882
     28 H          -0.3574    3.4402   -2.5973 H       1  UNL1        0.0625
     29 H           0.7909    2.3132   -0.7541 H       1  UNL1        0.0636
     30 H           4.4636    0.8444    1.3343 H       1  UNL1        0.0626
     31 H           5.9829   -0.5489    2.7088 H       1  UNL1        0.0618
     32 H           5.2750   -2.8051    3.4484 H       1  UNL1        0.0619
     33 H           3.1218   -3.7420    2.6943 H       1  UNL1        0.0654
     34 H           1.2284   -3.3704    1.5555 H       1  UNL1        0.2922
@<TRIPOS>BOND
     1     1     2    2
     2     2     3   am
     3     3     4    1
     4     4     5   ar
     5     5     6   ar
     6     6     7   ar
     7     7     8    1
     8     8     9   ar
     9     9    10   ar
    10    10    11   ar
    11    11    12   ar
    12     8    12   ar
    13     7    13   ar
    14    13    14   ar
    15     4    14   ar
    16     2    15    1
    17    15    16   ar
    18    16    17   ar
    19    17    18   ar
    20    18    19   ar
    21    19    20   ar
    22    15    20   ar
    23    20    21    1
    24     3    22    1
    25     5    23    1
    26     6    24    1
    27     9    25    1
    28    10    26    1
    29    11    27    1
    30    13    28    1
    31    14    29    1
    32    16    30    1
    33    17    31    1
    34    18    32    1
    35    19    33    1
    36    21    34    1
