@<TRIPOS>MOLECULE
*****
 65 68 0 0 0
SMALL
GASTEIGER

@<TRIPOS>ATOM
      1 C           1.1262    0.4145   -0.2560 C.3     1  UNL1        0.0790
      2 O           2.4844    0.0337   -0.0432 O.3     1  UNL1       -0.4915
      3 C           2.9733   -0.2098    1.2191 C.ar    1  UNL1        0.1615
      4 C           4.1542    0.5161    1.5073 C.ar    1  UNL1       -0.0160
      5 C           4.9616    0.2300    2.6251 C.ar    1  UNL1       -0.0548
      6 C           4.5635   -0.7463    3.5332 C.ar    1  UNL1       -0.0422
      7 C           5.3100   -0.9990    4.8146 C.3     1  UNL1       -0.0119
      8 C           4.6422   -2.0735    5.7128 C.3     1  UNL1        0.0159
      9 N           5.3491   -2.2384    6.9674 N.am    1  UNL1       -0.3108
     10 C           4.9037   -3.1597    7.9144 C.2     1  UNL1        0.2540
     11 O           3.9463   -3.8752    7.6932 O.2     1  UNL1       -0.2698
     12 C           5.6399   -3.2703    9.2390 C.ar    1  UNL1        0.1507
     13 C           5.3310   -4.3070   10.0465 C.ar    1  UNL1       -0.0289
     14 C           6.0229   -4.5072   11.3223 C.ar    1  UNL1        0.0222
     15 C           6.1352   -5.7562   11.9459 C.ar    1  UNL1       -0.0508
     16 C           6.6748   -5.8574   13.2321 C.ar    1  UNL1       -0.0575
     17 C           7.0822   -4.7050   13.9052 C.ar    1  UNL1       -0.0162
     18 C           7.0084   -3.4502   13.2814 C.ar    1  UNL1        0.1629
     19 O           7.4157   -2.4186   14.0798 O.3     1  UNL1       -0.4914
     20 C           7.0731   -1.1113   13.6495 C.3     1  UNL1        0.0790
     21 C           6.5733   -3.3863   11.9463 C.ar    1  UNL1        0.1831
     22 O           6.9124   -2.2743   11.1046 O.2     1  UNL1       -0.3982
     23 C           6.6977   -2.3768    9.7397 C.ar    1  UNL1        0.4092
     24 N           7.4153   -1.6358    8.9700 N.2     1  UNL1       -0.0949
     25 N           8.5062   -0.7952    9.1997 N.am    1  UNL1       -0.0825
     26 C           8.8584    0.0299    8.1200 C.2     1  UNL1        0.2970
     27 O           8.1724    0.0701    7.1064 O.2     1  UNL1       -0.2649
     28 C          10.1040    0.8342    8.2614 C.ar    1  UNL1        0.0445
     29 C          10.1517    2.1864    7.8797 C.ar    1  UNL1       -0.0493
     30 C          11.3591    2.8993    7.9681 C.ar    1  UNL1       -0.0583
     31 C          12.5001    2.2798    8.4761 C.ar    1  UNL1       -0.0264
     32 C          12.4410    0.9396    8.8344 C.ar    1  UNL1        0.1241
     33 F          13.5405    0.3236    9.2829 F       1  UNL1       -0.2055
     34 C          11.2626    0.2080    8.7212 C.ar    1  UNL1       -0.0142
     35 C           3.4082   -1.4665    3.2366 C.ar    1  UNL1       -0.0131
     36 C           2.6156   -1.2332    2.1085 C.ar    1  UNL1        0.1617
     37 O           1.6212   -2.1760    2.1133 O.3     1  UNL1       -0.4914
     38 C           0.6349   -2.0048    1.1452 C.3     1  UNL1        0.0790
     39 H           1.0394    0.9078   -1.2266 H       1  UNL1        0.0660
     40 H           0.7221    1.0449    0.5399 H       1  UNL1        0.0660
     41 H           0.4751   -0.4385   -0.4388 H       1  UNL1        0.0660
     42 H           4.4706    1.3139    0.8359 H       1  UNL1        0.0655
     43 H           5.8985    0.7683    2.7638 H       1  UNL1        0.0621
     44 H           5.3563   -0.0517    5.3722 H       1  UNL1        0.0328
     45 H           6.3484   -1.2842    4.5989 H       1  UNL1        0.0328
     46 H           4.6286   -3.0458    5.2098 H       1  UNL1        0.0465
     47 H           3.6177   -1.7757    5.9660 H       1  UNL1        0.0465
     48 H           6.0225   -1.5130    6.9907 H       1  UNL1        0.1490
     49 H           4.5206   -5.0034    9.8252 H       1  UNL1        0.0635
     50 H           5.8575   -6.6723   11.4271 H       1  UNL1        0.0625
     51 H           6.7639   -6.8286   13.7206 H       1  UNL1        0.0619
     52 H           7.4972   -4.7974   14.9106 H       1  UNL1        0.0655
     53 H           7.3445   -0.4011   14.4350 H       1  UNL1        0.0660
     54 H           5.9996   -1.0097   13.4514 H       1  UNL1        0.0660
     55 H           7.6710   -0.8545   12.7735 H       1  UNL1        0.0660
     56 H           7.1937   -1.6934    7.9842 H       1  UNL1        0.4882
     57 H           9.0459   -0.8867   10.0502 H       1  UNL1        0.2260
     58 H           9.2669    2.7091    7.5182 H       1  UNL1        0.0625
     59 H          11.4215    3.9352    7.6332 H       1  UNL1        0.0619
     60 H          13.4348    2.8263    8.5827 H       1  UNL1        0.0646
     61 H          11.2933   -0.8476    8.9643 H       1  UNL1        0.0654
     62 H           3.0755   -2.2808    3.8770 H       1  UNL1        0.0658
     63 H          -0.1481   -2.7603    1.1860 H       1  UNL1        0.0660
     64 H           1.1179   -2.1166    0.1710 H       1  UNL1        0.0660
     65 H           0.1344   -1.0569    1.3643 H       1  UNL1        0.0660
@<TRIPOS>UNITY_ATOM_ATTR
24 1
charge 1
@<TRIPOS>BOND
     1     1     2    1
     2     2     3    1
     3     3     4   ar
     4     4     5   ar
     5     5     6   ar
     6     6     7    1
     7     7     8    1
     8     8     9    1
     9     9    10   am
    10    10    11    2
    11    10    12    1
    12    12    13   ar
    13    13    14   ar
    14    14    15   ar
    15    15    16   ar
    16    16    17   ar
    17    17    18   ar
    18    18    19    1
    19    19    20    1
    20    18    21   ar
    21    14    21   ar
    22    21    22   ar
    23    22    23   ar
    24    12    23   ar
    25    23    24    2
    26    24    25    1
    27    25    26   am
    28    26    27    2
    29    26    28    1
    30    28    29   ar
    31    29    30   ar
    32    30    31   ar
    33    31    32   ar
    34    32    33    1
    35    32    34   ar
    36    28    34   ar
    37     6    35   ar
    38    35    36   ar
    39     3    36   ar
    40    36    37    1
    41    37    38    1
    42     1    39    1
    43     1    40    1
    44     1    41    1
    45     4    42    1
    46     5    43    1
    47     7    44    1
    48     7    45    1
    49     8    46    1
    50     8    47    1
    51     9    48    1
    52    13    49    1
    53    15    50    1
    54    16    51    1
    55    17    52    1
    56    20    53    1
    57    20    54    1
    58    20    55    1
    59    24    56    1
    60    25    57    1
    61    29    58    1
    62    30    59    1
    63    31    60    1
    64    34    61    1
    65    35    62    1
    66    38    63    1
    67    38    64    1
    68    38    65    1
