REMARK  5 active torsions:
REMARK  status: ('A' for Active; 'I' for Inactive)
REMARK    1  A    between atoms: C_2  and  N_3 
REMARK    2  A    between atoms: C_5  and  C_6 
REMARK       I    between atoms: C_6  and  N_8 
REMARK    3  A    between atoms: N_8  and  C_9 
REMARK    4  A    between atoms: C_9  and  C_10 
REMARK       I    between atoms: C_10  and  N_12 
REMARK    5  A    between atoms: N_15  and  C_16 
ROOT
ATOM      1  C   UNL d   1       4.648  -1.723   4.190  0.00  0.00     0.257 C 
ATOM      2  O   UNL d   1       4.911  -2.632   4.970  0.00  0.00    -0.267 OA
ATOM      3  N   UNL d   1       5.005  -0.424   4.533  0.00  0.00    -0.348 N 
ATOM      4  H   UNL d   1       4.785   0.377   3.958  0.00  0.00     0.163 HD
ENDROOT
BRANCH   1   5
ATOM      5  C   UNL d   1       3.949  -1.981   2.860  0.00  0.00     0.098 A 
ATOM      6  C   UNL d   1       3.615  -1.008   1.993  0.00  0.00     0.112 A 
ATOM      7  N   UNL d   1       2.990  -1.156   0.758  0.00  0.00    -0.355 N 
ATOM      8  C   UNL d   1       2.631  -2.448   0.305  0.00  0.00     0.051 A 
ATOM      9  C   UNL d   1       1.993  -2.638  -0.931  0.00  0.00     0.070 C 
ATOM     10  C   UNL d   1       2.846  -3.578   1.118  0.00  0.00     0.045 A 
ATOM     11  C   UNL d   1       1.371  -3.825  -1.202  0.00  0.00     0.107 A 
ATOM     12  C   UNL d   1       1.537  -4.922  -0.410  0.00  0.00     0.106 A 
ATOM     13  O   UNL d   1       0.519  -3.999  -2.243  0.00  0.00    -0.323 OA
ATOM     14  C   UNL d   1       2.345  -4.851   0.722  0.00  0.00     0.057 C 
ATOM     15  O   UNL d   1       0.820  -5.974  -0.901  0.00  0.00    -0.323 OA
ATOM     16  C   UNL d   1       0.156  -5.373  -2.051  0.00  0.00     0.352 A 
ATOM     17  C   UNL d   1       3.560  -3.389   2.429  0.00  0.00     0.201 A 
ATOM     18  O   UNL d   1       3.786  -4.372   3.114  0.00  0.00    -0.286 OA
BRANCH   7  19
ATOM     19  C   UNL d   1       2.481  -0.013  -0.034  0.00  0.00     0.124 C 
ATOM     20  C   UNL d   1       0.949   0.066  -0.020  0.00  0.00     0.027 C 
ENDBRANCH   7  19
ENDBRANCH   1   5
BRANCH   3  21
ATOM     21  C   UNL d   1       5.704  -0.141   5.800  0.00  0.00     0.225 C 
BRANCH  21  22
ATOM     22  C   UNL d   1       5.939   1.373   6.054  0.00  0.00     0.237 C 
ATOM     23  O   UNL d   1       5.463   2.217   5.292  0.00  0.00    -0.272 OA
ATOM     24  N   UNL d   1       6.546   1.734   7.260  0.00  0.00    -0.348 N 
ATOM     25  C   UNL d   1       6.119   2.930   7.999  0.00  0.00     0.145 C 
ATOM     26  C   UNL d   1       7.750   1.112   7.816  0.00  0.00     0.145 C 
ATOM     27  C   UNL d   1       5.834   2.551   9.487  0.00  0.00     0.144 C 
ATOM     28  N   UNL d   1       6.996   1.865  10.101  0.00  0.00    -0.364 N 
ATOM     29  C   UNL d   1       7.532   0.731   9.296  0.00  0.00     0.144 C 
BRANCH  28  30
ATOM     30  C   UNL d   1       7.676   2.358  11.190  0.00  0.00     0.102 A 
ATOM     31  C   UNL d   1       9.046   2.660  11.180  0.00  0.00     0.048 A 
ATOM     32  C   UNL d   1       9.720   2.979  12.364  0.00  0.00     0.005 A 
ATOM     33  C   UNL d   1       9.010   3.078  13.550  0.00  0.00     0.017 A 
ATOM     34  C   UNL d   1       7.639   2.876  13.514  0.00  0.00     0.089 A 
ATOM     35  N   UNL d   1       7.037   2.495  12.370  0.00  0.00    -0.352 N 
ATOM     36  H   UNL d   1       6.055   2.236  12.395  0.00  0.00     0.166 HD
ENDBRANCH  28  30
ENDBRANCH  21  22
ENDBRANCH   3  21
TORSDOF 5
