REMARK  11 active torsions:
REMARK  status: ('A' for Active; 'I' for Inactive)
REMARK    1  A    between atoms: C_2  and  C_3 
REMARK    2  A    between atoms: C_3  and  C_4 
REMARK    3  A    between atoms: C_4  and  C_5 
REMARK    4  A    between atoms: C_5  and  N_6 
REMARK    5  A    between atoms: N_6  and  C_7 
REMARK    6  A    between atoms: C_7  and  N_9 
REMARK    7  A    between atoms: N_9  and  N_10 
REMARK       I    between atoms: N_10  and  C_11 
REMARK    8  A    between atoms: C_11  and  C_13 
REMARK    9  A    between atoms: C_13  and  O_14 
REMARK   10  A    between atoms: O_14  and  N_15 
REMARK   11  A    between atoms: C_16  and  C_18 
ROOT
ATOM      1  N   UNL d   1       9.502   3.962   3.746  0.00  0.00    -0.266 N 
ATOM      2  C   UNL d   1      10.890   3.900   3.685  0.00  0.00     0.262 C 
ATOM      3  O   UNL d   1      11.449   3.107   2.916  0.00  0.00    -0.269 OA
ATOM      4  H   UNL d   1       8.988   4.599   4.352  0.00  0.00     0.190 HD
ENDROOT
BRANCH   2   5
ATOM      5  C   UNL d   1      11.672   4.869   4.618  0.00  0.00     0.308 C 
BRANCH   5   6
ATOM      6  O   UNL d   1      13.076   4.630   4.450  0.00  0.00    -0.247 OA
BRANCH   6   7
ATOM      7  N   UNL d   1      13.877   5.532   5.187  0.00  0.00    -0.138 NA
ATOM      8  C   UNL d   1      15.156   5.296   5.014  0.00  0.00     0.068 C 
ATOM      9  C   UNL d   1      16.167   6.130   5.793  0.00  0.00     0.074 C 
BRANCH   8  10
ATOM     10  C   UNL d   1      15.736   4.269   4.087  0.00  0.00    -0.007 A 
ATOM     11  C   UNL d   1      15.242   4.157   2.769  0.00  0.00     0.016 A 
ATOM     12  C   UNL d   1      15.715   3.166   1.903  0.00  0.00     0.040 A 
ATOM     13  C   UNL d   1      16.693   2.319   2.374  0.00  0.00     0.105 A 
ATOM     14  C   UNL d   1      17.203   2.442   3.646  0.00  0.00     0.105 A 
ATOM     15  O   UNL d   1      17.256   1.291   1.684  0.00  0.00    -0.323 OA
ATOM     16  C   UNL d   1      16.757   3.412   4.524  0.00  0.00     0.053 A 
ATOM     17  O   UNL d   1      18.149   1.500   3.913  0.00  0.00    -0.323 OA
ATOM     18  C   UNL d   1      18.110   0.722   2.697  0.00  0.00     0.352 A 
ENDBRANCH   8  10
ENDBRANCH   6   7
ENDBRANCH   5   6
ENDBRANCH   2   5
BRANCH   1  19
ATOM     19  N   UNL d   1       8.689   3.095   2.919  0.00  0.00    -0.274 N 
ATOM     20  H   UNL d   1       9.208   2.455   2.319  0.00  0.00     0.189 HD
BRANCH  19  21
ATOM     21  C   UNL d   1       7.297   3.155   2.979  0.00  0.00     0.186 C 
ATOM     22  S   UNL d   1       6.502   4.233   4.000  0.00  0.00    -0.040 SA
BRANCH  21  23
ATOM     23  N   UNL d   1       6.633   2.264   2.135  0.00  0.00    -0.366 N 
ATOM     24  H   UNL d   1       7.173   1.642   1.548  0.00  0.00     0.161 HD
BRANCH  23  25
ATOM     25  C   UNL d   1       5.162   2.167   2.044  0.00  0.00     0.122 C 
BRANCH  25  26
ATOM     26  C   UNL d   1       4.628   1.124   1.057  0.00  0.00     0.020 C 
BRANCH  26  27
ATOM     27  C   UNL d   1       3.088   1.113   1.046  0.00  0.00     0.001 C 
BRANCH  27  28
ATOM     28  C   UNL d   1       2.537   0.077   0.066  0.00  0.00    -0.004 C 
ATOM     29  C   UNL d   1       1.016   0.071   0.060  0.00  0.00     0.005 C 
ENDBRANCH  27  28
ENDBRANCH  26  27
ENDBRANCH  25  26
ENDBRANCH  23  25
ENDBRANCH  21  23
ENDBRANCH  19  21
ENDBRANCH   1  19
TORSDOF 11
