REMARK  10 active torsions:
REMARK  status: ('A' for Active; 'I' for Inactive)
REMARK    1  A    between atoms: C_2  and  N_5 
REMARK       I    between atoms: N_5  and  C_6 
REMARK    2  A    between atoms: C_6  and  C_8 
REMARK    3  A    between atoms: C_11  and  N_12 
REMARK    4  A    between atoms: N_12  and  C_13 
REMARK    5  A    between atoms: C_13  and  N_15 
REMARK       I    between atoms: N_15  and  C_16 
REMARK    6  A    between atoms: C_16  and  C_18 
REMARK    7  A    between atoms: C_18  and  C_19 
REMARK    8  A    between atoms: C_19  and  C_20 
REMARK    9  A    between atoms: C_20  and  O_21 
REMARK   10  A    between atoms: O_21  and  C_22 
ROOT
ATOM      1  C   UNL d   1       5.666  -8.089  -0.823  0.00  0.00     0.178 C 
ATOM      2  S   UNL d   1       4.255  -7.823  -1.725  0.00  0.00    -0.040 SA
ENDROOT
BRANCH   1   3
ATOM      3  N   UNL d   1       6.372  -7.081  -0.090  0.00  0.00    -0.333 N 
ATOM      4  H   UNL d   1       7.142  -7.351   0.516  0.00  0.00     0.168 HD
BRANCH   3   5
ATOM      5  C   UNL d   1       5.997  -5.664   0.013  0.00  0.00     0.034 C 
ATOM      6  C   UNL d   1       6.628  -4.753   0.874  0.00  0.00     0.030 C 
ATOM      7  C   UNL d   1       6.122  -3.423   1.014  0.00  0.00     0.019 C 
ATOM      8  C   UNL d   1       5.008  -2.981   0.280  0.00  0.00     0.032 C 
ATOM      9  C   UNL d   1       4.425  -3.841  -0.607  0.00  0.00     0.019 C 
ATOM     10  C   UNL d   1       4.962  -5.106  -0.744  0.00  0.00     0.030 C 
BRANCH   8  11
ATOM     11  C   UNL d   1       4.566  -1.580   0.227  0.00  0.00     0.252 C 
ATOM     12  N   UNL d   1       3.203  -1.336   0.134  0.00  0.00    -0.349 N 
ATOM     13  H   UNL d   1       2.553  -2.115   0.166  0.00  0.00     0.163 HD
ATOM     14  O   UNL d   1       5.445  -0.713   0.217  0.00  0.00    -0.268 OA
BRANCH  12  15
ATOM     15  C   UNL d   1       2.650   0.026   0.058  0.00  0.00     0.022 C 
ATOM     16  C   UNL d   1       1.107  -0.007   0.051  0.00  0.00     0.037 C 
ATOM     17  C   UNL d   1       3.109   0.718  -1.235  0.00  0.00     0.037 C 
ATOM     18  C   UNL d   1       3.097   0.828   1.288  0.00  0.00     0.037 C 
ENDBRANCH  12  15
ENDBRANCH   8  11
ENDBRANCH   3   5
ENDBRANCH   1   3
BRANCH   1  19
ATOM     19  N   UNL d   1       6.198  -9.403  -0.766  0.00  0.00    -0.304 N 
ATOM     20  C   UNL d   1       5.631 -10.466  -1.496  0.00  0.00     0.223 C 
ATOM     21  O   UNL d   1       4.684 -10.354  -2.277  0.00  0.00    -0.273 OA
ATOM     22  H   UNL d   1       6.977  -9.607  -0.155  0.00  0.00     0.171 HD
BRANCH  20  23
ATOM     23  C   UNL d   1       6.174 -11.865  -1.389  0.00  0.00     0.105 C 
BRANCH  23  24
ATOM     24  C   UNL d   1       5.322 -12.744  -2.364  0.00  0.00     0.036 C 
BRANCH  24  25
ATOM     25  C   UNL d   1       5.775 -14.182  -2.360  0.00  0.00     0.176 C 
BRANCH  25  26
ATOM     26  O   UNL d   1       4.964 -14.966  -3.233  0.00  0.00    -0.349 OA
BRANCH  26  27
ATOM     27  C   UNL d   1       5.187 -16.322  -3.216  0.00  0.00     0.090 A 
ATOM     28  C   UNL d   1       5.100 -16.936  -4.482  0.00  0.00     0.040 A 
ATOM     29  C   UNL d   1       5.176 -18.328  -4.614  0.00  0.00     0.026 A 
ATOM     30  C   UNL d   1       5.409 -19.112  -3.491  0.00  0.00     0.035 A 
ATOM     31 CL   UNL d   1       5.618 -20.811  -3.638  0.00  0.00    -0.084 Cl
ATOM     32  C   UNL d   1       5.500 -18.525  -2.237  0.00  0.00     0.050 A 
ATOM     33  C   UNL d   1       5.373 -17.141  -2.088  0.00  0.00     0.069 A 
ATOM     34 CL   UNL d   1       5.409 -16.625  -0.438  0.00  0.00    -0.081 Cl
ENDBRANCH  26  27
ENDBRANCH  25  26
ENDBRANCH  24  25
ENDBRANCH  23  24
ENDBRANCH  20  23
ENDBRANCH   1  19
TORSDOF 10
