@<TRIPOS>MOLECULE
*****
 64 66 0 0 0
SMALL
GASTEIGER

@<TRIPOS>ATOM
      1 C           0.9000   -0.2106    0.0161 C.3     1  UNL1       -0.0307
      2 C           2.4245   -0.0953    0.0022 C.3     1  UNL1        0.0870
      3 O           2.9037    0.8737    0.9432 O.3     1  UNL1       -0.4886
      4 C           2.6039    2.1949    0.7096 C.ar    1  UNL1        0.1623
      5 C           2.8915    3.0563    1.7895 C.ar    1  UNL1       -0.0077
      6 C           2.5755    4.4186    1.7059 C.ar    1  UNL1       -0.0018
      7 C           2.9074    5.3728    2.8037 C.2     1  UNL1        0.0529
      8 N           2.5826    6.6234    2.6875 N.2     1  UNL1       -0.1875
      9 N           2.9461    7.5034    3.6615 N.pl3   1  UNL1       -0.2054
     10 C           2.5541    8.8034    3.5794 C.ar    1  UNL1        0.2317
     11 N           1.4438    9.3244    3.0892 N.ar    1  UNL1       -0.1865
     12 C           1.6310   10.6677    3.2262 C.ar    1  UNL1        0.2105
     13 S           0.4966   11.8961    2.7742 S.3     1  UNL1       -0.0750
     14 C          -0.9838   11.0093    2.2015 C.3     1  UNL1        0.0780
     15 C          -2.0265   12.0478    1.7607 C.2     1  UNL1        0.2275
     16 O          -1.8539   13.2741    1.8453 O.2     1  UNL1       -0.2746
     17 N          -3.2215   11.5314    1.2881 N.am    1  UNL1       -0.2848
     18 C          -4.2542   12.3617    0.8143 C.ar    1  UNL1        0.0338
     19 C          -5.5461   12.0314    1.1329 C.ar    1  UNL1       -0.0345
     20 C          -6.5949   12.7894    0.6149 C.ar    1  UNL1        0.0053
     21 C          -6.4295   13.9598   -0.1425 C.ar    1  UNL1        0.1446
     22 N          -7.5059   15.0461   -0.1959 N.pl3   1  UNL1       -0.3883
     23 C          -8.9865   14.7137   -0.0884 C.3     1  UNL1        0.0878
     24 C          -9.3672   13.5157    0.7332 C.3     1  UNL1       -0.0108
     25 C          -7.2033   16.1907   -1.1798 C.3     1  UNL1        0.0878
     26 C          -8.4183   17.0659   -1.4856 C.3     1  UNL1       -0.0108
     27 C          -5.1047   14.2747   -0.4666 C.ar    1  UNL1        0.0053
     28 C          -4.0351   13.4830    0.0077 C.ar    1  UNL1       -0.0345
     29 N           2.8067   11.0243    3.7533 N.ar    1  UNL1       -0.1443
     30 N           3.3772    9.8286    3.9681 N.ar    1  UNL1       -0.2446
     31 C           1.9463    4.9078    0.5542 C.ar    1  UNL1       -0.0494
     32 C           1.6579    4.0639   -0.5153 C.ar    1  UNL1       -0.0159
     33 C           2.0248    2.7263   -0.4559 C.ar    1  UNL1        0.1585
     34 O           1.8149    1.9696   -1.5768 O.3     1  UNL1       -0.5033
     35 H           0.5556   -0.8989   -0.7597 H       1  UNL1        0.0262
     36 H           0.3835    0.7408   -0.1407 H       1  UNL1        0.0262
     37 H           0.5583   -0.5542    0.9955 H       1  UNL1        0.0262
     38 H           2.8537    0.0838   -0.9904 H       1  UNL1        0.0694
     39 H           2.8377   -1.0663    0.2988 H       1  UNL1        0.0694
     40 H           3.3584    2.6452    2.6820 H       1  UNL1        0.0662
     41 H           3.4372    4.9756    3.6880 H       1  UNL1        0.0851
     42 H           3.5111    7.1839    4.4471 H       1  UNL1        0.1774
     43 H          -1.4080   10.3989    3.0069 H       1  UNL1        0.0475
     44 H          -0.7488   10.3690    1.3445 H       1  UNL1        0.0475
     45 H          -3.4584   10.5694    1.5126 H       1  UNL1        0.1548
     46 H          -5.7842   11.2478    1.8519 H       1  UNL1        0.0638
     47 H          -7.5222   12.3575    0.9246 H       1  UNL1        0.0682
     48 H          -7.3181   15.4794    0.7175 H       1  UNL1        0.3743
     49 H          -9.4298   14.6467   -1.0859 H       1  UNL1        0.0965
     50 H          -9.4140   15.5758    0.4384 H       1  UNL1        0.0965
     51 H          -9.1911   12.6143    0.1353 H       1  UNL1        0.0289
     52 H         -10.4251   13.4856    0.9918 H       1  UNL1        0.0289
     53 H          -8.8279   13.5308    1.6871 H       1  UNL1        0.0289
     54 H          -6.7953   15.7834   -2.1114 H       1  UNL1        0.0965
     55 H          -6.4498   16.8129   -0.6823 H       1  UNL1        0.0965
     56 H          -9.1591   16.5265   -2.0856 H       1  UNL1        0.0289
     57 H          -8.1272   17.9463   -2.0669 H       1  UNL1        0.0289
     58 H          -8.8990   17.4271   -0.5712 H       1  UNL1        0.0289
     59 H          -4.8278   15.1491   -1.0490 H       1  UNL1        0.0682
     60 H          -3.0167   13.7663   -0.2526 H       1  UNL1        0.0638
     61 H           4.3318    9.7957    4.3047 H       1  UNL1        0.1919
     62 H           1.6963    5.9623    0.4697 H       1  UNL1        0.0625
     63 H           1.1728    4.4649   -1.3987 H       1  UNL1        0.0655
     64 H           1.1177    2.3624   -2.1256 H       1  UNL1        0.2923
@<TRIPOS>UNITY_ATOM_ATTR
22 1
charge 1
@<TRIPOS>BOND
     1     1     2    1
     2     2     3    1
     3     3     4    1
     4     4     5   ar
     5     5     6   ar
     6     6     7    1
     7     7     8    2
     8     8     9    1
     9     9    10    1
    10    10    11   ar
    11    11    12   ar
    12    12    13    1
    13    13    14    1
    14    14    15    1
    15    15    16    2
    16    15    17   am
    17    17    18    1
    18    18    19   ar
    19    19    20   ar
    20    20    21   ar
    21    21    22    1
    22    22    23    1
    23    23    24    1
    24    22    25    1
    25    25    26    1
    26    21    27   ar
    27    27    28   ar
    28    18    28   ar
    29    12    29   ar
    30    29    30   ar
    31    10    30   ar
    32     6    31   ar
    33    31    32   ar
    34    32    33   ar
    35     4    33   ar
    36    33    34    1
    37     1    35    1
    38     1    36    1
    39     1    37    1
    40     2    38    1
    41     2    39    1
    42     5    40    1
    43     7    41    1
    44     9    42    1
    45    14    43    1
    46    14    44    1
    47    17    45    1
    48    19    46    1
    49    20    47    1
    50    22    48    1
    51    23    49    1
    52    23    50    1
    53    24    51    1
    54    24    52    1
    55    24    53    1
    56    25    54    1
    57    25    55    1
    58    26    56    1
    59    26    57    1
    60    26    58    1
    61    27    59    1
    62    28    60    1
    63    30    61    1
    64    31    62    1
    65    32    63    1
    66    34    64    1
