REMARK  3 active torsions:
REMARK  status: ('A' for Active; 'I' for Inactive)
REMARK       I    between atoms: N_1  and  C_2 
REMARK    1  A    between atoms: C_2  and  C_4 
REMARK    2  A    between atoms: C_9  and  N_10 
REMARK       I    between atoms: N_10  and  C_11 
REMARK    3  A    between atoms: C_11  and  C_13 
ROOT
ATOM      1  N   UNL d   1       1.490   1.032  -2.448  0.00  0.00    -0.322 N 
ATOM      2  C   UNL d   1       0.929   1.739  -1.402  0.00  0.00     0.257 C 
ATOM      3  O   UNL d   1       1.498   1.966  -0.333  0.00  0.00    -0.267 OA
ATOM      4  H   UNL d   1       1.250   1.321  -3.390  0.00  0.00     0.169 HD
ENDROOT
BRANCH   1   5
ATOM      5  C   UNL d   1       2.648   0.191  -2.312  0.00  0.00     0.050 A 
ATOM      6  C   UNL d   1       3.405  -0.056  -3.476  0.00  0.00     0.030 A 
ATOM      7  C   UNL d   1       4.565  -0.850  -3.438  0.00  0.00     0.002 A 
ATOM      8  C   UNL d   1       4.999  -1.402  -2.238  0.00  0.00     0.001 A 
ATOM      9  C   UNL d   1       4.239  -1.218  -1.089  0.00  0.00     0.019 A 
ATOM     10  C   UNL d   1       3.075  -0.431  -1.114  0.00  0.00     0.052 A 
BRANCH  10  11
ATOM     11  C   UNL d   1       2.409  -0.320   0.204  0.00  0.00     0.231 C 
ATOM     12  N   UNL d   1       1.065  -0.592   0.258  0.00  0.00    -0.268 NA
ATOM     13  H   UNL d   1       0.631  -0.013   0.970  0.00  0.00     0.127 HD
ATOM     14  H   UNL d   1       0.559  -0.629  -0.614  0.00  0.00     0.127 HD
ATOM     15  O   UNL d   1       3.034   0.042   1.194  0.00  0.00    -0.274 OA
ENDBRANCH  10  11
ENDBRANCH   1   5
BRANCH   2  16
ATOM     16  C   UNL d   1      -0.421   2.313  -1.497  0.00  0.00     0.051 A 
ATOM     17  C   UNL d   1      -1.381   1.993  -2.439  0.00  0.00     0.135 A 
ATOM     18  N   UNL d   1      -2.602   2.587  -2.474  0.00  0.00    -0.246 NA
ATOM     19  C   UNL d   1      -2.860   3.540  -1.532  0.00  0.00     0.147 A 
ATOM     20 CL   UNL d   1      -4.396   4.287  -1.715  0.00  0.00    -0.061 Cl
ATOM     21  C   UNL d   1      -1.976   3.897  -0.526  0.00  0.00     0.075 A 
ATOM     22 CL   UNL d   1      -2.254   5.142   0.627  0.00  0.00    -0.081 Cl
ATOM     23  C   UNL d   1      -0.764   3.235  -0.492  0.00  0.00     0.045 A 
ENDBRANCH   2  16
TORSDOF 3
