REMARK  6 active torsions:
REMARK  status: ('A' for Active; 'I' for Inactive)
REMARK    1  A    between atoms: O_2  and  C_3 
REMARK       I    between atoms: C_3  and  N_5 
REMARK    2  A    between atoms: N_5  and  C_6 
REMARK    3  A    between atoms: C_8  and  N_9 
REMARK       I    between atoms: N_9  and  C_10 
REMARK    4  A    between atoms: C_10  and  C_12 
REMARK       I    between atoms: C_12  and  N_14 
REMARK    5  A    between atoms: N_14  and  C_15 
REMARK    6  A    between atoms: C_15  and  C_16 
ROOT
ATOM      1  N   UNL d   1       8.304   1.621   4.154  0.00  0.00    -0.319 N 
ATOM      2  C   UNL d   1       9.016   1.639   5.372  0.00  0.00     0.313 C 
ATOM      3  O   UNL d   1       8.819   0.952   6.371  0.00  0.00    -0.262 OA
ATOM      4  H   UNL d   1       8.618   2.278   3.444  0.00  0.00     0.169 HD
ENDROOT
BRANCH   2   5
ATOM      5  C   UNL d   1      10.205   2.626   5.487  0.00  0.00     0.309 C 
ATOM      6  O   UNL d   1      10.493   3.367   4.559  0.00  0.00    -0.262 OA
ATOM      7  N   UNL d   1      10.864   2.560   6.710  0.00  0.00    -0.349 N 
ATOM      8  H   UNL d   1      10.467   1.944   7.416  0.00  0.00     0.163 HD
BRANCH   7   9
ATOM      9  C   UNL d   1      11.992   3.410   7.043  0.00  0.00     0.162 C 
BRANCH   9  10
ATOM     10  C   UNL d   1      12.527   3.226   8.457  0.00  0.00    -0.029 A 
ATOM     11  C   UNL d   1      12.676   1.922   8.968  0.00  0.00     0.010 A 
ATOM     12  C   UNL d   1      13.120   1.703  10.271  0.00  0.00     0.002 A 
ATOM     13  C   UNL d   1      13.463   2.782  11.079  0.00  0.00     0.012 A 
ATOM     14  C   UNL d   1      13.411   4.092  10.584  0.00  0.00    -0.025 A 
ATOM     15  C   UNL d   1      13.822   5.164  11.398  0.00  0.00     0.012 A 
ATOM     16  C   UNL d   1      12.948   4.332   9.260  0.00  0.00    -0.018 A 
ATOM     17  C   UNL d   1      13.791   6.475  10.929  0.00  0.00     0.001 A 
ATOM     18  C   UNL d   1      13.352   6.731   9.639  0.00  0.00     0.001 A 
ATOM     19  C   UNL d   1      12.940   5.677   8.821  0.00  0.00     0.013 A 
ENDBRANCH   9  10
ENDBRANCH   7   9
ENDBRANCH   2   5
BRANCH   1  20
ATOM     20  C   UNL d   1       7.184   0.768   3.863  0.00  0.00     0.037 A 
ATOM     21  C   UNL d   1       6.498   0.797   2.613  0.00  0.00     0.062 A 
ATOM     22  C   UNL d   1       5.344  -0.014   2.397  0.00  0.00     0.077 A 
ATOM     23  C   UNL d   1       4.957  -0.907   3.405  0.00  0.00     0.143 A 
ATOM     24  C   UNL d   1       5.631  -0.965   4.607  0.00  0.00     0.047 A 
ATOM     25  F   UNL d   1       3.975  -1.799   3.204  0.00  0.00    -0.204 F 
ATOM     26  C   UNL d   1       6.716  -0.127   4.833  0.00  0.00     0.032 A 
BRANCH  22  27
ATOM     27  N   UNL d   1       4.571   0.043   1.199  0.00  0.00    -0.300 N 
ATOM     28  C   UNL d   1       3.181  -0.001   1.216  0.00  0.00     0.364 C 
ATOM     29  O   UNL d   1       2.480   0.028   2.226  0.00  0.00    -0.238 OA
ATOM     30  H   UNL d   1       5.013   0.242   0.313  0.00  0.00     0.171 HD
BRANCH  28  31
ATOM     31  O   UNL d   1       2.646   0.008  -0.042  0.00  0.00    -0.309 OA
ATOM     32  C   UNL d   1       1.203   0.015  -0.048  0.00  0.00     0.215 C 
ENDBRANCH  28  31
ENDBRANCH  22  27
ENDBRANCH   1  20
TORSDOF 6
