REMARK  5 active torsions:
REMARK  status: ('A' for Active; 'I' for Inactive)
REMARK    1  A    between atoms: O_2  and  C_3 
REMARK    2  A    between atoms: C_13  and  C_14 
REMARK    3  A    between atoms: C_14  and  C_16 
REMARK    4  A    between atoms: C_22  and  C_23 
REMARK    5  A    between atoms: C_27  and  N_28 
ROOT
ATOM      1  C   UNL d   1       3.167   0.127   1.072  0.00  0.00     0.069 A 
ATOM      2  C   UNL d   1       2.833  -0.436   2.315  0.00  0.00     0.039 A 
ATOM      3  C   UNL d   1       3.546  -0.102   3.481  0.00  0.00     0.033 A 
ATOM      4  C   UNL d   1       4.574   0.807   3.372  0.00  0.00     0.044 A 
ATOM      5  C   UNL d   1       4.930   1.370   2.144  0.00  0.00     0.018 A 
ATOM      6  C   UNL d   1       4.258   1.007   0.977  0.00  0.00     0.049 A 
ATOM      7  C   UNL d   1       5.904   2.498   2.398  0.00  0.00     0.249 A 
ATOM      8  C   UNL d   1       6.056   2.443   3.955  0.00  0.00     0.264 A 
ATOM      9  O   UNL d   1       6.806   3.142   4.630  0.00  0.00    -0.270 OA
ATOM     10  N   UNL d   1       5.257   1.423   4.416  0.00  0.00    -0.324 N 
ATOM     11  C   UNL d   1       5.462   3.905   1.914  0.00  0.00     0.122 C 
ATOM     12  C   UNL d   1       6.307   4.162   0.597  0.00  0.00     0.065 C 
ATOM     13  C   UNL d   1       7.205   2.908   0.407  0.00  0.00     0.209 C 
ATOM     14  C   UNL d   1       8.631   3.214  -0.053  0.00  0.00     0.109 C 
ATOM     15  S   UNL d   1       9.714   2.526   1.211  0.00  0.00    -0.140 SA
ATOM     16  C   UNL d   1       8.464   2.573   2.477  0.00  0.00     0.311 C 
ATOM     17  N   UNL d   1       7.234   2.212   1.724  0.00  0.00    -0.034 N 
ATOM     18  H   UNL d   1       5.122   1.244   5.406  0.00  0.00     0.169 HD
ATOM     19  H   UNL d   1       7.304   1.196   1.561  0.00  0.00     0.283 HD
ENDROOT
BRANCH  11  20
ATOM     20  C   UNL d   1       3.918   4.145   1.862  0.00  0.00     0.169 C 
ATOM     21  O   UNL d   1       3.331   4.914   1.113  0.00  0.00    -0.292 OA
BRANCH  20  22
ATOM     22  C   UNL d   1       2.981   3.533   2.792  0.00  0.00     0.028 C 
ATOM     23  C   UNL d   1       3.070   3.706   4.161  0.00  0.00     0.018 C 
ATOM     24  C   UNL d   1       2.224   2.950   4.965  0.00  0.00     0.020 C 
ATOM     25  C   UNL d   1       1.365   2.039   4.363  0.00  0.00     0.116 C 
ATOM     26  N   UNL d   1       1.184   1.954   3.029  0.00  0.00    -0.272 NA
ATOM     27  C   UNL d   1       1.966   2.744   2.267  0.00  0.00     0.131 C 
ENDBRANCH  20  22
ENDBRANCH  11  20
BRANCH  12  28
ATOM     28  C   UNL d   1       5.542   4.524  -0.664  0.00  0.00    -0.049 C 
ATOM     29  C   UNL d   1       4.823   5.726  -0.723  0.00  0.00     0.007 C 
ATOM     30  C   UNL d   1       3.843   5.931  -1.701  0.00  0.00     0.003 C 
ATOM     31  C   UNL d   1       3.584   4.949  -2.655  0.00  0.00     0.036 C 
ATOM     32  C   UNL d   1       4.398   3.822  -2.692  0.00  0.00     0.103 C 
ATOM     33  C   UNL d   1       5.420   3.652  -1.752  0.00  0.00     0.043 C 
BRANCH  32  34
ATOM     34  N   UNL d   1       4.157   2.747  -3.661  0.00  0.00    -0.116 N 
ATOM     35  O   UNL d   1       3.221   2.881  -4.455  0.00  0.00    -0.532 OA
ATOM     36  O   UNL d   1       4.898   1.752  -3.594  0.00  0.00    -0.532 OA
ENDBRANCH  32  34
ENDBRANCH  12  28
BRANCH   1  37
ATOM     37  O   UNL d   1       2.466  -0.057  -0.089  0.00  0.00    -0.356 OA
ATOM     38  C   UNL d   1       1.034  -0.073  -0.006  0.00  0.00     0.210 C 
ENDBRANCH   1  37
TORSDOF 5
