REMARK  3 active torsions:
REMARK  status: ('A' for Active; 'I' for Inactive)
REMARK       I    between atoms: C_2  and  N_3 
REMARK    1  A    between atoms: C_2  and  C_11 
REMARK    2  A    between atoms: N_3  and  N_4 
REMARK    3  A    between atoms: N_4  and  C_5 
ROOT
ATOM      1  O   UNL d   1       1.012   0.044   0.066  0.00  0.00    -0.266 OA
ATOM      2  C   UNL d   1       2.241   0.007   0.099  0.00  0.00     0.265 C 
ATOM      3  N   UNL d   1       2.999  -0.263   1.237  0.00  0.00    -0.287 N 
ATOM      4  H   UNL d   1       4.005  -0.118   1.212  0.00  0.00     0.184 HD
ENDROOT
BRANCH   3   5
ATOM      5  N   UNL d   1       2.344  -0.413   2.484  0.00  0.00    -0.233 NA
ATOM      6  H   UNL d   1       1.667  -1.177   2.382  0.00  0.00     0.147 HD
BRANCH   5   7
ATOM      7  C   UNL d   1       3.255  -0.648   3.613  0.00  0.00     0.076 C 
ATOM      8  C   UNL d   1       3.123   0.504   4.625  0.00  0.00     0.021 C 
ATOM      9  C   UNL d   1       3.994   0.273   5.862  0.00  0.00     0.002 C 
ATOM     10  C   UNL d   1       3.689  -1.068   6.521  0.00  0.00     0.000 C 
ATOM     11  C   UNL d   1       3.832  -2.211   5.520  0.00  0.00     0.002 C 
ATOM     12  C   UNL d   1       2.946  -1.992   4.294  0.00  0.00     0.021 C 
ENDBRANCH   5   7
ENDBRANCH   3   5
BRANCH   2  13
ATOM     13  C   UNL d   1       3.018   0.294  -1.138  0.00  0.00     0.033 A 
ATOM     14  C   UNL d   1       4.147  -0.458  -1.484  0.00  0.00     0.017 A 
ATOM     15  C   UNL d   1       4.900  -0.108  -2.610  0.00  0.00     0.001 A 
ATOM     16  C   UNL d   1       4.485   0.941  -3.433  0.00  0.00     0.000 A 
ATOM     17  C   UNL d   1       3.337   1.665  -3.114  0.00  0.00     0.001 A 
ATOM     18  C   UNL d   1       2.604   1.344  -1.968  0.00  0.00     0.017 A 
ENDBRANCH   2  13
TORSDOF 3
