@<TRIPOS>MOLECULE
*****
 43 45 0 0 0
SMALL
GASTEIGER

@<TRIPOS>ATOM
      1 N           0.9838    0.0986    0.0040 N.1     1  UNL1       -0.1907
      2 C           2.2448    0.0986    0.0040 C.1     1  UNL1        0.1045
      3 C           3.7648    0.0986    0.0040 C.2     1  UNL1        0.1171
      4 C           4.3938    1.2957   -0.1085 C.2     1  UNL1        0.0031
      5 C           3.6690    2.5407   -0.1110 C.ar    1  UNL1        0.1300
      6 C           2.6172    2.9249    0.7187 C.ar    1  UNL1       -0.0158
      7 C           2.1705    4.1956    0.3241 C.ar    1  UNL1       -0.0153
      8 C           2.9958    4.5909   -0.6971 C.ar    1  UNL1        0.1359
      9 C           3.0522    5.8384   -1.4428 C.ar    1  UNL1        0.0237
     10 C           2.9142    5.8726   -2.8349 C.ar    1  UNL1       -0.0507
     11 C           2.9647    7.0903   -3.5259 C.ar    1  UNL1       -0.0547
     12 C           3.0881    8.2938   -2.8288 C.ar    1  UNL1        0.0156
     13 C           3.1942    8.2672   -1.4339 C.ar    1  UNL1        0.2738
     14 N           3.3818    9.5218   -0.6936 N.pl3   1  UNL1        0.0796
     15 O           3.4323   10.5740   -1.3407 O.2     1  UNL1        0.0414
     16 O           3.4932    9.4490    0.5416 O.co2   1  UNL1       -0.5760
     17 C           3.1662    7.0495   -0.7410 C.ar    1  UNL1        0.0262
     18 O           3.9203    3.6124   -0.9615 O.2     1  UNL1       -0.4554
     19 C           4.4606   -1.2183    0.1607 C.2     1  UNL1        0.2587
     20 O           3.7704   -2.2125    0.4040 O.2     1  UNL1       -0.2691
     21 N           5.8505   -1.2574    0.1272 N.am    1  UNL1       -0.2797
     22 C           6.5875   -2.4811    0.1001 C.ar    1  UNL1        0.0527
     23 C           7.7773   -2.5760    0.8539 C.ar    1  UNL1       -0.0274
     24 C           8.5974   -3.7272    0.7755 C.ar    1  UNL1        0.0566
     25 C           9.9751   -3.7707    1.4018 C.3     1  UNL1        0.4175
     26 F          10.7644   -2.7578    0.9460 F       1  UNL1       -0.1659
     27 F           9.9618   -3.6625    2.7554 F       1  UNL1       -0.1659
     28 F          10.6580   -4.9177    1.1206 F       1  UNL1       -0.1659
     29 C           8.1670   -4.8190    0.0127 C.ar    1  UNL1       -0.0486
     30 C           7.0063   -4.7286   -0.7463 C.ar    1  UNL1       -0.0411
     31 C           6.2334   -3.5650   -0.7300 C.ar    1  UNL1        0.0622
     32 CL          4.9874   -3.4891   -1.9325 Cl      1  UNL1       -0.0816
     33 H           5.4716    1.3854   -0.1605 H       1  UNL1        0.0669
     34 H           2.1813    2.3261    1.5069 H       1  UNL1        0.0655
     35 H           1.3459    4.7613    0.7320 H       1  UNL1        0.0656
     36 H           2.7369    4.9527   -3.3895 H       1  UNL1        0.0625
     37 H           2.9137    7.0993   -4.6129 H       1  UNL1        0.0620
     38 H           3.1008    9.2319   -3.3804 H       1  UNL1        0.0685
     39 H           3.2361    7.0331    0.3459 H       1  UNL1        0.0692
     40 H           6.3967   -0.4144    0.2471 H       1  UNL1        0.1552
     41 H           8.0759   -1.7723    1.5281 H       1  UNL1        0.0642
     42 H           8.7611   -5.7312   -0.0385 H       1  UNL1        0.0623
     43 H           6.7366   -5.5512   -1.4040 H       1  UNL1        0.0633
@<TRIPOS>UNITY_ATOM_ATTR
14 1
charge 1
16 1
charge -1
@<TRIPOS>BOND
     1     1     2    3
     2     2     3    1
     3     3     4    2
     4     4     5    1
     5     5     6   ar
     6     6     7   ar
     7     7     8   ar
     8     8     9    1
     9     9    10   ar
    10    10    11   ar
    11    11    12   ar
    12    12    13   ar
    13    13    14    1
    14    14    15    2
    15    14    16    1
    16    13    17   ar
    17     9    17   ar
    18     8    18   ar
    19     5    18   ar
    20     3    19    1
    21    19    20    2
    22    19    21   am
    23    21    22    1
    24    22    23   ar
    25    23    24   ar
    26    24    25    1
    27    25    26    1
    28    25    27    1
    29    25    28    1
    30    24    29   ar
    31    29    30   ar
    32    30    31   ar
    33    22    31   ar
    34    31    32    1
    35     4    33    1
    36     6    34    1
    37     7    35    1
    38    10    36    1
    39    11    37    1
    40    12    38    1
    41    17    39    1
    42    21    40    1
    43    23    41    1
    44    29    42    1
    45    30    43    1
