REMARK  8 active torsions:
REMARK  status: ('A' for Active; 'I' for Inactive)
REMARK       I    between atoms: C_2  and  N_3 
REMARK    1  A    between atoms: C_2  and  C_24 
REMARK    2  A    between atoms: N_3  and  N_4 
REMARK    3  A    between atoms: C_5  and  C_6 
REMARK    4  A    between atoms: C_10  and  C_11 
REMARK    5  A    between atoms: N_12  and  N_13 
REMARK       I    between atoms: N_13  and  C_14 
REMARK    6  A    between atoms: C_14  and  C_16 
REMARK    7  A    between atoms: C_21  and  O_22 
REMARK    8  A    between atoms: C_29  and  O_30 
ROOT
ATOM      1  C   UNL d   1       2.129  -3.743  -2.951  0.00  0.00    -0.016 A 
ATOM      2  C   UNL d   1       2.459  -5.101  -3.003  0.00  0.00     0.013 A 
ATOM      3  C   UNL d   1       1.735  -5.957  -3.851  0.00  0.00     0.002 A 
ATOM      4  C   UNL d   1       0.665  -5.467  -4.615  0.00  0.00     0.013 A 
ATOM      5  C   UNL d   1       0.347  -4.106  -4.568  0.00  0.00    -0.016 A 
ATOM      6  C   UNL d   1       1.077  -3.253  -3.732  0.00  0.00     0.026 A 
ENDROOT
BRANCH   1   7
ATOM      7  C   UNL d   1       2.887  -2.767  -2.124  0.00  0.00     0.150 C 
ATOM      8  N   UNL d   1       2.249  -1.818  -1.521  0.00  0.00    -0.183 NA
BRANCH   8   9
ATOM      9  N   UNL d   1       2.939  -0.882  -0.796  0.00  0.00    -0.243 N 
ATOM     10  C   UNL d   1       2.200   0.068  -0.084  0.00  0.00     0.274 C 
ATOM     11  O   UNL d   1       0.969   0.147  -0.119  0.00  0.00    -0.266 OA
ATOM     12  H   UNL d   1       3.948  -0.936  -0.731  0.00  0.00     0.192 HD
BRANCH  10  13
ATOM     13  C   UNL d   1       2.970   0.998   0.800  0.00  0.00     0.066 A 
ATOM     14  C   UNL d   1       4.168   1.593   0.372  0.00  0.00     0.020 A 
ATOM     15  C   UNL d   1       4.940   2.346   1.270  0.00  0.00     0.001 A 
ATOM     16  C   UNL d   1       4.484   2.581   2.567  0.00  0.00     0.003 A 
ATOM     17  C   UNL d   1       3.260   2.057   2.979  0.00  0.00     0.037 A 
ATOM     18  C   UNL d   1       2.511   1.269   2.100  0.00  0.00     0.081 A 
BRANCH  18  19
ATOM     19  O   UNL d   1       1.339   0.724   2.546  0.00  0.00    -0.360 OA
ATOM     20  H   UNL d   1       1.079   1.115   3.392  0.00  0.00     0.217 HD
ENDBRANCH  18  19
ENDBRANCH  10  13
ENDBRANCH   8   9
ENDBRANCH   1   7
BRANCH   5  21
ATOM     21  C   UNL d   1      -0.724  -3.534  -5.428  0.00  0.00     0.150 C 
ATOM     22  N   UNL d   1      -0.933  -2.257  -5.433  0.00  0.00    -0.183 NA
BRANCH  22  23
ATOM     23  N   UNL d   1      -1.918  -1.748  -6.229  0.00  0.00    -0.243 N 
ATOM     24  C   UNL d   1      -2.144  -0.376  -6.219  0.00  0.00     0.274 C 
ATOM     25  O   UNL d   1      -1.490   0.447  -5.574  0.00  0.00    -0.266 OA
ATOM     26  H   UNL d   1      -2.528  -2.364  -6.756  0.00  0.00     0.192 HD
BRANCH  24  27
ATOM     27  C   UNL d   1      -3.241   0.142  -7.081  0.00  0.00     0.066 A 
ATOM     28  C   UNL d   1      -3.034   1.361  -7.752  0.00  0.00     0.020 A 
ATOM     29  C   UNL d   1      -4.074   1.972  -8.458  0.00  0.00     0.001 A 
ATOM     30  C   UNL d   1      -5.318   1.351  -8.535  0.00  0.00     0.003 A 
ATOM     31  C   UNL d   1      -5.533   0.135  -7.881  0.00  0.00     0.037 A 
ATOM     32  C   UNL d   1      -4.495  -0.470  -7.162  0.00  0.00     0.081 A 
BRANCH  32  33
ATOM     33  O   UNL d   1      -4.715  -1.665  -6.534  0.00  0.00    -0.360 OA
ATOM     34  H   UNL d   1      -5.655  -1.897  -6.611  0.00  0.00     0.217 HD
ENDBRANCH  32  33
ENDBRANCH  24  27
ENDBRANCH  22  23
ENDBRANCH   5  21
TORSDOF 8
