REMARK  11 active torsions:
REMARK  status: ('A' for Active; 'I' for Inactive)
REMARK    1  A    between atoms: O_2  and  C_3 
REMARK    2  A    between atoms: C_6  and  O_7 
REMARK    3  A    between atoms: C_9  and  N_10 
REMARK       I    between atoms: N_10  and  C_11 
REMARK    4  A    between atoms: C_11  and  C_13 
REMARK    5  A    between atoms: C_13  and  O_14 
REMARK    6  A    between atoms: O_14  and  C_15 
REMARK    7  A    between atoms: C_17  and  C_15 
REMARK    8  A    between atoms: C_17  and  N_28 
REMARK    9  A    between atoms: C_17  and  C_18 
REMARK   10  A    between atoms: C_18  and  C_19 
REMARK       I    between atoms: N_28  and  C_29 
REMARK   11  A    between atoms: C_29  and  C_31 
ROOT
ATOM      1  C   UNL d   1      -1.321  -5.484  -6.240  0.00  0.00     0.188 C 
ENDROOT
BRANCH   1   2
ATOM      2  N   UNL d   1      -1.744  -6.448  -7.236  0.00  0.00    -0.343 N 
ATOM      3  C   UNL d   1      -3.027  -6.295  -7.777  0.00  0.00     0.252 C 
ATOM      4  O   UNL d   1      -3.790  -5.367  -7.568  0.00  0.00    -0.268 OA
ATOM      5  H   UNL d   1      -1.406  -7.397  -7.158  0.00  0.00     0.163 HD
BRANCH   3   6
ATOM      6  C   UNL d   1      -3.475  -7.396  -8.633  0.00  0.00     0.032 A 
ATOM      7  C   UNL d   1      -3.868  -7.138  -9.951  0.00  0.00     0.020 A 
ATOM      8  C   UNL d   1      -4.290  -8.202 -10.748  0.00  0.00     0.043 A 
ATOM      9  C   UNL d   1      -4.260  -9.495 -10.233  0.00  0.00     0.116 A 
ATOM     10  F   UNL d   1      -4.573 -10.527 -11.025  0.00  0.00    -0.206 F 
ATOM     11  C   UNL d   1      -3.893  -9.742  -8.912  0.00  0.00     0.043 A 
ATOM     12  C   UNL d   1      -3.518  -8.683  -8.097  0.00  0.00     0.020 A 
ENDBRANCH   3   6
ENDBRANCH   1   2
BRANCH   1  13
ATOM     13  C   UNL d   1      -0.214  -5.887  -5.211  0.00  0.00     0.072 C 
BRANCH  13  14
ATOM     14  C   UNL d   1      -0.529  -5.504  -3.756  0.00  0.00    -0.048 A 
ATOM     15  C   UNL d   1      -1.654  -4.944  -3.268  0.00  0.00    -0.006 A 
ATOM     16  C   UNL d   1      -2.916  -4.536  -3.810  0.00  0.00     0.014 C 
ATOM     17  C   UNL d   1      -1.403  -4.717  -1.829  0.00  0.00     0.038 A 
ATOM     18  C   UNL d   1      -3.774  -3.814  -3.101  0.00  0.00     0.001 C 
ATOM     19  C   UNL d   1      -3.567  -3.608  -1.700  0.00  0.00     0.002 C 
ATOM     20  C   UNL d   1      -2.463  -4.027  -1.049  0.00  0.00     0.030 C 
ATOM     21  N   UNL d   1      -0.265  -5.168  -1.459  0.00  0.00    -0.385 N 
ATOM     22  C   UNL d   1       0.480  -5.715  -2.629  0.00  0.00     0.155 A 
ATOM     23  H   UNL d   1       0.038  -5.139  -0.485  0.00  0.00     0.160 HD
ENDBRANCH  13  14
ENDBRANCH   1  13
BRANCH   1  24
ATOM     24  C   UNL d   1      -1.237  -4.028  -6.768  0.00  0.00     0.282 C 
ATOM     25  O   UNL d   1      -2.150  -3.323  -7.133  0.00  0.00    -0.263 OA
BRANCH  24  26
ATOM     26  O   UNL d   1       0.052  -3.651  -6.839  0.00  0.00    -0.310 OA
BRANCH  26  27
ATOM     27  C   UNL d   1       0.290  -2.415  -7.522  0.00  0.00     0.281 C 
BRANCH  27  28
ATOM     28  C   UNL d   1       1.796  -2.293  -7.418  0.00  0.00     0.246 C 
ATOM     29  N   UNL d   1       2.305  -1.185  -8.068  0.00  0.00    -0.323 N 
ATOM     30  H   UNL d   1       1.611  -0.587  -8.473  0.00  0.00     0.169 HD
ATOM     31  O   UNL d   1       2.432  -3.137  -6.788  0.00  0.00    -0.271 OA
BRANCH  29  32
ATOM     32  C   UNL d   1       3.670  -0.793  -8.155  0.00  0.00     0.071 A 
ATOM     33  C   UNL d   1       4.126   0.376  -8.796  0.00  0.00     0.095 A 
ATOM     34  C   UNL d   1       5.503   0.696  -8.715  0.00  0.00     0.042 A 
ATOM     35  C   UNL d   1       6.428  -0.157  -8.094  0.00  0.00     0.039 A 
ATOM     36  C   UNL d   1       5.984  -1.317  -7.490  0.00  0.00     0.070 A 
ATOM     37  C   UNL d   1       4.628  -1.602  -7.527  0.00  0.00     0.069 A 
BRANCH  33  38
ATOM     38  O   UNL d   1       3.428   1.305  -9.527  0.00  0.00    -0.354 OA
ATOM     39  C   UNL d   1       2.070   1.066  -9.847  0.00  0.00     0.210 C 
ENDBRANCH  33  38
BRANCH  36  40
ATOM     40  O   UNL d   1       6.882  -2.075  -6.788  0.00  0.00    -0.356 OA
ATOM     41  C   UNL d   1       6.643  -3.485  -6.796  0.00  0.00     0.210 C 
ENDBRANCH  36  40
ENDBRANCH  29  32
ENDBRANCH  27  28
ENDBRANCH  26  27
ENDBRANCH  24  26
ENDBRANCH   1  24
TORSDOF 11
