REMARK  8 active torsions:
REMARK  status: ('A' for Active; 'I' for Inactive)
REMARK       I    between atoms: C_2  and  N_3 
REMARK    1  A    between atoms: C_2  and  C_22 
REMARK    2  A    between atoms: N_3  and  C_4 
REMARK    3  A    between atoms: C_4  and  N_6 
REMARK    4  A    between atoms: N_6  and  C_7 
REMARK    5  A    between atoms: C_12  and  C_13 
REMARK       I    between atoms: C_13  and  N_15 
REMARK    6  A    between atoms: N_15  and  C_16 
REMARK    7  A    between atoms: C_24  and  N_25 
REMARK    8  A    between atoms: C_29  and  N_30 
ROOT
ATOM      1  C   UNL d   1       2.453  -1.544   2.128  0.00  0.00     0.179 C 
ATOM      2  S   UNL d   1       0.967  -1.174   2.849  0.00  0.00    -0.040 SA
ENDROOT
BRANCH   1   3
ATOM      3  N   UNL d   1       3.174  -0.744   1.172  0.00  0.00    -0.299 N 
ATOM      4  C   UNL d   1       2.673   0.438   0.606  0.00  0.00     0.258 C 
ATOM      5  O   UNL d   1       1.638   0.957   1.023  0.00  0.00    -0.267 OA
ATOM      6  H   UNL d   1       4.037  -1.113   0.803  0.00  0.00     0.171 HD
BRANCH   4   7
ATOM      7  C   UNL d   1       3.279   1.175  -0.570  0.00  0.00     0.037 C 
ATOM      8  C   UNL d   1       4.261   0.814  -1.500  0.00  0.00     0.053 C 
ATOM      9  C   UNL d   1       4.867   1.853  -2.265  0.00  0.00     0.106 C 
ATOM     10  C   UNL d   1       4.392   3.180  -2.238  0.00  0.00     0.072 C 
ATOM     11  C   UNL d   1       3.293   3.467  -1.444  0.00  0.00     0.106 C 
ATOM     12  C   UNL d   1       2.727   2.466  -0.673  0.00  0.00     0.053 C 
BRANCH   9  13
ATOM     13  N   UNL d   1       6.162   1.608  -2.929  0.00  0.00    -0.116 N 
ATOM     14  O   UNL d   1       6.592   0.448  -2.929  0.00  0.00    -0.532 OA
ATOM     15  O   UNL d   1       6.771   2.590  -3.376  0.00  0.00    -0.532 OA
ENDBRANCH   9  13
BRANCH  11  16
ATOM     16  N   UNL d   1       2.818   4.839  -1.234  0.00  0.00    -0.116 N 
ATOM     17  O   UNL d   1       3.430   5.745  -1.807  0.00  0.00    -0.532 OA
ATOM     18  O   UNL d   1       1.864   5.006  -0.462  0.00  0.00    -0.532 OA
ENDBRANCH  11  16
ENDBRANCH   4   7
ENDBRANCH   1   3
BRANCH   1  19
ATOM     19  N   UNL d   1       3.084  -2.799   2.328  0.00  0.00    -0.332 N 
ATOM     20  H   UNL d   1       4.085  -2.774   2.482  0.00  0.00     0.168 HD
BRANCH  19  21
ATOM     21  C   UNL d   1       2.409  -3.930   2.919  0.00  0.00     0.050 A 
ATOM     22  C   UNL d   1       2.866  -4.436   4.157  0.00  0.00     0.030 A 
ATOM     23  C   UNL d   1       2.284  -5.577   4.742  0.00  0.00     0.002 A 
ATOM     24  C   UNL d   1       1.206  -6.202   4.132  0.00  0.00     0.001 A 
ATOM     25  C   UNL d   1       0.741  -5.710   2.917  0.00  0.00     0.019 A 
ATOM     26  C   UNL d   1       1.333  -4.589   2.283  0.00  0.00     0.058 A 
BRANCH  26  27
ATOM     27  C   UNL d   1       0.726  -4.219   0.964  0.00  0.00     0.254 C 
ATOM     28  O   UNL d   1      -0.322  -4.804   0.638  0.00  0.00    -0.268 OA
ATOM     29  N   UNL d   1       1.331  -3.275   0.166  0.00  0.00    -0.352 N 
ATOM     30  H   UNL d   1       2.261  -2.996   0.444  0.00  0.00     0.163 HD
BRANCH  29  31
ATOM     31  C   UNL d   1       0.728  -2.579  -0.984  0.00  0.00     0.084 C 
ATOM     32  C   UNL d   1      -0.742  -2.847  -1.196  0.00  0.00     0.025 C 
ATOM     33  C   UNL d   1      -1.243  -2.075  -2.409  0.00  0.00     0.002 C 
ATOM     34  C   UNL d   1      -1.115  -0.562  -2.271  0.00  0.00     0.000 C 
ATOM     35  C   UNL d   1       0.326  -0.205  -2.005  0.00  0.00     0.002 C 
ATOM     36  C   UNL d   1       0.843  -1.068  -0.871  0.00  0.00     0.025 C 
ENDBRANCH  29  31
ENDBRANCH  26  27
ENDBRANCH  19  21
ENDBRANCH   1  19
TORSDOF 8
