@<TRIPOS>MOLECULE
*****
 30 31 0 0 0
SMALL
GASTEIGER

@<TRIPOS>ATOM
      1 C           2.9869    0.0683    0.0699 C.3     1  UNL1       -0.0396
      2 C           1.4898    0.0645   -0.0028 C.ar    1  UNL1       -0.0485
      3 C           0.7322    1.2301   -0.0287 C.ar    1  UNL1       -0.0553
      4 C          -0.6634    1.1498   -0.0372 C.ar    1  UNL1       -0.0181
      5 C          -1.3004   -0.1035   -0.0326 C.ar    1  UNL1        0.1380
      6 O          -2.6712   -0.1573    0.0006 O.3     1  UNL1       -0.5049
      7 C          -0.5536   -1.2929   -0.0552 C.ar    1  UNL1        0.0758
      8 N          -1.1903   -2.5710   -0.1016 N.am    1  UNL1       -0.2786
      9 C          -0.5201   -3.7908   -0.1133 C.2     1  UNL1        0.2484
     10 O           0.6995   -3.9685   -0.0858 O.2     1  UNL1       -0.2699
     11 C          -1.3080   -5.0396   -0.1460 C.ar    1  UNL1        0.0384
     12 C          -2.3622   -5.2223   -1.0418 C.ar    1  UNL1       -0.0495
     13 C          -2.9917   -6.4694   -1.1169 C.ar    1  UNL1       -0.0597
     14 C          -2.5755   -7.5241   -0.2982 C.ar    1  UNL1       -0.0433
     15 C          -1.5127   -7.3408    0.5827 C.ar    1  UNL1        0.0417
     16 CL         -1.0037   -8.6389    1.5914 Cl      1  UNL1       -0.0835
     17 C          -0.8647   -6.1119    0.6489 C.ar    1  UNL1       -0.0313
     18 C           0.8377   -1.1725   -0.0301 C.ar    1  UNL1       -0.0340
     19 H           3.3884    1.0841    0.0796 H       1  UNL1        0.0278
     20 H           3.4071   -0.4625   -0.7912 H       1  UNL1        0.0278
     21 H           3.3120   -0.4367    0.9869 H       1  UNL1        0.0278
     22 H           1.2246    2.1995   -0.0337 H       1  UNL1        0.0621
     23 H          -1.2283    2.0782   -0.0460 H       1  UNL1        0.0655
     24 H          -3.0029    0.7557    0.0817 H       1  UNL1        0.2922
     25 H          -2.2055   -2.5432   -0.0915 H       1  UNL1        0.1552
     26 H          -2.6602   -4.4262   -1.7178 H       1  UNL1        0.0625
     27 H          -3.8001   -6.6286   -1.8264 H       1  UNL1        0.0618
     28 H          -3.0740   -8.4885   -0.3596 H       1  UNL1        0.0632
     29 H          -0.0013   -5.9862    1.3007 H       1  UNL1        0.0640
     30 H           1.4803   -2.0427   -0.0241 H       1  UNL1        0.0640
@<TRIPOS>BOND
     1     1     2    1
     2     2     3   ar
     3     3     4   ar
     4     4     5   ar
     5     5     6    1
     6     5     7   ar
     7     7     8    1
     8     8     9   am
     9     9    10    2
    10     9    11    1
    11    11    12   ar
    12    12    13   ar
    13    13    14   ar
    14    14    15   ar
    15    15    16    1
    16    15    17   ar
    17    11    17   ar
    18     7    18   ar
    19     2    18   ar
    20     1    19    1
    21     1    20    1
    22     1    21    1
    23     3    22    1
    24     4    23    1
    25     6    24    1
    26     8    25    1
    27    12    26    1
    28    13    27    1
    29    14    28    1
    30    17    29    1
    31    18    30    1
