REMARK  9 active torsions:
REMARK  status: ('A' for Active; 'I' for Inactive)
REMARK    1  A    between atoms: C_2  and  C_3 
REMARK    2  A    between atoms: C_3  and  C_5 
REMARK    3  A    between atoms: C_8  and  N_9 
REMARK       I    between atoms: N_9  and  C_10 
REMARK    4  A    between atoms: C_10  and  C_12 
REMARK    5  A    between atoms: C_12  and  S_13 
REMARK    6  A    between atoms: S_13  and  C_14 
REMARK    7  A    between atoms: C_17  and  C_18 
REMARK    8  A    between atoms: C_20  and  C_21 
REMARK    9  A    between atoms: N_30  and  N_31 
ROOT
ATOM      1  C   UNL d   1      13.397   3.612   2.713  0.00  0.00     0.210 A 
ATOM      2  N   UNL d   1      14.171   2.554   2.668  0.00  0.00    -0.120 NA
ATOM      3  N   UNL d   1      15.481   3.007   2.633  0.00  0.00    -0.125 NA
ATOM      4  C   UNL d   1      15.471   4.327   2.733  0.00  0.00     0.203 A 
ATOM      5  N   UNL d   1      14.163   4.759   2.786  0.00  0.00    -0.215 N 
ENDROOT
BRANCH   1   6
ATOM      6  S   UNL d   1      11.682   3.672   2.766  0.00  0.00    -0.079 SA
BRANCH   6   7
ATOM      7  C   UNL d   1      11.056   2.206   1.831  0.00  0.00     0.185 C 
BRANCH   7   8
ATOM      8  C   UNL d   1       9.518   2.262   1.881  0.00  0.00     0.231 C 
ATOM      9  N   UNL d   1       8.806   1.239   1.256  0.00  0.00    -0.327 N 
ATOM     10  H   UNL d   1       9.308   0.518   0.750  0.00  0.00     0.169 HD
ATOM     11  O   UNL d   1       8.967   3.213   2.457  0.00  0.00    -0.272 OA
BRANCH   9  12
ATOM     12  C   UNL d   1       7.378   1.200   1.170  0.00  0.00     0.034 A 
ATOM     13  C   UNL d   1       6.737   0.204   0.428  0.00  0.00     0.030 A 
ATOM     14  C   UNL d   1       5.339   0.231   0.257  0.00  0.00     0.010 A 
ATOM     15  C   UNL d   1       4.540   1.197   0.892  0.00  0.00    -0.054 A 
ATOM     16  C   UNL d   1       5.187   2.184   1.625  0.00  0.00     0.010 A 
ATOM     17  C   UNL d   1       6.567   2.163   1.778  0.00  0.00     0.030 A 
BRANCH  15  18
ATOM     18  C   UNL d   1       3.017   1.191   0.901  0.00  0.00     0.014 C 
ATOM     19  C   UNL d   1       2.520   1.080   2.358  0.00  0.00     0.015 C 
BRANCH  18  20
ATOM     20  C   UNL d   1       2.429   0.060   0.044  0.00  0.00     0.004 C 
ATOM     21  C   UNL d   1       0.914   0.048   0.015  0.00  0.00     0.006 C 
ENDBRANCH  18  20
ENDBRANCH  15  18
ENDBRANCH   9  12
ENDBRANCH   7   8
ENDBRANCH   6   7
ENDBRANCH   1   6
BRANCH   5  22
ATOM     22  N   UNL d   1      13.694   6.113   2.647  0.00  0.00    -0.335 N 
ATOM     23  H   UNL d   1      14.356   6.855   2.850  0.00  0.00     0.177 HD
ATOM     24  H   UNL d   1      12.769   6.295   3.026  0.00  0.00     0.177 HD
ENDBRANCH   5  22
BRANCH   4  25
ATOM     25  C   UNL d   1      16.671   5.219   2.762  0.00  0.00     0.128 A 
ATOM     26  C   UNL d   1      16.904   6.229   3.726  0.00  0.00     0.069 A 
ATOM     27  C   UNL d   1      18.099   6.821   3.374  0.00  0.00     0.062 A 
ATOM     28  N   UNL d   1      18.499   6.155   2.242  0.00  0.00    -0.277 N 
ATOM     29  N   UNL d   1      17.673   5.155   1.876  0.00  0.00    -0.171 NA
ATOM     30  H   UNL d   1      19.352   6.294   1.709  0.00  0.00     0.189 HD
BRANCH  27  31
ATOM     31  C   UNL d   1      18.926   7.796   4.072  0.00  0.00    -0.008 A 
ATOM     32  C   UNL d   1      19.381   8.964   3.449  0.00  0.00     0.015 A 
ATOM     33  C   UNL d   1      20.279   9.810   4.113  0.00  0.00     0.024 A 
ATOM     34  C   UNL d   1      20.665   9.526   5.423  0.00  0.00     0.034 A 
ATOM     35 CL   UNL d   1      21.709  10.605   6.262  0.00  0.00    -0.084 Cl
ATOM     36  C   UNL d   1      20.188   8.388   6.065  0.00  0.00     0.024 A 
ATOM     37  C   UNL d   1      19.321   7.527   5.390  0.00  0.00     0.015 A 
ENDBRANCH  27  31
ENDBRANCH   4  25
TORSDOF 9
