REMARK  11 active torsions:
REMARK  status: ('A' for Active; 'I' for Inactive)
REMARK    1  A    between atoms: C_2  and  C_3 
REMARK    2  A    between atoms: C_3  and  C_4 
REMARK    3  A    between atoms: C_4  and  O_5 
REMARK    4  A    between atoms: O_5  and  C_6 
REMARK    5  A    between atoms: C_11  and  C_12 
REMARK       I    between atoms: C_12  and  N_14 
REMARK    6  A    between atoms: N_14  and  C_15 
REMARK    7  A    between atoms: C_15  and  N_17 
REMARK    8  A    between atoms: N_17  and  N_18 
REMARK       I    between atoms: N_18  and  C_19 
REMARK    9  A    between atoms: C_19  and  C_21 
REMARK   10  A    between atoms: C_24  and  N_25 
REMARK       I    between atoms: N_25  and  C_26 
REMARK   11  A    between atoms: C_26  and  C_28 
ROOT
ATOM      1  N   UNL d   1       3.248   2.270   1.328  0.00  0.00    -0.273 N 
ATOM      2  H   UNL d   1       2.609   1.494   1.494  0.00  0.00     0.189 HD
ENDROOT
BRANCH   1   3
ATOM      3  C   UNL d   1       4.650   2.240   1.501  0.00  0.00     0.193 C 
ATOM      4  S   UNL d   1       5.567   3.559   0.987  0.00  0.00    -0.039 SA
BRANCH   3   5
ATOM      5  N   UNL d   1       5.187   1.070   2.104  0.00  0.00    -0.298 N 
ATOM      6  C   UNL d   1       6.558   0.677   2.102  0.00  0.00     0.260 C 
ATOM      7  O   UNL d   1       7.479   1.480   1.960  0.00  0.00    -0.267 OA
ATOM      8  H   UNL d   1       4.540   0.355   2.408  0.00  0.00     0.171 HD
BRANCH   6   9
ATOM      9  C   UNL d   1       7.000  -0.759   2.308  0.00  0.00     0.065 A 
ATOM     10  C   UNL d   1       8.377  -0.952   2.615  0.00  0.00     0.020 A 
ATOM     11  C   UNL d   1       8.927  -2.211   2.892  0.00  0.00     0.001 A 
ATOM     12  C   UNL d   1       8.107  -3.326   2.872  0.00  0.00     0.003 A 
ATOM     13  C   UNL d   1       6.771  -3.179   2.485  0.00  0.00     0.038 A 
ATOM     14  C   UNL d   1       6.216  -1.909   2.188  0.00  0.00     0.084 A 
BRANCH  14  15
ATOM     15  O   UNL d   1       4.878  -1.912   1.933  0.00  0.00    -0.350 OA
BRANCH  15  16
ATOM     16  C   UNL d   1       4.460  -1.343   0.689  0.00  0.00     0.175 C 
BRANCH  16  17
ATOM     17  C   UNL d   1       2.958  -1.140   0.848  0.00  0.00     0.026 C 
BRANCH  17  18
ATOM     18  C   UNL d   1       2.383  -0.317  -0.291  0.00  0.00    -0.002 C 
ATOM     19  C   UNL d   1       0.883  -0.187  -0.128  0.00  0.00     0.005 C 
ENDBRANCH  17  18
ENDBRANCH  16  17
ENDBRANCH  15  16
ENDBRANCH  14  15
ENDBRANCH   6   9
ENDBRANCH   3   5
ENDBRANCH   1   3
BRANCH   1  20
ATOM     20  N   UNL d   1       2.650   3.364   0.555  0.00  0.00    -0.264 N 
ATOM     21  C   UNL d   1       1.291   3.436   0.291  0.00  0.00     0.270 C 
ATOM     22  O   UNL d   1       0.499   2.498   0.445  0.00  0.00    -0.266 OA
ATOM     23  H   UNL d   1       3.244   4.189   0.486  0.00  0.00     0.190 HD
BRANCH  21  24
ATOM     24  C   UNL d   1       0.719   4.732  -0.167  0.00  0.00     0.033 A 
ATOM     25  C   UNL d   1      -0.570   5.122   0.249  0.00  0.00     0.019 A 
ATOM     26  C   UNL d   1      -1.172   6.311  -0.225  0.00  0.00     0.030 A 
ATOM     27  C   UNL d   1      -0.463   7.160  -1.083  0.00  0.00     0.034 A 
ATOM     28  C   UNL d   1       0.795   6.719  -1.519  0.00  0.00     0.030 A 
ATOM     29  C   UNL d   1       1.390   5.534  -1.075  0.00  0.00     0.019 A 
BRANCH  27  30
ATOM     30  N   UNL d   1      -0.997   8.434  -1.459  0.00  0.00    -0.327 N 
ATOM     31  C   UNL d   1      -0.302   9.371  -2.220  0.00  0.00     0.225 C 
ATOM     32  O   UNL d   1       0.811   9.179  -2.709  0.00  0.00    -0.273 OA
ATOM     33  H   UNL d   1      -1.899   8.692  -1.073  0.00  0.00     0.169 HD
BRANCH  31  34
ATOM     34  C   UNL d   1      -0.971  10.723  -2.474  0.00  0.00     0.070 C 
ATOM     35  C   UNL d   1      -1.207  11.501  -1.187  0.00  0.00     0.019 C 
ATOM     36  C   UNL d   1      -0.038  11.549  -3.384  0.00  0.00     0.019 C 
ENDBRANCH  31  34
ENDBRANCH  27  30
ENDBRANCH  21  24
ENDBRANCH   1  20
TORSDOF 11
