REMARK  9 active torsions:
REMARK  status: ('A' for Active; 'I' for Inactive)
REMARK    1  A    between atoms: C_2  and  O_4 
REMARK    2  A    between atoms: O_4  and  C_5 
REMARK    3  A    between atoms: C_9  and  C_10 
REMARK    4  A    between atoms: C_10  and  C_11 
REMARK       I    between atoms: C_11  and  N_13 
REMARK    5  A    between atoms: N_13  and  N_14 
REMARK       I    between atoms: N_14  and  C_15 
REMARK       I    between atoms: C_15  and  N_17 
REMARK    6  A    between atoms: N_17  and  C_18 
REMARK    7  A    between atoms: C_18  and  C_19 
REMARK    8  A    between atoms: C_19  and  C_20 
REMARK    9  A    between atoms: C_20  and  N_21 
ROOT
ATOM      1  C   UNL d   1       6.487   1.585   2.561  0.00  0.00     0.240 C 
ATOM      2  O   UNL d   1       5.283   1.812   2.411  0.00  0.00    -0.272 OA
ATOM      3  N   UNL d   1       7.175   2.595   3.197  0.00  0.00    -0.266 N 
ATOM      4  H   UNL d   1       8.146   2.574   3.491  0.00  0.00     0.190 HD
ENDROOT
BRANCH   3   5
ATOM      5  N   UNL d   1       6.384   3.736   3.580  0.00  0.00    -0.249 N 
ATOM      6  C   UNL d   1       6.957   4.772   4.265  0.00  0.00     0.334 C 
ATOM      7  O   UNL d   1       8.145   4.765   4.591  0.00  0.00    -0.246 OA
ATOM      8  N   UNL d   1       6.112   5.823   4.562  0.00  0.00    -0.342 N 
ATOM      9  H   UNL d   1       5.149   5.784   4.255  0.00  0.00     0.164 HD
ATOM     10  H   UNL d   1       5.403   3.685   3.299  0.00  0.00     0.192 HD
BRANCH   8  11
ATOM     11  C   UNL d   1       6.631   6.985   5.274  0.00  0.00     0.126 C 
BRANCH  11  12
ATOM     12  C   UNL d   1       5.590   8.074   5.532  0.00  0.00     0.040 C 
BRANCH  12  13
ATOM     13  C   UNL d   1       6.175   9.264   6.301  0.00  0.00     0.130 C 
BRANCH  13  14
ATOM     14  N   UNL d   1       5.177  10.330   6.538  0.00  0.00    -0.352 N 
ATOM     15  C   UNL d   1       5.429  11.702   6.506  0.00  0.00     0.108 A 
ATOM     16  C   UNL d   1       4.245  12.333   6.773  0.00  0.00     0.106 A 
ATOM     17  N   UNL d   1       3.319  11.340   6.978  0.00  0.00    -0.361 N 
ATOM     18  C   UNL d   1       3.886  10.136   6.859  0.00  0.00     0.182 A 
ATOM     19  H   UNL d   1       2.336  11.486   7.197  0.00  0.00     0.166 HD
ENDBRANCH  13  14
ENDBRANCH  12  13
ENDBRANCH  11  12
ENDBRANCH   8  11
ENDBRANCH   3   5
BRANCH   1  20
ATOM     20  C   UNL d   1       7.254   0.291   2.113  0.00  0.00     0.143 C 
BRANCH  20  21
ATOM     21  C   UNL d   1       6.466  -0.795   1.358  0.00  0.00    -0.047 C 
ATOM     22  C   UNL d   1       7.013  -1.997   0.900  0.00  0.00     0.007 C 
ATOM     23  C   UNL d   1       6.184  -2.960   0.278  0.00  0.00     0.003 C 
ATOM     24  C   UNL d   1       4.825  -2.698   0.009  0.00  0.00     0.037 C 
ATOM     25  C   UNL d   1       4.268  -1.509   0.445  0.00  0.00     0.069 C 
ATOM     26  C   UNL d   1       5.092  -0.663   1.168  0.00  0.00     0.044 C 
BRANCH  25  27
ATOM     27  O   UNL d   1       2.918  -1.279   0.369  0.00  0.00    -0.347 OA
BRANCH  27  28
ATOM     28  C   UNL d   1       2.450   0.044  -0.015  0.00  0.00     0.120 C 
ATOM     29  C   UNL d   1       0.921   0.000  -0.019  0.00  0.00     0.040 C 
ATOM     30  C   UNL d   1       2.799   1.232   0.886  0.00  0.00     0.040 C 
ENDBRANCH  27  28
ENDBRANCH  25  27
ENDBRANCH  20  21
ENDBRANCH   1  20
TORSDOF 9
