REMARK  5 active torsions:
REMARK  status: ('A' for Active; 'I' for Inactive)
REMARK    1  A    between atoms: C_2  and  N_5 
REMARK       I    between atoms: N_5  and  C_6 
REMARK    2  A    between atoms: C_6  and  C_8 
REMARK    3  A    between atoms: C_12  and  N_13 
REMARK    4  A    between atoms: N_13  and  C_14 
REMARK    5  A    between atoms: C_14  and  C_15 
REMARK       I    between atoms: C_15  and  N_17 
REMARK       I    between atoms: N_17  and  C_18 
REMARK       I    between atoms: C_18  and  N_19 
ROOT
ATOM      1  C   UNL d   1       4.959  -2.478  -1.851  0.00  0.00     0.034 A 
ATOM      2  C   UNL d   1       6.000  -3.259  -1.345  0.00  0.00     0.017 A 
ATOM      3  C   UNL d   1       6.547  -4.268  -2.128  0.00  0.00     0.003 A 
ATOM      4  C   UNL d   1       6.014  -4.527  -3.395  0.00  0.00     0.029 A 
ATOM      5  C   UNL d   1       4.979  -3.739  -3.928  0.00  0.00     0.029 A 
ATOM      6  C   UNL d   1       4.459  -2.710  -3.133  0.00  0.00     0.046 A 
ENDROOT
BRANCH   5   7
ATOM      7  N   UNL d   1       4.491  -4.010  -5.189  0.00  0.00    -0.381 N 
ATOM      8  H   UNL d   1       4.959  -4.711  -5.766  0.00  0.00     0.160 HD
BRANCH   7   9
ATOM      9  C   UNL d   1       3.507  -3.178  -5.883  0.00  0.00     0.223 C 
BRANCH   9  10
ATOM     10  C   UNL d   1       3.281  -3.727  -7.297  0.00  0.00     0.243 C 
ATOM     11  O   UNL d   1       3.925  -4.693  -7.715  0.00  0.00    -0.271 OA
ATOM     12  N   UNL d   1       2.324  -3.067  -8.054  0.00  0.00    -0.278 N 
ATOM     13  C   UNL d   1       1.943  -3.379  -9.332  0.00  0.00     0.320 C 
ATOM     14  H   UNL d   1       1.824  -2.274  -7.678  0.00  0.00     0.173 HD
ATOM     15  N   UNL d   1       2.562  -4.430  -9.909  0.00  0.00    -0.352 N 
ATOM     16  O   UNL d   1       1.079  -2.735  -9.921  0.00  0.00    -0.247 OA
ATOM     17  H   UNL d   1       3.277  -4.942  -9.397  0.00  0.00     0.160 HD
ATOM     18  H   UNL d   1       2.333  -4.713 -10.850  0.00  0.00     0.160 HD
ENDBRANCH   9  10
ENDBRANCH   7   9
ENDBRANCH   5   7
BRANCH   1  19
ATOM     19  C   UNL d   1       4.519  -1.319  -1.055  0.00  0.00     0.252 C 
ATOM     20  N   UNL d   1       3.160  -1.085  -0.939  0.00  0.00    -0.349 N 
ATOM     21  H   UNL d   1       2.511  -1.746  -1.350  0.00  0.00     0.163 HD
ATOM     22  O   UNL d   1       5.392  -0.636  -0.523  0.00  0.00    -0.268 OA
BRANCH  20  23
ATOM     23  C   UNL d   1       2.629  -0.000  -0.092  0.00  0.00     0.022 C 
ATOM     24  C   UNL d   1       1.088  -0.018  -0.101  0.00  0.00     0.037 C 
ATOM     25  C   UNL d   1       3.090   1.363  -0.633  0.00  0.00     0.037 C 
ATOM     26  C   UNL d   1       3.088  -0.173   1.368  0.00  0.00     0.037 C 
ENDBRANCH  20  23
ENDBRANCH   1  19
TORSDOF 5
