@<TRIPOS>MOLECULE
*****
 40 41 0 0 0
SMALL
GASTEIGER

@<TRIPOS>ATOM
      1 C           6.0277    9.9764   -8.7702 C.3     1  UNL1        0.0789
      2 O           6.6646    8.7609   -8.3678 O.3     1  UNL1       -0.4922
      3 C           6.5839    8.4954   -7.0277 C.ar    1  UNL1        0.1552
      4 C           7.7115    7.9437   -6.4090 C.ar    1  UNL1       -0.0153
      5 C           7.6996    7.6236   -5.0313 C.ar    1  UNL1       -0.0368
      6 C           6.5402    7.8278   -4.2672 C.ar    1  UNL1        0.0364
      7 N           6.5074    7.5217   -2.8765 N.am    1  UNL1       -0.2839
      8 C           5.4013    7.7414   -2.0486 C.2     1  UNL1        0.2373
      9 O           4.2873    8.1217   -2.4157 O.2     1  UNL1       -0.2734
     10 C           5.5928    7.4283   -0.5546 C.3     1  UNL1        0.0972
     11 C           4.8272    6.1281   -0.2800 C.3     1  UNL1       -0.0381
     12 N           5.0318    8.5295    0.2452 N.am    1  UNL1       -0.3003
     13 C           5.5189    9.8194    0.1259 C.2     1  UNL1        0.2447
     14 O           6.4641   10.1214   -0.5991 O.2     1  UNL1       -0.2702
     15 C           4.8144   10.8628    0.9218 C.ar    1  UNL1        0.0368
     16 C           4.5248   10.6173    2.2688 C.ar    1  UNL1       -0.0483
     17 C           3.8400   11.5717    3.0267 C.ar    1  UNL1       -0.0427
     18 C           3.4494   12.7757    2.4424 C.ar    1  UNL1        0.0410
     19 CL          2.5575   13.9188    3.3702 Cl      1  UNL1       -0.0835
     20 C           3.7727   13.0507    1.1134 C.ar    1  UNL1       -0.0427
     21 C           4.4666   12.0974    0.3523 C.ar    1  UNL1       -0.0483
     22 C           5.4238    8.3466   -4.9193 C.ar    1  UNL1       -0.0016
     23 C           5.4401    8.6702   -6.2656 C.ar    1  UNL1        0.1665
     24 F           4.2937    9.1217   -6.7908 F       1  UNL1       -0.2016
     25 H           6.1286   10.0622   -9.8560 H       1  UNL1        0.0660
     26 H           6.5271   10.8357   -8.3109 H       1  UNL1        0.0660
     27 H           4.9548   10.0041   -8.5647 H       1  UNL1        0.0660
     28 H           8.6083    7.7712   -7.0016 H       1  UNL1        0.0656
     29 H           8.6088    7.2182   -4.5915 H       1  UNL1        0.0637
     30 H           7.3754    7.2127   -2.4532 H       1  UNL1        0.1549
     31 H           6.6499    7.3228   -0.2970 H       1  UNL1        0.0592
     32 H           3.7682    6.2200   -0.5617 H       1  UNL1        0.0252
     33 H           4.8547    5.8603    0.7801 H       1  UNL1        0.0252
     34 H           5.2372    5.2963   -0.8636 H       1  UNL1        0.0252
     35 H           4.1434    8.3843    0.7108 H       1  UNL1        0.1498
     36 H           4.8515    9.6944    2.7391 H       1  UNL1        0.0625
     37 H           3.6147   11.3695    4.0704 H       1  UNL1        0.0632
     38 H           3.4816   13.9999    0.6675 H       1  UNL1        0.0632
     39 H           4.7171   12.3191   -0.6837 H       1  UNL1        0.0625
     40 H           4.4809    8.5279   -4.4276 H       1  UNL1        0.0666
@<TRIPOS>BOND
     1     1     2    1
     2     2     3    1
     3     3     4   ar
     4     4     5   ar
     5     5     6   ar
     6     6     7    1
     7     7     8   am
     8     8     9    2
     9    10    12    1
    10    12    13   am
    11    13    14    2
    12    13    15    1
    13    15    16   ar
    14    16    17   ar
    15    17    18   ar
    16    18    19    1
    17    18    20   ar
    18    20    21   ar
    19    15    21   ar
    20     6    22   ar
    21    22    23   ar
    22     3    23   ar
    23    23    24    1
    24    10    11    1
    25    10     8    1
    26     1    25    1
    27     1    26    1
    28     1    27    1
    29     4    28    1
    30     5    29    1
    31     7    30    1
    32    10    31    1
    33    11    32    1
    34    11    33    1
    35    11    34    1
    36    12    35    1
    37    16    36    1
    38    17    37    1
    39    20    38    1
    40    21    39    1
    41    22    40    1
