@<TRIPOS>MOLECULE
*****
 79 81 0 0 0
SMALL
GASTEIGER

@<TRIPOS>ATOM
      1 C          -4.2062  -10.2474    2.3079 C.3     1  UNL1       -0.0381
      2 C          -3.7724   -9.5734    1.0076 C.3     1  UNL1        0.0966
      3 N          -3.8170   -8.1850    1.2875 N.am    1  UNL1       -0.3040
      4 C          -2.8591   -7.2129    1.1108 C.2     1  UNL1        0.2168
      5 O          -1.7082   -7.4780    0.7898 O.2     1  UNL1       -0.2755
      6 C          -3.3383   -5.8822    1.7021 C.3     1  UNL1        0.0384
      7 C          -4.9002   -5.8293    1.7315 C.3     1  UNL1       -0.0260
      8 C          -5.5875   -4.9854    0.6756 C.3     1  UNL1        0.0154
      9 N          -5.2101   -3.6616    0.9965 N.am    1  UNL1       -0.2999
     10 C          -6.1628   -2.6729    1.0821 C.2     1  UNL1        0.2363
     11 O          -7.3389   -3.0712    1.1133 O.2     1  UNL1       -0.2736
     12 C          -5.8754   -1.0952    1.0821 C.3     1  UNL1        0.1066
     13 C          -4.4348   -0.5752    1.3749 C.3     1  UNL1       -0.0005
     14 C          -3.2405   -0.9260    0.3827 C.ar    1  UNL1       -0.0451
     15 C          -3.4306   -1.6798   -0.8187 C.ar    1  UNL1       -0.0585
     16 C          -2.4316   -2.6125   -1.2605 C.ar    1  UNL1       -0.0615
     17 C          -1.2299   -2.7589   -0.5599 C.ar    1  UNL1       -0.0617
     18 C          -0.9822   -1.9342    0.5395 C.ar    1  UNL1       -0.0615
     19 C          -1.9590   -1.0202    0.9999 C.ar    1  UNL1       -0.0585
     20 N          -6.9125   -0.4850    1.9942 N.am    1  UNL1       -0.2695
     21 C          -8.2468   -0.5423    1.6538 C.2     1  UNL1        0.4014
     22 O          -8.6129   -0.9212    0.5232 O.2     1  UNL1       -0.2264
     23 O          -9.1132   -0.1473    2.6342 O.3     1  UNL1       -0.4447
     24 C         -10.5555   -0.2844    2.3684 C.3     1  UNL1        0.1068
     25 C         -10.9803    0.4745    1.0988 C.3     1  UNL1       -0.0253
     26 C         -10.9571   -1.7667    2.2833 C.3     1  UNL1       -0.0253
     27 C         -11.3516    0.3340    3.5396 C.3     1  UNL1       -0.0253
     28 C          -3.7993   -3.6214    0.9513 C.3     1  UNL1        0.0154
     29 C          -2.9130   -4.4500    1.8054 C.3     1  UNL1       -0.0260
     30 C          -4.8074   -9.8296   -0.1131 C.2     1  UNL1        0.2333
     31 O          -5.5319   -8.9685   -0.6059 O.2     1  UNL1       -0.2738
     32 N          -4.8544  -11.1467   -0.4777 N.am    1  UNL1       -0.3097
     33 C          -5.7047  -11.6343   -1.5332 C.3     1  UNL1        0.0369
     34 C          -5.5233  -13.1122   -1.7901 C.ar    1  UNL1       -0.0302
     35 C          -4.3236  -13.7860   -1.4932 C.ar    1  UNL1       -0.0544
     36 C          -4.1332  -15.1102   -1.8780 C.ar    1  UNL1       -0.0261
     37 C          -5.1639  -15.7927   -2.5036 C.ar    1  UNL1        0.1234
     38 F          -4.9983  -17.0833   -2.8175 F       1  UNL1       -0.2055
     39 C          -6.3641  -15.1587   -2.7992 C.ar    1  UNL1       -0.0261
     40 C          -6.5414  -13.8175   -2.4525 C.ar    1  UNL1       -0.0544
     41 H          -4.1315  -11.3304    2.2394 H       1  UNL1        0.0252
     42 H          -5.2478   -9.9942    2.5640 H       1  UNL1        0.0252
     43 H          -3.5929   -9.8936    3.1464 H       1  UNL1        0.0252
     44 H          -2.7686   -9.8380    0.6864 H       1  UNL1        0.0592
     45 H          -4.7299   -8.0125    1.6500 H       1  UNL1        0.1494
     46 H          -2.7536   -6.1008    2.6061 H       1  UNL1        0.0395
     47 H          -5.1736   -5.5227    2.7408 H       1  UNL1        0.0288
     48 H          -5.4492   -6.7035    1.4726 H       1  UNL1        0.0288
     49 H          -6.6658   -5.1564    0.6555 H       1  UNL1        0.0465
     50 H          -5.2332   -5.2218   -0.3437 H       1  UNL1        0.0465
     51 H          -6.1329   -0.7224    0.0836 H       1  UNL1        0.0599
     52 H          -4.4338    0.5144    1.4847 H       1  UNL1        0.0336
     53 H          -4.1908   -0.9582    2.3854 H       1  UNL1        0.0336
     54 H          -4.4502   -1.9020   -1.1603 H       1  UNL1        0.0620
     55 H          -2.7347   -3.4776   -1.8763 H       1  UNL1        0.0618
     56 H          -0.6005   -3.6389   -0.7310 H       1  UNL1        0.0618
     57 H          -0.1124   -2.1492    1.1615 H       1  UNL1        0.0618
     58 H          -1.8172   -0.6164    2.0040 H       1  UNL1        0.0620
     59 H          -6.6843   -0.1220    2.9123 H       1  UNL1        0.1528
     60 H         -10.5025    0.0963    0.1945 H       1  UNL1        0.0268
     61 H         -10.7111    1.5328    1.1744 H       1  UNL1        0.0268
     62 H         -12.0579    0.3910    0.9249 H       1  UNL1        0.0268
     63 H         -10.4360   -2.2885    1.4772 H       1  UNL1        0.0268
     64 H         -12.0334   -1.8769    2.1036 H       1  UNL1        0.0268
     65 H         -10.7103   -2.2933    3.2123 H       1  UNL1        0.0268
     66 H         -11.1231    1.3978    3.6638 H       1  UNL1        0.0268
     67 H         -11.1269   -0.1582    4.4915 H       1  UNL1        0.0268
     68 H         -12.4346    0.2458    3.3683 H       1  UNL1        0.0268
     69 H          -3.5355   -2.6847    1.3177 H       1  UNL1        0.0465
     70 H          -3.5866   -3.9827   -0.0471 H       1  UNL1        0.0465
     71 H          -3.0808   -4.0765    2.8328 H       1  UNL1        0.0288
     72 H          -1.8619   -4.2426    1.5868 H       1  UNL1        0.0288
     73 H          -4.2829  -11.7931    0.0408 H       1  UNL1        0.1491
     74 H          -5.4650  -11.0803   -2.4486 H       1  UNL1        0.0512
     75 H          -6.7426  -11.4079   -1.2612 H       1  UNL1        0.0512
     76 H          -3.5041  -13.2982   -0.9744 H       1  UNL1        0.0622
     77 H          -3.1811  -15.6006   -1.7052 H       1  UNL1        0.0646
     78 H          -7.1461  -15.7069   -3.3143 H       1  UNL1        0.0646
     79 H          -7.4761  -13.3227   -2.7113 H       1  UNL1        0.0622
@<TRIPOS>BOND
     1     3     4   am
     2     4     5    2
     3     4     6    1
     4     6     7    1
     5     7     8    1
     6     8     9    1
     7     9    10   am
     8    10    11    2
     9    13    14    1
    10    14    15   ar
    11    15    16   ar
    12    16    17   ar
    13    17    18   ar
    14    18    19   ar
    15    14    19   ar
    16    12    20    1
    17    20    21   am
    18    21    22    2
    19    21    23    1
    20    23    24    1
    21    24    25    1
    22    24    26    1
    23    24    27    1
    24     9    28    1
    25    28    29    1
    26     6    29    1
    27     2    30    1
    28    30    31    2
    29    30    32   am
    30    32    33    1
    31    33    34    1
    32    34    35   ar
    33    35    36   ar
    34    36    37   ar
    35    37    38    1
    36    37    39   ar
    37    39    40   ar
    38    34    40   ar
    39     2     3    1
    40     2     1    1
    41    12    13    1
    42    12    10    1
    43     1    41    1
    44     1    42    1
    45     1    43    1
    46     2    44    1
    47     3    45    1
    48     6    46    1
    49     7    47    1
    50     7    48    1
    51     8    49    1
    52     8    50    1
    53    12    51    1
    54    13    52    1
    55    13    53    1
    56    15    54    1
    57    16    55    1
    58    17    56    1
    59    18    57    1
    60    19    58    1
    61    20    59    1
    62    25    60    1
    63    25    61    1
    64    25    62    1
    65    26    63    1
    66    26    64    1
    67    26    65    1
    68    27    66    1
    69    27    67    1
    70    27    68    1
    71    28    69    1
    72    28    70    1
    73    29    71    1
    74    29    72    1
    75    32    73    1
    76    33    74    1
    77    33    75    1
    78    35    76    1
    79    36    77    1
    80    39    78    1
    81    40    79    1
