REMARK  6 active torsions:
REMARK  status: ('A' for Active; 'I' for Inactive)
REMARK    1  A    between atoms: C_5  and  C_6 
REMARK    2  A    between atoms: C_9  and  C_10 
REMARK    3  A    between atoms: C_10  and  C_11 
REMARK    4  A    between atoms: C_11  and  C_12 
REMARK       I    between atoms: C_12  and  N_14 
REMARK    5  A    between atoms: N_14  and  N_15 
REMARK       I    between atoms: N_15  and  C_16 
REMARK       I    between atoms: C_16  and  N_18 
REMARK    6  A    between atoms: N_18  and  C_19 
ROOT
ATOM      1  C   UNL d   1      -7.512  -2.874  -3.317  0.00  0.00     0.236 C 
ATOM      2  O   UNL d   1      -8.236  -3.763  -2.869  0.00  0.00    -0.272 OA
ATOM      3  N   UNL d   1      -7.790  -2.236  -4.516  0.00  0.00    -0.266 N 
ATOM      4  H   UNL d   1      -7.225  -1.485  -4.914  0.00  0.00     0.190 HD
ENDROOT
BRANCH   1   5
ATOM      5  C   UNL d   1      -6.247  -2.406  -2.594  0.00  0.00     0.112 C 
BRANCH   5   6
ATOM      6  C   UNL d   1      -6.013  -3.162  -1.272  0.00  0.00     0.098 C 
BRANCH   6   7
ATOM      7  C   UNL d   1      -4.778  -2.692  -0.583  0.00  0.00     0.173 A 
ATOM      8  O   UNL d   1      -4.425  -3.310   0.584  0.00  0.00    -0.196 OA
ATOM      9  N   UNL d   1      -3.222  -2.721   0.997  0.00  0.00    -0.106 NA
ATOM     10  C   UNL d   1      -2.984  -1.802   0.048  0.00  0.00     0.189 A 
ATOM     11  N   UNL d   1      -3.938  -1.748  -0.940  0.00  0.00    -0.204 NA
BRANCH  10  12
ATOM     12  C   UNL d   1      -1.837  -0.914   0.035  0.00  0.00     0.017 A 
ATOM     13  C   UNL d   1      -2.030   0.474  -0.002  0.00  0.00     0.016 A 
ATOM     14  C   UNL d   1      -0.936   1.346  -0.006  0.00  0.00     0.011 A 
ATOM     15  C   UNL d   1       0.367   0.839   0.002  0.00  0.00    -0.023 A 
ATOM     16  C   UNL d   1       1.556   1.752   0.010  0.00  0.00     0.051 C 
ATOM     17  C   UNL d   1       0.547  -0.548   0.008  0.00  0.00     0.123 A 
ATOM     18  C   UNL d   1      -0.536  -1.424   0.029  0.00  0.00     0.058 A 
ATOM     19  F   UNL d   1       1.788  -1.055  -0.004  0.00  0.00    -0.206 F 
ENDBRANCH  10  12
ENDBRANCH   6   7
ENDBRANCH   5   6
ENDBRANCH   1   5
BRANCH   3  20
ATOM     20  N   UNL d   1      -8.919  -2.646  -5.312  0.00  0.00    -0.249 N 
ATOM     21  C   UNL d   1      -9.282  -1.831  -6.380  0.00  0.00     0.339 C 
ATOM     22  O   UNL d   1      -8.648  -0.794  -6.590  0.00  0.00    -0.245 OA
ATOM     23  N   UNL d   1     -10.327  -2.307  -7.169  0.00  0.00    -0.307 N 
ATOM     24  H   UNL d   1     -11.046  -2.845  -6.704  0.00  0.00     0.170 HD
ATOM     25  H   UNL d   1      -9.535  -3.334  -4.887  0.00  0.00     0.192 HD
BRANCH  23  26
ATOM     26  C   UNL d   1     -10.675  -1.758  -8.451  0.00  0.00     0.042 A 
ATOM     27  C   UNL d   1     -12.028  -1.530  -8.777  0.00  0.00     0.030 A 
ATOM     28  C   UNL d   1     -12.403  -1.039 -10.044  0.00  0.00     0.002 A 
ATOM     29  C   UNL d   1     -11.440  -0.803 -11.018  0.00  0.00     0.001 A 
ATOM     30  C   UNL d   1     -10.105  -1.053 -10.723  0.00  0.00     0.009 A 
ATOM     31  C   UNL d   1      -9.709  -1.532  -9.455  0.00  0.00    -0.035 A 
ATOM     32  C   UNL d   1      -8.259  -1.879  -9.277  0.00  0.00     0.050 C 
ENDBRANCH  23  26
ENDBRANCH   3  20
TORSDOF 6
