REMARK  8 active torsions:
REMARK  status: ('A' for Active; 'I' for Inactive)
REMARK    1  A    between atoms: C_2  and  C_4 
REMARK    2  A    between atoms: C_4  and  C_5 
REMARK    3  A    between atoms: C_5  and  N_6 
REMARK    4  A    between atoms: N_6  and  C_7 
REMARK    5  A    between atoms: C_7  and  N_9 
REMARK    6  A    between atoms: N_9  and  N_10 
REMARK       I    between atoms: N_10  and  C_11 
REMARK    7  A    between atoms: C_11  and  C_13 
REMARK    8  A    between atoms: C_17  and  N_18 
ROOT
ATOM      1  N   UNL d   1       8.289   2.371  -4.128  0.00  0.00    -0.264 N 
ATOM      2  C   UNL d   1       8.713   3.072  -5.242  0.00  0.00     0.270 C 
ATOM      3  O   UNL d   1       7.942   3.598  -6.046  0.00  0.00    -0.266 OA
ATOM      4  H   UNL d   1       8.926   2.015  -3.418  0.00  0.00     0.190 HD
ENDROOT
BRANCH   1   5
ATOM      5  N   UNL d   1       6.896   2.230  -3.819  0.00  0.00    -0.274 N 
ATOM      6  H   UNL d   1       6.247   2.610  -4.505  0.00  0.00     0.189 HD
BRANCH   5   7
ATOM      7  C   UNL d   1       6.510   1.583  -2.648  0.00  0.00     0.186 C 
ATOM      8  S   UNL d   1       7.644   0.968  -1.562  0.00  0.00    -0.040 SA
BRANCH   7   9
ATOM      9  N   UNL d   1       5.133   1.502  -2.454  0.00  0.00    -0.366 N 
ATOM     10  H   UNL d   1       4.506   1.856  -3.165  0.00  0.00     0.161 HD
BRANCH   9  11
ATOM     11  C   UNL d   1       4.532   0.829  -1.294  0.00  0.00     0.122 C 
BRANCH  11  12
ATOM     12  C   UNL d   1       3.000   0.790  -1.256  0.00  0.00     0.023 C 
BRANCH  12  13
ATOM     13  C   UNL d   1       2.467   0.063   0.006  0.00  0.00    -0.021 C 
ATOM     14  C   UNL d   1       0.936   0.081   0.032  0.00  0.00     0.009 C 
ATOM     15  C   UNL d   1       2.949  -1.389   0.081  0.00  0.00     0.009 C 
ENDBRANCH  12  13
ENDBRANCH  11  12
ENDBRANCH   9  11
ENDBRANCH   7   9
ENDBRANCH   5   7
ENDBRANCH   1   5
BRANCH   2  16
ATOM     16  C   UNL d   1      10.197   3.165  -5.468  0.00  0.00     0.036 A 
ATOM     17  C   UNL d   1      10.749   4.342  -6.005  0.00  0.00     0.017 A 
ATOM     18  C   UNL d   1      12.100   4.400  -6.386  0.00  0.00     0.003 A 
ATOM     19  C   UNL d   1      12.931   3.298  -6.189  0.00  0.00     0.036 A 
ATOM     20  C   UNL d   1      12.387   2.125  -5.650  0.00  0.00     0.103 A 
ATOM     21  C   UNL d   1      11.027   2.051  -5.286  0.00  0.00     0.053 A 
BRANCH  20  22
ATOM     22  N   UNL d   1      13.237   0.931  -5.523  0.00  0.00    -0.116 N 
ATOM     23  O   UNL d   1      14.424   1.025  -5.865  0.00  0.00    -0.532 OA
ATOM     24  O   UNL d   1      12.710  -0.101  -5.087  0.00  0.00    -0.532 OA
ENDBRANCH  20  22
ENDBRANCH   2  16
TORSDOF 8
