REMARK  7 active torsions:
REMARK  status: ('A' for Active; 'I' for Inactive)
REMARK    1  A    between atoms: C_10  and  O_11 
REMARK    2  A    between atoms: C_10  and  C_12 
REMARK       I    between atoms: C_12  and  N_14 
REMARK    3  A    between atoms: N_14  and  C_15 
REMARK    4  A    between atoms: C_15  and  C_16 
REMARK    5  A    between atoms: C_16  and  C_17 
REMARK    6  A    between atoms: C_17  and  N_18 
REMARK    7  A    between atoms: N_24  and  C_25 
ROOT
ATOM      1  O   UNL d   1       1.318   0.003   0.570  0.00  0.00    -0.246 OA
ATOM      2  C   UNL d   1       2.486  -0.137   0.185  0.00  0.00     0.330 C 
ATOM      3  N   UNL d   1       3.231   0.947  -0.241  0.00  0.00    -0.308 N 
ATOM      4  C   UNL d   1       4.296   0.830  -1.147  0.00  0.00     0.048 A 
ATOM      5  C   UNL d   1       4.893   1.961  -1.713  0.00  0.00     0.030 A 
ATOM      6  C   UNL d   1       5.849   1.807  -2.725  0.00  0.00     0.002 A 
ATOM      7  C   UNL d   1       6.200   0.537  -3.174  0.00  0.00     0.001 A 
ATOM      8  C   UNL d   1       5.604  -0.582  -2.606  0.00  0.00     0.015 A 
ATOM      9  C   UNL d   1       4.666  -0.446  -1.570  0.00  0.00     0.034 A 
ATOM     10  C   UNL d   1       3.921  -1.634  -1.013  0.00  0.00     0.256 C 
ATOM     11  N   UNL d   1       3.172  -1.344   0.198  0.00  0.00    -0.254 N 
ATOM     12  H   UNL d   1       2.877   1.863   0.005  0.00  0.00     0.170 HD
ENDROOT
BRANCH  10  13
ATOM     13  O   UNL d   1       4.814  -2.724  -0.768  0.00  0.00    -0.359 OA
ATOM     14  H   UNL d   1       5.277  -2.897  -1.600  0.00  0.00     0.213 HD
ENDBRANCH  10  13
BRANCH  10  15
ATOM     15  C   UNL d   1       2.841  -2.130  -2.064  0.00  0.00     0.279 C 
ATOM     16  O   UNL d   1       2.658  -1.611  -3.166  0.00  0.00    -0.268 OA
ATOM     17  N   UNL d   1       2.168  -3.281  -1.697  0.00  0.00    -0.356 N 
ATOM     18  H   UNL d   1       2.320  -3.669  -0.773  0.00  0.00     0.162 HD
BRANCH  17  19
ATOM     19  C   UNL d   1       1.171  -3.836  -2.561  0.00  0.00     0.124 C 
BRANCH  19  20
ATOM     20  C   UNL d   1       0.542  -5.087  -1.963  0.00  0.00     0.050 C 
BRANCH  20  21
ATOM     21  C   UNL d   1      -0.444  -5.582  -2.987  0.00  0.00     0.274 C 
BRANCH  21  22
ATOM     22  N   UNL d   1      -1.352  -6.635  -2.502  0.00  0.00     0.092 N 
ATOM     23  C   UNL d   1      -1.180  -7.928  -3.225  0.00  0.00     0.298 C 
ATOM     24  C   UNL d   1      -1.423  -7.822  -4.745  0.00  0.00     0.198 C 
ATOM     25  O   UNL d   1      -2.706  -7.240  -5.036  0.00  0.00    -0.388 OA
ATOM     26  C   UNL d   1      -2.869  -5.984  -4.364  0.00  0.00     0.198 C 
ATOM     27  C   UNL d   1      -2.723  -6.162  -2.834  0.00  0.00     0.298 C 
ENDBRANCH  21  22
ENDBRANCH  20  21
ENDBRANCH  19  20
ENDBRANCH  17  19
ENDBRANCH  10  15
BRANCH  11  28
ATOM     28  C   UNL d   1       3.426  -1.992   1.450  0.00  0.00     0.044 A 
ATOM     29  C   UNL d   1       2.376  -2.582   2.163  0.00  0.00     0.031 A 
ATOM     30  C   UNL d   1       2.623  -3.271   3.362  0.00  0.00     0.028 A 
ATOM     31  C   UNL d   1       3.893  -3.250   3.943  0.00  0.00     0.055 A 
ATOM     32 CL   UNL d   1       4.088  -3.970   5.503  0.00  0.00    -0.083 Cl
ATOM     33  C   UNL d   1       4.943  -2.635   3.259  0.00  0.00     0.058 A 
ATOM     34 CL   UNL d   1       6.532  -2.514   3.936  0.00  0.00    -0.082 Cl
ATOM     35  C   UNL d   1       4.721  -2.068   1.993  0.00  0.00     0.055 A 
ENDBRANCH  11  28
TORSDOF 7
