@<TRIPOS>MOLECULE
*****
 46 47 0 0 0
SMALL
GASTEIGER

@<TRIPOS>ATOM
      1 C           3.3941   -2.2805   -5.5683 C.3     1  UNL1       -0.0014
      2 C           4.5686   -2.8556   -4.8465 C.2     1  UNL1        0.1602
      3 O           5.6193   -3.1315   -5.4231 O.2     1  UNL1       -0.2924
      4 C           4.4787   -3.0707   -3.3907 C.ar    1  UNL1        0.0189
      5 C           5.6589   -2.8280   -2.6872 C.ar    1  UNL1       -0.0512
      6 C           5.7293   -3.2151   -1.3817 C.ar    1  UNL1       -0.0594
      7 C           4.5944   -3.7424   -0.7810 C.ar    1  UNL1       -0.0408
      8 C           3.3745   -4.0162   -1.4207 C.ar    1  UNL1        0.0283
      9 N           2.2701   -4.6264   -0.8272 N.pl3   1  UNL1       -0.3331
     10 C           2.1301   -5.2236    0.5379 C.3     1  UNL1        0.0949
     11 C           3.2740   -4.8580    1.4852 C.3     1  UNL1       -0.0381
     12 C           2.0534   -6.7803    0.5429 C.2     1  UNL1        0.2404
     13 O           2.9664   -7.4069    1.0955 O.2     1  UNL1       -0.2733
     14 N           0.9423   -7.4145   -0.0025 N.am    1  UNL1       -0.2384
     15 C           0.8309   -8.7958    0.0649 C.2     1  UNL1        0.3102
     16 O           1.6968   -9.5116    0.5822 O.2     1  UNL1       -0.2521
     17 N          -0.3065   -9.3582   -0.5071 N.am    1  UNL1       -0.2692
     18 C          -0.5043  -10.7803   -0.4911 C.ar    1  UNL1        0.0348
     19 C          -0.9909  -11.4613   -1.6124 C.ar    1  UNL1       -0.0402
     20 C          -1.1912  -12.8575   -1.5728 C.ar    1  UNL1       -0.0571
     21 C          -0.8725  -13.6004   -0.4290 C.ar    1  UNL1       -0.0503
     22 C          -0.9447  -15.1019   -0.4172 C.3     1  UNL1       -0.0397
     23 C          -0.4184  -12.9161    0.6991 C.ar    1  UNL1       -0.0571
     24 C          -0.2337  -11.5279    0.6629 C.ar    1  UNL1       -0.0402
     25 C           3.3349   -3.6293   -2.7680 C.ar    1  UNL1       -0.0304
     26 H           3.6537   -2.2020   -6.6282 H       1  UNL1        0.0309
     27 H           3.1827   -1.2794   -5.1854 H       1  UNL1        0.0309
     28 H           2.5245   -2.9314   -5.4755 H       1  UNL1        0.0309
     29 H           6.5266   -2.3694   -3.1504 H       1  UNL1        0.0625
     30 H           6.6441   -3.1416   -0.8004 H       1  UNL1        0.0618
     31 H           4.8026   -3.8898    0.2571 H       1  UNL1        0.0636
     32 H           1.4772   -4.7811   -1.4414 H       1  UNL1        0.1468
     33 H           1.2103   -4.8290    0.9863 H       1  UNL1        0.0591
     34 H           4.1926   -5.3552    1.1348 H       1  UNL1        0.0252
     35 H           3.1658   -5.2238    2.5060 H       1  UNL1        0.0252
     36 H           3.3892   -3.7707    1.5524 H       1  UNL1        0.0252
     37 H           0.1993   -6.8658   -0.4020 H       1  UNL1        0.1591
     38 H          -0.8618   -8.8304   -1.1632 H       1  UNL1        0.1564
     39 H          -1.1421  -10.9518   -2.5599 H       1  UNL1        0.0636
     40 H          -1.5765  -13.3706   -2.4525 H       1  UNL1        0.0621
     41 H          -1.2849  -15.4977   -1.3799 H       1  UNL1        0.0278
     42 H          -1.6300  -15.4583    0.3584 H       1  UNL1        0.0278
     43 H           0.0513  -15.5202   -0.2286 H       1  UNL1        0.0278
     44 H          -0.1868  -13.4541    1.6160 H       1  UNL1        0.0621
     45 H           0.1288  -11.0378    1.5631 H       1  UNL1        0.0636
     46 H           2.4354   -3.7991   -3.3527 H       1  UNL1        0.0643
@<TRIPOS>BOND
     1     1     2    1
     2     2     3    2
     3     2     4    1
     4     4     5   ar
     5     5     6   ar
     6     6     7   ar
     7     7     8   ar
     8     8     9    1
     9    10    12    1
    10    12    13    2
    11    12    14   am
    12    14    15   am
    13    15    16    2
    14    15    17   am
    15    17    18    1
    16    18    19   ar
    17    19    20   ar
    18    20    21   ar
    19    21    22    1
    20    21    23   ar
    21    23    24   ar
    22    18    24   ar
    23     8    25   ar
    24     4    25   ar
    25    10    11    1
    26    10     9    1
    27     1    26    1
    28     1    27    1
    29     1    28    1
    30     5    29    1
    31     6    30    1
    32     7    31    1
    33     9    32    1
    34    10    33    1
    35    11    34    1
    36    11    35    1
    37    11    36    1
    38    14    37    1
    39    17    38    1
    40    19    39    1
    41    20    40    1
    42    22    41    1
    43    22    42    1
    44    22    43    1
    45    23    44    1
    46    24    45    1
    47    25    46    1
