@<TRIPOS>MOLECULE
*****
 63 66 0 0 0
SMALL
GASTEIGER

@<TRIPOS>ATOM
      1 C           0.9730    0.0698    0.0378 C.3     1  UNL1       -0.0305
      2 C           2.4982    0.1108    0.0692 C.3     1  UNL1        0.0913
      3 O           2.9589    1.4207    0.4839 O.3     1  UNL1       -0.4505
      4 C           4.3062    1.6385    0.3565 C.2     1  UNL1        0.4029
      5 O           5.0940    0.7904   -0.0552 O.2     1  UNL1       -0.2263
      6 N           4.6884    2.9353    0.6747 N.am    1  UNL1       -0.2673
      7 C           5.5516    3.6943   -0.2224 C.3     1  UNL1        0.0195
      8 C           6.6871    4.3891    0.5207 C.3     1  UNL1       -0.0185
      9 C           6.1501    5.2672    1.6692 C.3     1  UNL1        0.0260
     10 N           5.4587    6.4851    1.1754 N.am    1  UNL1       -0.3117
     11 C           6.1171    7.4496    0.4113 C.2     1  UNL1        0.2235
     12 O           7.3167    7.3293    0.1640 O.2     1  UNL1       -0.2749
     13 C           5.2524    8.6430   -0.1037 C.3     1  UNL1        0.0776
     14 S           6.2241    9.6420   -1.2798 S.3     1  UNL1       -0.0779
     15 C           5.3051   11.1031   -1.7049 C.ar    1  UNL1        0.1772
     16 N           4.2116   10.9196   -2.3978 N.ar    1  UNL1       -0.2212
     17 C           3.6221   12.0932   -2.8854 C.ar    1  UNL1        0.0969
     18 C           2.5389   12.2251   -3.7826 C.ar    1  UNL1       -0.0151
     19 C           2.4916   13.5610   -4.1801 C.ar    1  UNL1        0.0155
     20 C           1.7769   14.2142   -5.3335 C.3     1  UNL1       -0.0244
     21 N           3.3158   14.2453   -3.2945 N.ar    1  UNL1       -0.3527
     22 C           4.1027   13.3386   -2.6118 C.ar    1  UNL1        0.1309
     23 C           5.2424   13.5611   -1.7766 C.ar    1  UNL1        0.2832
     24 O           5.6286   14.7048   -1.5049 O.2     1  UNL1       -0.2649
     25 N           5.8659   12.3682   -1.3626 N.ar    1  UNL1       -0.2543
     26 C           7.0525   12.4883   -0.5600 C.ar    1  UNL1        0.0520
     27 C           6.9771   13.0529    0.7185 C.ar    1  UNL1       -0.0374
     28 C           8.0546   12.9338    1.6033 C.ar    1  UNL1       -0.0569
     29 C           9.3043   12.5146    1.1402 C.ar    1  UNL1       -0.0503
     30 C          10.5258   12.6192    2.0052 C.3     1  UNL1       -0.0397
     31 C           9.4184   12.0682   -0.1786 C.ar    1  UNL1       -0.0569
     32 C           8.2874   11.9908   -0.9981 C.ar    1  UNL1       -0.0374
     33 C           5.2493    4.3938    2.5739 C.3     1  UNL1       -0.0185
     34 C           4.1307    3.6894    1.7836 C.3     1  UNL1        0.0195
     35 H           0.6075   -0.9356   -0.2050 H       1  UNL1        0.0262
     36 H           0.5729    0.7631   -0.7100 H       1  UNL1        0.0262
     37 H           0.5544    0.3619    1.0057 H       1  UNL1        0.0262
     38 H           2.8763   -0.1502   -0.9285 H       1  UNL1        0.0695
     39 H           2.8563   -0.6280    0.7934 H       1  UNL1        0.0695
     40 H           4.9122    4.4597   -0.6837 H       1  UNL1        0.0466
     41 H           5.9330    3.0692   -1.0347 H       1  UNL1        0.0466
     42 H           7.2729    4.9784   -0.1906 H       1  UNL1        0.0298
     43 H           7.3695    3.6333    0.9299 H       1  UNL1        0.0298
     44 H           7.0048    5.6181    2.2663 H       1  UNL1        0.0499
     45 H           4.5039    6.6492    1.4655 H       1  UNL1        0.1490
     46 H           4.9414    9.2382    0.7596 H       1  UNL1        0.0475
     47 H           4.3774    8.2420   -0.6215 H       1  UNL1        0.0475
     48 H           1.9362   11.4255   -4.1902 H       1  UNL1        0.0657
     49 H           1.2291   13.4726   -5.9303 H       1  UNL1        0.0292
     50 H           2.4911   14.6849   -6.0234 H       1  UNL1        0.0292
     51 H           1.0588   14.9824   -5.0285 H       1  UNL1        0.0292
     52 H           3.3986   15.2529   -3.2100 H       1  UNL1        0.1658
     53 H           6.0786   13.5626    1.0550 H       1  UNL1        0.0638
     54 H           7.9129   13.1807    2.6533 H       1  UNL1        0.0621
     55 H          10.2775   12.9625    3.0149 H       1  UNL1        0.0278
     56 H          11.2142   13.3517    1.5688 H       1  UNL1        0.0278
     57 H          11.0344   11.6541    2.0860 H       1  UNL1        0.0278
     58 H          10.3860   11.7612   -0.5702 H       1  UNL1        0.0621
     59 H           8.3918   11.5447   -1.9840 H       1  UNL1        0.0638
     60 H           4.8199    4.9910    3.3854 H       1  UNL1        0.0298
     61 H           5.8793    3.6248    3.0487 H       1  UNL1        0.0298
     62 H           3.4452    4.4344    1.3692 H       1  UNL1        0.0466
     63 H           3.5645    3.0233    2.4420 H       1  UNL1        0.0466
@<TRIPOS>BOND
     1     1     2    1
     2     2     3    1
     3     3     4    1
     4     4     5    2
     5     4     6   am
     6     6     7    1
     7     7     8    1
     8     8     9    1
     9     9    10    1
    10    10    11   am
    11    11    12    2
    12    11    13    1
    13    13    14    1
    14    14    15    1
    15    15    16   ar
    16    16    17   ar
    17    17    18   ar
    18    18    19   ar
    19    19    20    1
    20    19    21   ar
    21    21    22   ar
    22    17    22   ar
    23    22    23   ar
    24    23    24    2
    25    23    25   ar
    26    15    25   ar
    27    25    26    1
    28    26    27   ar
    29    27    28   ar
    30    28    29   ar
    31    29    30    1
    32    29    31   ar
    33    31    32   ar
    34    26    32   ar
    35     9    33    1
    36    33    34    1
    37     6    34    1
    38     1    35    1
    39     1    36    1
    40     1    37    1
    41     2    38    1
    42     2    39    1
    43     7    40    1
    44     7    41    1
    45     8    42    1
    46     8    43    1
    47     9    44    1
    48    10    45    1
    49    13    46    1
    50    13    47    1
    51    18    48    1
    52    20    49    1
    53    20    50    1
    54    20    51    1
    55    21    52    1
    56    27    53    1
    57    28    54    1
    58    30    55    1
    59    30    56    1
    60    30    57    1
    61    31    58    1
    62    32    59    1
    63    33    60    1
    64    33    61    1
    65    34    62    1
    66    34    63    1
