REMARK  9 active torsions:
REMARK  status: ('A' for Active; 'I' for Inactive)
REMARK    1  A    between atoms: C_2  and  C_31 
REMARK    2  A    between atoms: C_2  and  N_3 
REMARK       I    between atoms: N_3  and  C_4 
REMARK    3  A    between atoms: C_4  and  C_6 
REMARK    4  A    between atoms: C_11  and  N_12 
REMARK       I    between atoms: N_12  and  C_13 
REMARK    5  A    between atoms: C_13  and  C_15 
REMARK    6  A    between atoms: C_15  and  O_16 
REMARK    7  A    between atoms: O_16  and  C_17 
REMARK    8  A    between atoms: C_17  and  C_19 
REMARK    9  A    between atoms: C_19  and  C_20 
ROOT
ATOM      1  N   UNL d   1      -0.907  -1.735   0.201  0.00  0.00    -0.324 N 
ATOM      2  C   UNL d   1       0.422  -2.077   0.567  0.00  0.00     0.246 C 
ATOM      3  O   UNL d   1       0.872  -1.616   1.617  0.00  0.00    -0.271 OA
ATOM      4  H   UNL d   1      -1.516  -2.508  -0.043  0.00  0.00     0.169 HD
ENDROOT
BRANCH   1   5
ATOM      5  C   UNL d   1      -1.626  -0.557   0.718  0.00  0.00     0.050 A 
ATOM      6  C   UNL d   1      -3.041  -0.619   0.865  0.00  0.00     0.030 A 
ATOM      7  C   UNL d   1      -3.801   0.477   1.342  0.00  0.00     0.002 A 
ATOM      8  C   UNL d   1      -3.168   1.658   1.706  0.00  0.00     0.001 A 
ATOM      9  C   UNL d   1      -1.792   1.772   1.514  0.00  0.00     0.019 A 
ATOM     10  C   UNL d   1      -1.016   0.677   1.050  0.00  0.00     0.058 A 
BRANCH  10  11
ATOM     11  C   UNL d   1       0.455   0.898   1.059  0.00  0.00     0.254 C 
ATOM     12  N   UNL d   1       1.176   0.452  -0.031  0.00  0.00    -0.349 N 
ATOM     13  H   UNL d   1       0.680   0.023  -0.801  0.00  0.00     0.163 HD
ATOM     14  O   UNL d   1       0.967   1.431   2.039  0.00  0.00    -0.268 OA
BRANCH  12  15
ATOM     15  C   UNL d   1       2.641   0.345   0.027  0.00  0.00     0.114 C 
ATOM     16  C   UNL d   1       3.213  -1.022   0.204  0.00  0.00     0.037 C 
BRANCH  15  17
ATOM     17  C   UNL d   1       3.157   0.827  -1.298  0.00  0.00    -0.036 C 
ATOM     18  C   UNL d   1       3.811   0.052  -2.286  0.00  0.00     0.009 C 
ATOM     19  C   UNL d   1       4.301   0.659  -3.422  0.00  0.00     0.001 C 
ATOM     20  C   UNL d   1       3.995   1.995  -3.643  0.00  0.00     0.000 C 
ATOM     21  C   UNL d   1       3.290   2.744  -2.700  0.00  0.00     0.001 C 
ATOM     22  C   UNL d   1       2.890   2.165  -1.522  0.00  0.00     0.009 C 
ENDBRANCH  15  17
ENDBRANCH  12  15
ENDBRANCH  10  11
ENDBRANCH   1   5
BRANCH   2  23
ATOM     23  C   UNL d   1       1.328  -3.211  -0.331  0.00  0.00     0.281 C 
BRANCH  23  24
ATOM     24  O   UNL d   1       2.981  -3.437  -0.390  0.00  0.00    -0.312 OA
BRANCH  24  25
ATOM     25  C   UNL d   1       3.756  -4.234  -1.325  0.00  0.00     0.262 C 
ATOM     26  O   UNL d   1       3.107  -5.093  -1.939  0.00  0.00    -0.265 OA
BRANCH  25  27
ATOM     27  C   UNL d   1       5.484  -3.947  -1.655  0.00  0.00     0.153 C 
BRANCH  27  28
ATOM     28  C   UNL d   1       6.881  -5.037  -2.677  0.00  0.00     0.137 C 
ATOM     29  N   UNL d   1       7.457  -4.341  -1.678  0.00  0.00    -0.216 NA
ATOM     30  N   UNL d   1       8.234  -5.083  -0.919  0.00  0.00    -0.150 NA
ATOM     31  C   UNL d   1       9.451  -4.883  -1.443  0.00  0.00     0.251 C 
ATOM     32  H   UNL d   1       7.883  -6.055  -0.989  0.00  0.00     0.158 HD
ATOM     33  O   UNL d   1      10.127  -3.875  -1.655  0.00  0.00    -0.272 OA
ATOM     34  C   UNL d   1       9.619  -5.972  -2.300  0.00  0.00     0.037 C 
ATOM     35  C   UNL d   1      10.996  -6.573  -2.077  0.00  0.00     0.017 C 
ATOM     36  C   UNL d   1       8.410  -6.120  -3.101  0.00  0.00    -0.008 C 
ATOM     37  C   UNL d   1      11.571  -7.552  -2.827  0.00  0.00     0.001 C 
ATOM     38  C   UNL d   1      10.670  -7.902  -3.804  0.00  0.00     0.001 C 
ATOM     39  C   UNL d   1       9.159  -7.214  -3.981  0.00  0.00     0.011 C 
ENDBRANCH  27  28
ENDBRANCH  25  27
ENDBRANCH  24  25
ENDBRANCH  23  24
ENDBRANCH   2  23
TORSDOF 9
