@<TRIPOS>MOLECULE
*****
 61 64 0 0 0
SMALL
GASTEIGER

@<TRIPOS>ATOM
      1 CD1         0.7248    0.0362   -0.1740 C.3     1  LEU1       -0.0626
      2 CG          2.2302   -0.0904   -0.0337 C.3     1  LEU1       -0.0447
      3 CD2         2.3453   -0.8410    1.2799 C.3     1  LEU1       -0.0626
      4 CB          2.9175   -0.8391   -1.1868 C.3     1  LEU1       -0.0269
      5 CA          4.4762   -0.7859   -1.1858 C.3     1  LEU1        0.0629
      6 N           5.0251   -1.2134    0.1298 N.am    1  LEU1       -0.3058
      7 C           5.0952   -0.4447    1.2992 C.2     0  UNK0        0.2345
      8 O           4.9517    0.7781    1.3175 O.2     0  UNK0       -0.2737
      9 C           5.2908   -1.2661    2.6481 C.3     0  UNK0        0.1103
     10 C           6.8072   -1.5208    2.6640 C.3     0  UNK0        0.0017
     11 C           7.2956   -2.3597    1.5421 C.ar    0  UNK0       -0.0201
     12 C           7.8340   -1.8998    0.3550 C.ar    0  UNK0        0.0060
     13 N           7.8873   -2.9552   -0.5199 N.ar    0  UNK0       -0.3604
     14 C           7.4483   -4.0993    0.1139 C.ar    0  UNK0        0.0467
     15 C           7.2847   -5.3989   -0.3642 C.ar    0  UNK0       -0.0378
     16 C           6.7303   -6.3388    0.5159 C.ar    0  UNK0       -0.0598
     17 C           6.3295   -5.9918    1.8055 C.ar    0  UNK0       -0.0611
     18 C           6.4848   -4.6890    2.2595 C.ar    0  UNK0       -0.0523
     19 C           7.0743   -3.7440    1.4071 C.ar    0  UNK0        0.0029
     20 N           4.7348   -0.5475    3.8764 N.am    0  UNK0       -0.2445
     21 C           3.3879   -0.6190    4.2783 C.2     0  UNK0        0.2521
     22 O           2.7386   -1.6693    4.3796 O.2     0  UNK0       -0.2698
     23 C           2.7144    0.7113    4.5418 C.ar    0  UNK0        0.0579
     24 C           1.3268    0.8481    4.7048 C.ar    0  UNK0       -0.0478
     25 C           0.7558    2.1246    4.8066 C.ar    0  UNK0       -0.0609
     26 C           1.5652    3.2591    4.7482 C.ar    0  UNK0       -0.0600
     27 C           2.9423    3.1215    4.5727 C.ar    0  UNK0       -0.0400
     28 C           3.5237    1.8548    4.4552 C.ar    0  UNK0        0.0424
     29 N           4.8940    1.7269    4.3533 N.pl3   0  UNK0       -0.3031
     30 C           5.4443    0.4494    4.6099 C.3     0  UNK0        0.1965
     31 O           6.8019    0.5113    4.3306 O.3     0  UNK0       -0.3588
     32 C           5.0213   -1.6496   -2.4133 C.2     1  LEU1        0.0620
     33 O           4.1572   -2.1878   -3.1642 O.co2   1  LEU1       -0.5479
     34 OXT         6.2864   -1.7291   -2.5022 O.co2   1  LEU1       -0.5479
     35 HD11        0.3433    0.6268    0.6706 H       1  LEU1        0.0232
     36 HD12        0.2687   -0.9588   -0.1055 H       1  LEU1        0.0232
     37 HD13        0.4204    0.5054   -1.1056 H       1  LEU1        0.0232
     38 HG          2.6716    0.9162    0.0187 H       1  LEU1        0.0296
     39 HD21        1.6486   -1.6667    1.4139 H       1  LEU1        0.0232
     40 HD22        2.2673   -0.1269    2.0943 H       1  LEU1        0.0232
     41 HD23        3.2448   -1.4004    1.3602 H       1  LEU1        0.0232
     42 HB1         2.5658   -0.4195   -2.1388 H       1  LEU1        0.0289
     43 HB2         2.5827   -1.8845   -1.1610 H       1  LEU1        0.0289
     44 HA          4.8097    0.2452   -1.3426 H       1  LEU1        0.0560
     45 H           5.3228   -2.1843    0.1276 H       1  LEU1        0.1494
     46 H           4.7268   -2.2124    2.5799 H       0  UNK0        0.0601
     47 H           7.1255   -1.9338    3.6240 H       0  UNK0        0.0337
     48 H           7.3150   -0.5730    2.4880 H       0  UNK0        0.0337
     49 H           7.9776   -0.8899   -0.0169 H       0  UNK0        0.0810
     50 H           8.0174   -2.8434   -1.5221 H       0  UNK0        0.1653
     51 H           7.5590   -5.6624   -1.3794 H       0  UNK0        0.0638
     52 H           6.5919   -7.3605    0.1782 H       0  UNK0        0.0618
     53 H           5.8800   -6.7267    2.4649 H       0  UNK0        0.0618
     54 H           6.1396   -4.3950    3.2462 H       0  UNK0        0.0624
     55 H           0.6834   -0.0281    4.7115 H       0  UNK0        0.0626
     56 H          -0.3209    2.2403    4.9136 H       0  UNK0        0.0618
     57 H           1.1291    4.2518    4.8328 H       0  UNK0        0.0618
     58 H           3.5661    4.0105    4.5311 H       0  UNK0        0.0636
     59 H           5.4751    2.4728    4.0134 H       0  UNK0        0.1501
     60 H           5.3360    0.2087    5.6750 H       0  UNK0        0.1036
     61 H           6.8108    0.9323    3.4573 H       0  UNK0        0.2134
@<TRIPOS>UNITY_ATOM_ATTR
34 1
charge -1
@<TRIPOS>BOND
     1     1     2    1
     2     2     3    1
     3     2     4    1
     4     4     5    1
     5     5     6    1
     6     6     7   am
     7     7     8    2
     8     7     9    1
     9     9    10    1
    10    10    11    1
    11    11    12   ar
    12    12    13   ar
    13    13    14   ar
    14    14    15   ar
    15    15    16   ar
    16    16    17   ar
    17    17    18   ar
    18    18    19   ar
    19    11    19   ar
    20    14    19   ar
    21     9    20    1
    22    20    21   am
    23    21    22    2
    24    21    23    1
    25    23    24   ar
    26    24    25   ar
    27    25    26   ar
    28    26    27   ar
    29    27    28   ar
    30    23    28   ar
    31    28    29    1
    32    29    30    1
    33    20    30    1
    34    30    31    1
    35     5    32    1
    36    32    33   ar
    37    32    34   ar
    38     1    35    1
    39     1    36    1
    40     1    37    1
    41     2    38    1
    42     3    39    1
    43     3    40    1
    44     3    41    1
    45     4    42    1
    46     4    43    1
    47     5    44    1
    48     6    45    1
    49     9    46    1
    50    10    47    1
    51    10    48    1
    52    12    49    1
    53    13    50    1
    54    15    51    1
    55    16    52    1
    56    17    53    1
    57    18    54    1
    58    24    55    1
    59    25    56    1
    60    26    57    1
    61    27    58    1
    62    29    59    1
    63    30    60    1
    64    31    61    1
