REMARK  4 active torsions:
REMARK  status: ('A' for Active; 'I' for Inactive)
REMARK    1  A    between atoms: C_5  and  C_6 
REMARK       I    between atoms: C_6  and  N_7 
REMARK    2  A    between atoms: C_10  and  N_11 
REMARK       I    between atoms: N_11  and  C_12 
REMARK    3  A    between atoms: C_12  and  C_14 
REMARK    4  A    between atoms: C_17  and  C_18 
ROOT
ATOM      1  N   UNL d   1       1.057   2.384  -0.061  0.00  0.00    -0.322 N 
ATOM      2  C   UNL d   1       2.426   2.594  -0.181  0.00  0.00     0.256 C 
ATOM      3  O   UNL d   1       3.000   3.384   0.566  0.00  0.00    -0.267 OA
ATOM      4  H   UNL d   1       0.544   3.221   0.200  0.00  0.00     0.169 HD
ENDROOT
BRANCH   1   5
ATOM      5  C   UNL d   1       0.356   1.145   0.051  0.00  0.00     0.042 C 
ATOM      6  C   UNL d   1      -1.062   1.184   0.008  0.00  0.00     0.047 C 
ATOM      7  C   UNL d   1      -1.822  -0.009  -0.008  0.00  0.00     0.034 C 
ATOM      8  C   UNL d   1      -1.156  -1.232  -0.005  0.00  0.00     0.017 C 
ATOM      9  C   UNL d   1       0.224  -1.277   0.082  0.00  0.00     0.010 C 
ATOM     10  C   UNL d   1       0.988  -0.112   0.193  0.00  0.00    -0.035 C 
ATOM     11  C   UNL d   1       2.443  -0.357   0.472  0.00  0.00     0.050 C 
BRANCH   7  12
ATOM     12  C   UNL d   1      -3.321   0.040  -0.046  0.00  0.00     0.249 C 
ATOM     13  N   UNL d   1      -4.006  -1.156  -0.063  0.00  0.00    -0.366 N 
ATOM     14  H   UNL d   1      -3.596  -2.075  -0.046  0.00  0.00     0.159 HD
ATOM     15  H   UNL d   1      -5.017  -1.114  -0.081  0.00  0.00     0.159 HD
ATOM     16  O   UNL d   1      -3.927   1.093  -0.060  0.00  0.00    -0.268 OA
ENDBRANCH   7  12
ENDBRANCH   1   5
BRANCH   2  17
ATOM     17  C   UNL d   1       3.208   1.872  -1.253  0.00  0.00     0.032 C 
ATOM     18  C   UNL d   1       4.602   1.729  -1.097  0.00  0.00     0.018 C 
ATOM     19  C   UNL d   1       5.308   0.794  -1.874  0.00  0.00     0.017 C 
ATOM     20  C   UNL d   1       4.631  -0.036  -2.785  0.00  0.00     0.048 C 
ATOM     21  C   UNL d   1       3.243   0.094  -2.918  0.00  0.00     0.017 C 
ATOM     22  C   UNL d   1       2.551   1.094  -2.226  0.00  0.00     0.018 C 
BRANCH  20  23
ATOM     23  C   UNL d   1       5.380  -1.022  -3.647  0.00  0.00     0.417 C 
ATOM     24  F   UNL d   1       6.213  -0.386  -4.514  0.00  0.00    -0.166 F 
ATOM     25  F   UNL d   1       6.154  -1.888  -2.940  0.00  0.00    -0.166 F 
ATOM     26  F   UNL d   1       4.562  -1.796  -4.416  0.00  0.00    -0.166 F 
ENDBRANCH  20  23
ENDBRANCH   2  17
TORSDOF 4
