@<TRIPOS>MOLECULE
*****
 36 37 0 0 0
SMALL
GASTEIGER

@<TRIPOS>ATOM
      1 CB          3.1134    1.3943    0.1634 C.3     1  ALA1       -0.0445
      2 CA          2.6609   -0.0538   -0.0274 C.3     1  ALA1        0.0438
      3 C           1.1113   -0.0833    0.0252 C.3     1  ALA1        0.0623
      4 O           0.6673   -0.7880    1.1827 O.3     1  ALA1       -0.3932
      5 N           3.2662   -0.9265    0.9893 N.am    1  ALA1       -0.3028
      6 C           4.6276   -1.1114    1.1583 C.2     0  UNK0        0.2996
      7 O           5.5136   -0.5676    0.5051 O.2     0  UNK0       -0.2652
      8 C           5.0077   -2.0810    2.2999 C.2     0  UNK0        0.3032
      9 O           4.0919   -2.5920    2.9389 O.2     0  UNK0       -0.2648
     10 N           6.3783   -2.2246    2.5337 N.am    0  UNK0       -0.2772
     11 C           6.8630   -3.0398    3.5930 C.ar    0  UNK0        0.0415
     12 C           6.2859   -4.3080    3.7419 C.ar    0  UNK0       -0.0399
     13 C           6.5895   -5.1135    4.8311 C.ar    0  UNK0       -0.0594
     14 C           7.4879   -4.6646    5.7904 C.ar    0  UNK0       -0.0539
     15 C           8.1484   -3.4383    5.6354 C.ar    0  UNK0       -0.0161
     16 C           9.0751   -3.0340    6.6116 C.ar    0  UNK0       -0.0540
     17 C           9.7457   -1.8202    6.5000 C.ar    0  UNK0       -0.0612
     18 C           9.4932   -0.9963    5.4099 C.ar    0  UNK0       -0.0611
     19 C           8.5625   -1.3781    4.4332 C.ar    0  UNK0       -0.0523
     20 C           7.8648   -2.6070    4.5118 C.ar    0  UNK0        0.0033
     21 HB1         4.2011    1.4872    0.1456 H       1  ALA1        0.0248
     22 HB2         2.7641    1.7777    1.1288 H       1  ALA1        0.0248
     23 HB3         2.7133    2.0379   -0.6273 H       1  ALA1        0.0248
     24 HA          2.9971   -0.4027   -1.0116 H       1  ALA1        0.0518
     25 H1          0.6784    0.9245    0.0673 H       1  ALA1        0.0575
     26 H2          0.6867   -0.5646   -0.8634 H       1  ALA1        0.0575
     27 H           1.1398   -0.3843    1.9336 H       1  ALA1        0.2095
     28 H           2.6614   -1.5797    1.4915 H       1  ALA1        0.1495
     29 H           6.9903   -1.5477    2.0895 H       0  UNK0        0.1553
     30 H           5.5859   -4.6801    2.9978 H       0  UNK0        0.0636
     31 H           6.1052   -6.0794    4.9386 H       0  UNK0        0.0618
     32 H           7.6672   -5.2872    6.6649 H       0  UNK0        0.0624
     33 H           9.2814   -3.6658    7.4748 H       0  UNK0        0.0624
     34 H          10.4591   -1.5208    7.2643 H       0  UNK0        0.0618
     35 H          10.0165   -0.0473    5.3218 H       0  UNK0        0.0618
     36 H           8.3849   -0.6940    3.6090 H       0  UNK0        0.0624
@<TRIPOS>BOND
     1     3     4    1
     2     2     5    1
     3     5     6   am
     4     6     7    2
     5     6     8    1
     6     8     9    2
     7     8    10   am
     8    10    11    1
     9    11    12   ar
    10    12    13   ar
    11    13    14   ar
    12    14    15   ar
    13    15    16   ar
    14    16    17   ar
    15    17    18   ar
    16    18    19   ar
    17    19    20   ar
    18    11    20   ar
    19    15    20   ar
    20     2     3    1
    21     2     1    1
    22     1    21    1
    23     1    22    1
    24     1    23    1
    25     2    24    1
    26     3    25    1
    27     3    26    1
    28     4    27    1
    29     5    28    1
    30    10    29    1
    31    12    30    1
    32    13    31    1
    33    14    32    1
    34    16    33    1
    35    17    34    1
    36    18    35    1
    37    19    36    1
