@<TRIPOS>MOLECULE
*****
 31 32 0 0 0
SMALL
GASTEIGER

@<TRIPOS>ATOM
      1 N          -0.0415   -1.8772    0.0372 N.pl3   1  UNL1       -0.3557
      2 C          -0.0211   -0.4838   -0.0290 C.ar    1  UNL1        0.0618
      3 C           1.1914    0.2056   -0.0156 C.ar    1  UNL1        0.0647
      4 CL          2.7040   -0.6407   -0.0022 Cl      1  UNL1       -0.0815
      5 C           1.2327    1.5998   -0.0216 C.ar    1  UNL1       -0.0202
      6 C           0.0770    2.3856   -0.0100 C.ar    1  UNL1        0.0365
      7 N           0.1413    3.8185   -0.0140 N.am    1  UNL1       -0.2819
      8 C           1.3257    4.5500   -0.0383 C.2     1  UNL1        0.2411
      9 O           2.4630    4.0764   -0.0553 O.2     1  UNL1       -0.2705
     10 C           1.1987    6.0347   -0.0422 C.2     1  UNL1        0.0010
     11 C           2.3348    6.7649   -0.0734 C.2     1  UNL1       -0.0496
     12 C           2.3790    8.2331   -0.0693 C.ar    1  UNL1       -0.0220
     13 C           1.5845    8.9659    0.8105 C.ar    1  UNL1       -0.0364
     14 C           1.6533   10.3485    0.7750 C.ar    1  UNL1        0.0281
     15 N           2.4538   11.0401   -0.0612 N.ar    1  UNL1       -0.2632
     16 C           3.2393   10.3136   -0.8840 C.ar    1  UNL1        0.0281
     17 C           3.2514    8.9256   -0.9142 C.ar    1  UNL1       -0.0364
     18 C          -1.1529    1.7123    0.0078 C.ar    1  UNL1       -0.0202
     19 C          -1.1923    0.2965    0.0011 C.ar    1  UNL1        0.0647
     20 CL         -2.7403   -0.4886    0.0151 Cl      1  UNL1       -0.0815
     21 H           0.8348   -2.3787   -0.0749 H       1  UNL1        0.1424
     22 H          -0.9133   -2.3781   -0.0759 H       1  UNL1        0.1424
     23 H           2.2217    2.0350   -0.0334 H       1  UNL1        0.0651
     24 H          -0.7414    4.3176   -0.0030 H       1  UNL1        0.1551
     25 H           0.2199    6.4905   -0.0283 H       1  UNL1        0.0670
     26 H           3.3121    6.2778   -0.1050 H       1  UNL1        0.0625
     27 H           0.9273    8.4776    1.5200 H       1  UNL1        0.0639
     28 H           1.0430   10.9519    1.4402 H       1  UNL1        0.0830
     29 H           3.8746   10.8978   -1.5449 H       1  UNL1        0.0830
     30 H           3.9191    8.4125   -1.5991 H       1  UNL1        0.0639
     31 H          -2.0961    2.2538    0.0274 H       1  UNL1        0.0651
@<TRIPOS>BOND
     1     1     2    1
     2     2     3   ar
     3     3     4    1
     4     3     5   ar
     5     5     6   ar
     6     6     7    1
     7     7     8   am
     8     8     9    2
     9     8    10    1
    10    10    11    2
    11    11    12    1
    12    12    13   ar
    13    13    14   ar
    14    14    15   ar
    15    15    16   ar
    16    16    17   ar
    17    12    17   ar
    18     6    18   ar
    19    18    19   ar
    20     2    19   ar
    21    19    20    1
    22     1    21    1
    23     1    22    1
    24     5    23    1
    25     7    24    1
    26    10    25    1
    27    11    26    1
    28    13    27    1
    29    14    28    1
    30    16    29    1
    31    17    30    1
    32    18    31    1
