REMARK  6 active torsions:
REMARK  status: ('A' for Active; 'I' for Inactive)
REMARK    1  A    between atoms: O_2  and  C_3 
REMARK    2  A    between atoms: C_6  and  N_7 
REMARK    3  A    between atoms: C_12  and  N_13 
REMARK       I    between atoms: N_13  and  C_14 
REMARK    4  A    between atoms: C_14  and  C_16 
REMARK    5  A    between atoms: C_17  and  C_18 
REMARK    6  A    between atoms: C_21  and  C_22 
ROOT
ATOM      1  N   UNL d   1       5.168  -5.037  -0.563  0.00  0.00    -0.150 N 
ATOM      2  N   UNL d   1       5.653  -5.436  -1.757  0.00  0.00    -0.147 NA
ATOM      3  C   UNL d   1       6.254  -6.598  -1.465  0.00  0.00     0.109 A 
ATOM      4  C   UNL d   1       7.002  -7.431  -2.300  0.00  0.00     0.038 A 
ATOM      5  C   UNL d   1       7.434  -8.635  -1.706  0.00  0.00     0.032 A 
ATOM      6  C   UNL d   1       7.165  -9.055  -0.371  0.00  0.00     0.037 A 
ATOM      7  C   UNL d   1       6.426  -8.190   0.492  0.00  0.00     0.065 A 
ATOM      8  C   UNL d   1       5.996  -6.936  -0.066  0.00  0.00     0.111 A 
ATOM      9  N   UNL d   1       5.357  -5.883   0.491  0.00  0.00    -0.147 NA
ENDROOT
BRANCH   6  10
ATOM     10  N   UNL d   1       7.645 -10.340   0.104  0.00  0.00    -0.324 N 
ATOM     11  C   UNL d   1       8.389 -11.253  -0.651  0.00  0.00     0.245 C 
ATOM     12  O   UNL d   1       8.732 -11.095  -1.826  0.00  0.00    -0.268 OA
ATOM     13  H   UNL d   1       7.417 -10.579   1.063  0.00  0.00     0.169 HD
BRANCH  11  14
ATOM     14  C   UNL d   1       8.801 -12.537   0.009  0.00  0.00     0.077 C 
ATOM     15  C   UNL d   1       9.552 -13.404  -0.708  0.00  0.00     0.042 C 
BRANCH  15  16
ATOM     16  C   UNL d   1       9.980 -14.679  -0.219  0.00  0.00     0.076 A 
ATOM     17  C   UNL d   1       9.280 -15.608   0.542  0.00  0.00     0.040 A 
ATOM     18  C   UNL d   1      10.091 -16.752   0.709  0.00  0.00     0.041 A 
ATOM     19  C   UNL d   1      11.277 -16.486   0.071  0.00  0.00     0.086 A 
ATOM     20  O   UNL d   1      11.219 -15.246  -0.508  0.00  0.00    -0.310 OA
BRANCH  19  21
ATOM     21  C   UNL d   1      12.477 -17.291  -0.122  0.00  0.00    -0.002 A 
ATOM     22  C   UNL d   1      13.734 -16.853   0.316  0.00  0.00     0.017 A 
ATOM     23  C   UNL d   1      14.877 -17.622   0.065  0.00  0.00     0.043 A 
ATOM     24  C   UNL d   1      14.749 -18.875  -0.525  0.00  0.00     0.116 A 
ATOM     25  F   UNL d   1      15.844 -19.599  -0.790  0.00  0.00    -0.206 F 
ATOM     26  C   UNL d   1      13.498 -19.384  -0.843  0.00  0.00     0.043 A 
ATOM     27  C   UNL d   1      12.370 -18.576  -0.682  0.00  0.00     0.017 A 
ENDBRANCH  19  21
ENDBRANCH  15  16
ENDBRANCH  11  14
ENDBRANCH   6  10
BRANCH   1  28
ATOM     28  C   UNL d   1       4.466  -3.802  -0.446  0.00  0.00     0.081 A 
ATOM     29  C   UNL d   1       4.820  -2.861   0.523  0.00  0.00     0.036 A 
ATOM     30  C   UNL d   1       4.122  -1.638   0.600  0.00  0.00     0.041 A 
ATOM     31  C   UNL d   1       3.031  -1.361  -0.245  0.00  0.00     0.090 A 
ATOM     32  C   UNL d   1       2.715  -2.296  -1.243  0.00  0.00     0.069 A 
ATOM     33  C   UNL d   1       3.434  -3.502  -1.345  0.00  0.00     0.060 A 
ATOM     34 CL   UNL d   1       1.516  -2.046  -2.463  0.00  0.00    -0.081 Cl
BRANCH  31  35
ATOM     35  O   UNL d   1       2.456  -0.125  -0.069  0.00  0.00    -0.354 OA
ATOM     36  C   UNL d   1       1.029  -0.087   0.004  0.00  0.00     0.210 C 
ENDBRANCH  31  35
ENDBRANCH   1  28
TORSDOF 6
