@<TRIPOS>MOLECULE
*****
 42 43 0 0 0
SMALL
GASTEIGER

@<TRIPOS>ATOM
      1 C           1.0927   -0.0053   -0.1387 C.3     1  UNL1        0.0125
      2 C           2.5948   -0.1447   -0.1054 C.2     1  UNL1        0.2141
      3 O           3.1246   -1.0297    0.5596 O.2     1  UNL1       -0.2758
      4 N           3.2602    0.8330   -0.8229 N.am    1  UNL1       -0.2842
      5 C           4.6663    0.9953   -0.7794 C.ar    1  UNL1        0.0545
      6 C           5.4339   -0.1535   -1.0136 C.ar    1  UNL1       -0.0384
      7 C           6.8217   -0.1151   -1.0046 C.ar    1  UNL1       -0.0570
      8 C           7.4844    1.0794   -0.7391 C.ar    1  UNL1       -0.0486
      9 C           8.9887    1.0805   -0.6853 C.3     1  UNL1       -0.0396
     10 C           6.7168    2.2467   -0.5145 C.ar    1  UNL1       -0.0361
     11 C           5.2916    2.2466   -0.5469 C.ar    1  UNL1        0.0493
     12 N           4.6223    3.4454   -0.3023 N.pl3   1  UNL1       -0.3339
     13 C           3.1685    3.6417   -0.2545 C.3     1  UNL1        0.0863
     14 C           2.7652    5.0848    0.0651 C.2     1  UNL1        0.2375
     15 O           3.6478    5.9217    0.2618 O.2     1  UNL1       -0.2736
     16 N           1.3928    5.3511    0.0732 N.am    1  UNL1       -0.2389
     17 C           0.9146    6.6219    0.3277 C.2     1  UNL1        0.3061
     18 O           1.6305    7.5832    0.6111 O.2     1  UNL1       -0.2524
     19 N          -0.4512    6.7811    0.2317 N.am    1  UNL1       -0.2962
     20 C          -1.1084    8.0318    0.5581 C.3     1  UNL1        0.0247
     21 C          -0.8261    9.4359    0.0737 C.3     1  UNL1       -0.0328
     22 C          -1.9010    8.6374   -0.5816 C.3     1  UNL1       -0.0328
     23 H           0.6537   -0.8452    0.4097 H       1  UNL1        0.0323
     24 H           0.7231   -0.0323   -1.1662 H       1  UNL1        0.0323
     25 H           0.7765    0.9218    0.3495 H       1  UNL1        0.0323
     26 H           2.7256    1.5776   -1.2259 H       1  UNL1        0.1548
     27 H           4.9415   -1.0965   -1.2353 H       1  UNL1        0.0637
     28 H           7.3709   -1.0329   -1.1987 H       1  UNL1        0.0621
     29 H           9.3942    0.0848   -0.9113 H       1  UNL1        0.0278
     30 H           9.3410    1.3499    0.3151 H       1  UNL1        0.0278
     31 H           9.4064    1.7718   -1.4228 H       1  UNL1        0.0278
     32 H           7.2536    3.1703   -0.2943 H       1  UNL1        0.0639
     33 H           5.1737    4.2806   -0.0926 H       1  UNL1        0.1466
     34 H           2.7317    2.9881    0.5075 H       1  UNL1        0.0557
     35 H           2.7655    3.4408   -1.2507 H       1  UNL1        0.0557
     36 H           0.7315    4.6082   -0.1023 H       1  UNL1        0.1591
     37 H          -1.0646    5.9795    0.1647 H       1  UNL1        0.1505
     38 H          -1.4480    8.0488    1.5921 H       1  UNL1        0.0499
     39 H           0.0890    9.6540   -0.4613 H       1  UNL1        0.0284
     40 H          -1.1630   10.2777    0.6787 H       1  UNL1        0.0284
     41 H          -1.6807    8.3132   -1.5941 H       1  UNL1        0.0284
     42 H          -2.9414    8.8772   -0.4120 H       1  UNL1        0.0284
@<TRIPOS>BOND
     1     1     2    1
     2     2     3    2
     3     2     4   am
     4     4     5    1
     5     5     6   ar
     6     6     7   ar
     7     7     8   ar
     8     8     9    1
     9     8    10   ar
    10    10    11   ar
    11     5    11   ar
    12    11    12    1
    13    12    13    1
    14    13    14    1
    15    14    15    2
    16    14    16   am
    17    16    17   am
    18    17    18    2
    19    17    19   am
    20    19    20    1
    21    20    21    1
    22    21    22    1
    23    20    22    1
    24     1    23    1
    25     1    24    1
    26     1    25    1
    27     4    26    1
    28     6    27    1
    29     7    28    1
    30     9    29    1
    31     9    30    1
    32     9    31    1
    33    10    32    1
    34    12    33    1
    35    13    34    1
    36    13    35    1
    37    16    36    1
    38    19    37    1
    39    20    38    1
    40    21    39    1
    41    21    40    1
    42    22    41    1
    43    22    42    1
