@<TRIPOS>MOLECULE
*****
 50 51 0 0 0
SMALL
GASTEIGER

@<TRIPOS>ATOM
      1 C           0.9941   -0.0356    0.0188 C.3     1  UNL1        0.0820
      2 O           2.4291   -0.0211    0.0070 O.3     1  UNL1       -0.4645
      3 C           2.9871   -0.1024    1.2385 C.2     1  UNL1        0.3389
      4 O           2.3832   -0.1765    2.3036 O.2     1  UNL1       -0.2450
      5 C           4.4676   -0.0730    1.1621 C.ar    1  UNL1        0.0597
      6 C           5.1991   -0.8585    2.0664 C.ar    1  UNL1       -0.0477
      7 C           6.5782   -0.7026    2.1591 C.ar    1  UNL1       -0.0603
      8 C           7.2260    0.1936    1.3036 C.ar    1  UNL1       -0.0496
      9 C           6.5079    0.9880    0.3733 C.ar    1  UNL1        0.0378
     10 C           7.2979    1.9802   -0.4378 C.2     1  UNL1        0.2496
     11 O           8.5094    1.9676   -0.2297 O.2     1  UNL1       -0.2698
     12 N           6.6659    2.8612   -1.3496 N.am    1  UNL1       -0.2627
     13 C           7.3040    3.8339   -2.1536 C.2     1  UNL1        0.1533
     14 S           8.9632    4.1438   -2.1812 S.2     1  UNL1       -0.0170
     15 N           6.4496    4.5792   -2.9840 N.am    1  UNL1       -0.2455
     16 N           7.0188    5.5937   -3.8492 N.am    1  UNL1       -0.2351
     17 C           6.2158    6.3530   -4.6816 C.2     1  UNL1        0.2292
     18 O           4.9981    6.1892   -4.7260 O.2     1  UNL1       -0.2743
     19 C           6.9488    7.4014   -5.5335 C.3     1  UNL1        0.0285
     20 C           5.9645    8.2162   -6.3983 C.3     1  UNL1       -0.0103
     21 C           6.6755    9.2797   -7.2351 C.3     1  UNL1        0.0901
     22 O           5.7443    9.9807   -8.0741 O.3     1  UNL1       -0.4905
     23 C           6.3033   10.8542   -8.9816 C.ar    1  UNL1        0.1388
     24 C           5.6626   12.1056   -9.0971 C.ar    1  UNL1       -0.0171
     25 C           6.0958   13.0529  -10.0390 C.ar    1  UNL1       -0.0398
     26 C           7.2151   12.7839  -10.8176 C.ar    1  UNL1        0.0426
     27 CL          7.8585   13.9787  -11.8730 Cl      1  UNL1       -0.0835
     28 C           7.8394   11.5484  -10.7363 C.ar    1  UNL1       -0.0215
     29 C           7.3690   10.5719   -9.8548 C.ar    1  UNL1        0.0839
     30 CL          8.1536    9.0401  -10.0302 Cl      1  UNL1       -0.0797
     31 C           5.1199    0.8400    0.3092 C.ar    1  UNL1       -0.0356
     32 H           0.6392   -0.0214   -1.0161 H       1  UNL1        0.0661
     33 H           0.6066    0.8548    0.5253 H       1  UNL1        0.0661
     34 H           0.6127   -0.9444    0.4973 H       1  UNL1        0.0661
     35 H           4.6966   -1.5768    2.7131 H       1  UNL1        0.0626
     36 H           7.1475   -1.2502    2.9101 H       1  UNL1        0.0618
     37 H           8.3129    0.2757    1.3831 H       1  UNL1        0.0625
     38 H           5.6640    2.7999   -1.4339 H       1  UNL1        0.1569
     39 H           5.4372    4.4840   -3.0548 H       1  UNL1        0.1718
     40 H           8.0323    5.7001   -3.7943 H       1  UNL1        0.1728
     41 H           7.6785    6.8956   -6.1813 H       1  UNL1        0.0360
     42 H           7.5081    8.0831   -4.8808 H       1  UNL1        0.0360
     43 H           5.1987    8.6902   -5.7758 H       1  UNL1        0.0302
     44 H           5.4285    7.5367   -7.0750 H       1  UNL1        0.0302
     45 H           7.4025    8.7225   -7.8101 H       1  UNL1        0.0696
     46 H           7.2042    9.9995   -6.6022 H       1  UNL1        0.0696
     47 H           4.8237   12.3634   -8.4513 H       1  UNL1        0.0655
     48 H           5.5664   13.9960  -10.1605 H       1  UNL1        0.0633
     49 H           8.6870   11.3236  -11.3777 H       1  UNL1        0.0648
     50 H           4.5183    1.4420   -0.3575 H       1  UNL1        0.0633
@<TRIPOS>BOND
     1     1     2    1
     2     2     3    1
     3     3     4    2
     4     3     5    1
     5     5     6   ar
     6     6     7   ar
     7     7     8   ar
     8     8     9   ar
     9     9    10    1
    10    10    11    2
    11    10    12   am
    12    12    13    1
    13    13    14    2
    14    13    15    1
    15    15    16    1
    16    16    17   am
    17    17    18    2
    18    17    19    1
    19    19    20    1
    20    20    21    1
    21    21    22    1
    22    22    23    1
    23    23    24   ar
    24    24    25   ar
    25    25    26   ar
    26    26    27    1
    27    26    28   ar
    28    28    29   ar
    29    23    29   ar
    30    29    30    1
    31     9    31   ar
    32     5    31   ar
    33     1    32    1
    34     1    33    1
    35     1    34    1
    36     6    35    1
    37     7    36    1
    38     8    37    1
    39    12    38    1
    40    15    39    1
    41    16    40    1
    42    19    41    1
    43    19    42    1
    44    20    43    1
    45    20    44    1
    46    21    45    1
    47    21    46    1
    48    24    47    1
    49    25    48    1
    50    28    49    1
    51    31    50    1
