REMARK  12 active torsions:
REMARK  status: ('A' for Active; 'I' for Inactive)
REMARK    1  A    between atoms: C_2  and  N_3 
REMARK    2  A    between atoms: N_3  and  C_4 
REMARK    3  A    between atoms: N_3  and  C_6 
REMARK    4  A    between atoms: C_6  and  C_7 
REMARK    5  A    between atoms: C_7  and  N_8 
REMARK    6  A    between atoms: C_14  and  O_15 
REMARK    7  A    between atoms: C_14  and  C_16 
REMARK    8  A    between atoms: C_19  and  O_20 
REMARK    9  A    between atoms: O_20  and  C_21 
REMARK   10  A    between atoms: C_21  and  C_22 
REMARK   11  A    between atoms: C_31  and  C_32 
REMARK   12  A    between atoms: C_35  and  O_36 
ROOT
ATOM      1  N   UNL d   1       6.378  -1.839   2.429  0.00  0.00    -0.331 N 
ATOM      2  C   UNL d   1       7.098  -0.897   1.763  0.00  0.00     0.295 C 
ATOM      3  O   UNL d   1       6.907   0.261   1.543  0.00  0.00    -0.264 OA
ATOM      4  C   UNL d   1       7.968  -1.813   0.995  0.00  0.00     0.250 C 
ATOM      5  O   UNL d   1       7.728  -1.811  -0.204  0.00  0.00    -0.282 OA
ATOM      6  C   UNL d   1       8.494  -2.897   1.945  0.00  0.00     0.059 C 
ATOM      7  C   UNL d   1       9.700  -3.545   2.134  0.00  0.00     0.089 C 
ATOM      8  C   UNL d   1       7.236  -2.967   2.829  0.00  0.00     0.161 C 
ENDROOT
BRANCH   7   9
ATOM      9  O   UNL d   1       9.848  -4.521   3.123  0.00  0.00    -0.359 OA
ATOM     10  H   UNL d   1       9.079  -4.621   3.701  0.00  0.00     0.217 HD
ENDBRANCH   7   9
BRANCH   7  11
ATOM     11  C   UNL d   1      11.058  -3.361   1.428  0.00  0.00     0.004 A 
ATOM     12  C   UNL d   1      12.217  -4.140   1.626  0.00  0.00     0.017 A 
ATOM     13  C   UNL d   1      13.409  -3.923   0.849  0.00  0.00     0.038 A 
ATOM     14  C   UNL d   1      13.474  -2.942  -0.145  0.00  0.00     0.069 A 
ATOM     15  C   UNL d   1      12.381  -2.160  -0.284  0.00  0.00     0.044 A 
ATOM     16  C   UNL d   1      11.262  -2.349   0.494  0.00  0.00    -0.046 A 
ATOM     17  C   UNL d   1      10.223  -1.434   0.073  0.00  0.00     0.049 C 
BRANCH  14  18
ATOM     18  O   UNL d   1      14.567  -2.771  -0.941  0.00  0.00    -0.347 OA
BRANCH  18  19
ATOM     19  C   UNL d   1      14.565  -1.646  -1.865  0.00  0.00     0.214 C 
BRANCH  19  20
ATOM     20  C   UNL d   1      15.289  -0.428  -1.334  0.00  0.00    -0.034 A 
ATOM     21  C   UNL d   1      15.401   0.733  -2.120  0.00  0.00     0.009 A 
ATOM     22  C   UNL d   1      16.134   1.830  -1.660  0.00  0.00     0.001 A 
ATOM     23  C   UNL d   1      16.749   1.784  -0.410  0.00  0.00     0.000 A 
ATOM     24  C   UNL d   1      16.615   0.653   0.390  0.00  0.00     0.001 A 
ATOM     25  C   UNL d   1      15.887  -0.441  -0.068  0.00  0.00     0.009 A 
ENDBRANCH  19  20
ENDBRANCH  18  19
ENDBRANCH  14  18
ENDBRANCH   7  11
BRANCH   8  26
ATOM     26  C   UNL d   1       7.535  -2.715   4.287  0.00  0.00    -0.030 A 
ATOM     27  C   UNL d   1       8.133  -1.503   4.701  0.00  0.00     0.012 A 
ATOM     28  C   UNL d   1       8.476  -1.296   6.029  0.00  0.00     0.037 A 
ATOM     29  C   UNL d   1       8.130  -2.258   6.963  0.00  0.00     0.065 A 
ATOM     30  C   UNL d   1       7.517  -3.447   6.578  0.00  0.00     0.037 A 
ATOM     31  C   UNL d   1       7.214  -3.680   5.240  0.00  0.00     0.012 A 
BRANCH  29  32
ATOM     32  O   UNL d   1       8.359  -2.064   8.290  0.00  0.00    -0.361 OA
ATOM     33  H   UNL d   1       8.690  -1.159   8.426  0.00  0.00     0.217 HD
ENDBRANCH  29  32
ENDBRANCH   8  26
BRANCH   1  34
ATOM     34  C   UNL d   1       4.952  -1.905   2.265  0.00  0.00     0.155 C 
BRANCH  34  35
ATOM     35  C   UNL d   1       4.397  -0.988   1.137  0.00  0.00     0.254 C 
BRANCH  35  36
ATOM     36  N   UNL d   1       2.875  -1.019   1.052  0.00  0.00    -0.070 N 
ATOM     37  H   UNL d   1       2.535  -0.706   1.973  0.00  0.00     0.279 HD
BRANCH  36  38
ATOM     38  C   UNL d   1       2.447   0.027   0.024  0.00  0.00     0.230 C 
ATOM     39  C   UNL d   1       0.950   0.253   0.002  0.00  0.00     0.034 C 
ENDBRANCH  36  38
BRANCH  36  40
ATOM     40  C   UNL d   1       2.401  -2.428   0.772  0.00  0.00     0.230 C 
ATOM     41  C   UNL d   1       0.909  -2.607   0.889  0.00  0.00     0.034 C 
ENDBRANCH  36  40
ENDBRANCH  35  36
ENDBRANCH  34  35
ENDBRANCH   1  34
TORSDOF 12
