REMARK  7 active torsions:
REMARK  status: ('A' for Active; 'I' for Inactive)
REMARK    1  A    between atoms: C_2  and  O_3 
REMARK    2  A    between atoms: O_3  and  C_4 
REMARK    3  A    between atoms: C_9  and  C_10 
REMARK    4  A    between atoms: C_10  and  C_11 
REMARK    5  A    between atoms: C_11  and  C_12 
REMARK       I    between atoms: C_12  and  N_14 
REMARK    6  A    between atoms: N_14  and  N_15 
REMARK       I    between atoms: N_15  and  C_16 
REMARK       I    between atoms: C_16  and  N_18 
REMARK    7  A    between atoms: N_18  and  C_19 
ROOT
ATOM      1  C   UNL d   1       2.600  -0.817  -2.967  0.00  0.00     0.236 C 
ATOM      2  O   UNL d   1       3.209  -1.266  -3.949  0.00  0.00    -0.272 OA
ATOM      3  N   UNL d   1       1.241  -1.090  -2.744  0.00  0.00    -0.266 N 
ATOM      4  H   UNL d   1       0.672  -0.754  -1.963  0.00  0.00     0.190 HD
ENDROOT
BRANCH   1   5
ATOM      5  C   UNL d   1       3.306  -0.040  -1.888  0.00  0.00     0.109 C 
BRANCH   5   6
ATOM      6  C   UNL d   1       4.728   0.416  -1.804  0.00  0.00     0.051 C 
BRANCH   6   7
ATOM      7  C   UNL d   1       5.066   1.073  -0.453  0.00  0.00    -0.024 A 
ATOM      8  C   UNL d   1       6.437   1.450  -0.366  0.00  0.00     0.010 A 
ATOM      9  C   UNL d   1       6.959   2.128   0.732  0.00  0.00     0.001 A 
ATOM     10  C   UNL d   1       6.118   2.449   1.786  0.00  0.00     0.003 A 
ATOM     11  C   UNL d   1       4.774   2.037   1.762  0.00  0.00     0.037 A 
ATOM     12  C   UNL d   1       4.216   1.349   0.658  0.00  0.00     0.075 A 
BRANCH  12  13
ATOM     13  O   UNL d   1       2.829   1.272   0.704  0.00  0.00    -0.351 OA
BRANCH  13  14
ATOM     14  C   UNL d   1       2.145   0.012   0.727  0.00  0.00     0.171 C 
ATOM     15  C   UNL d   1       0.638   0.114   0.553  0.00  0.00     0.034 C 
ENDBRANCH  13  14
ENDBRANCH  12  13
ENDBRANCH   6   7
ENDBRANCH   5   6
ENDBRANCH   1   5
BRANCH   3  16
ATOM     16  N   UNL d   1       0.547  -1.889  -3.701  0.00  0.00    -0.249 N 
ATOM     17  C   UNL d   1      -0.803  -2.187  -3.565  0.00  0.00     0.335 C 
ATOM     18  O   UNL d   1      -1.466  -1.823  -2.587  0.00  0.00    -0.246 OA
ATOM     19  N   UNL d   1      -1.330  -2.928  -4.621  0.00  0.00    -0.337 N 
ATOM     20  H   UNL d   1      -0.728  -3.161  -5.399  0.00  0.00     0.164 HD
ATOM     21  H   UNL d   1       1.111  -2.174  -4.495  0.00  0.00     0.192 HD
BRANCH  19  22
ATOM     22  C   UNL d   1      -2.726  -3.304  -4.705  0.00  0.00     0.086 A 
ATOM     23  C   UNL d   1      -3.530  -2.976  -5.943  0.00  0.00     0.027 A 
ATOM     24  C   UNL d   1      -3.258  -4.407  -5.594  0.00  0.00     0.027 A 
ENDBRANCH  19  22
ENDBRANCH   3  16
TORSDOF 7
