@<TRIPOS>MOLECULE
*****
 59 60 0 0 0
SMALL
GASTEIGER

@<TRIPOS>ATOM
      1 C           1.1204   -0.3390    0.1329 C.3     1  UNL1       -0.0598
      2 C           2.5940   -0.0658   -0.0575 C.3     1  UNL1       -0.0112
      3 C           2.9963    1.1875   -0.8625 C.2     1  UNL1        0.0662
      4 N           2.2169    2.0891   -1.4105 N.2     1  UNL1       -0.1843
      5 N           0.8485    2.0233   -1.3674 N.am    1  UNL1       -0.2067
      6 C          -0.0003    2.9310   -1.9605 C.2     1  UNL1        0.2322
      7 O           0.3616    3.9185   -2.5986 O.2     1  UNL1       -0.2741
      8 C          -1.4891    2.5672   -1.7327 C.3     1  UNL1        0.0260
      9 C          -2.3480    3.6235   -2.4129 C.3     1  UNL1       -0.0364
     10 C          -3.8609    3.4851   -2.3243 C.3     1  UNL1        0.0260
     11 C          -4.5023    4.6700   -3.0885 C.2     1  UNL1        0.2322
     12 O          -3.8454    5.5417   -3.6557 O.2     1  UNL1       -0.2741
     13 N          -5.8778    4.6211   -3.0534 N.am    1  UNL1       -0.2067
     14 N          -6.7052    5.5353   -3.6501 N.2     1  UNL1       -0.1843
     15 C          -8.0134    5.4709   -3.5837 C.2     1  UNL1        0.0662
     16 C          -8.8872    4.4039   -2.8905 C.3     1  UNL1       -0.0112
     17 C          -8.1843    3.2703   -2.1810 C.3     1  UNL1       -0.0598
     18 C          -8.8058    6.5412   -4.3279 C.ar    1  UNL1       -0.0020
     19 C          -8.3810    6.9385   -5.6046 C.ar    1  UNL1       -0.0494
     20 C          -9.1170    7.8717   -6.3568 C.ar    1  UNL1       -0.0196
     21 C         -10.2772    8.4235   -5.8252 C.ar    1  UNL1        0.1169
     22 O         -11.0397    9.3208   -6.5145 O.3     1  UNL1       -0.5068
     23 C         -10.7007    8.0655   -4.5510 C.ar    1  UNL1       -0.0196
     24 C          -9.9733    7.1227   -3.8038 C.ar    1  UNL1       -0.0494
     25 C           4.5027    1.3928   -0.9921 C.ar    1  UNL1       -0.0020
     26 C           5.3810    0.3376   -1.3045 C.ar    1  UNL1       -0.0494
     27 C           6.7648    0.5633   -1.4479 C.ar    1  UNL1       -0.0196
     28 C           7.2740    1.8436   -1.2637 C.ar    1  UNL1        0.1169
     29 O           8.6004    2.1309   -1.4047 O.3     1  UNL1       -0.5068
     30 C           6.4238    2.8908   -0.9283 C.ar    1  UNL1       -0.0196
     31 C           5.0433    2.6703   -0.7988 C.ar    1  UNL1       -0.0494
     32 H           0.9002   -1.2352    0.7102 H       1  UNL1        0.0233
     33 H           0.6557   -0.4902   -0.8501 H       1  UNL1        0.0233
     34 H           0.6646    0.4955    0.6810 H       1  UNL1        0.0233
     35 H           3.0270   -0.9489   -0.5386 H       1  UNL1        0.0326
     36 H           3.0535    0.0196    0.9357 H       1  UNL1        0.0326
     37 H           0.3682    1.2816   -0.9121 H       1  UNL1        0.1772
     38 H          -1.7046    2.5280   -0.6564 H       1  UNL1        0.0359
     39 H          -1.7009    1.5718   -2.1465 H       1  UNL1        0.0359
     40 H          -2.0758    3.6430   -3.4746 H       1  UNL1        0.0274
     41 H          -2.0766    4.5978   -1.9901 H       1  UNL1        0.0274
     42 H          -4.1894    3.4921   -1.2761 H       1  UNL1        0.0359
     43 H          -4.1888    2.5339   -2.7650 H       1  UNL1        0.0359
     44 H          -6.2277    3.8422   -2.5443 H       1  UNL1        0.1772
     45 H          -9.5394    3.9660   -3.6577 H       1  UNL1        0.0326
     46 H          -9.5354    4.8969   -2.1585 H       1  UNL1        0.0326
     47 H          -7.5804    2.7086   -2.9054 H       1  UNL1        0.0233
     48 H          -8.8518    2.5450   -1.7190 H       1  UNL1        0.0233
     49 H          -7.5744    3.6824   -1.3668 H       1  UNL1        0.0233
     50 H          -7.4759    6.5094   -6.0288 H       1  UNL1        0.0625
     51 H          -8.7665    8.1488   -7.3467 H       1  UNL1        0.0654
     52 H         -10.6499    9.4745   -7.3912 H       1  UNL1        0.2921
     53 H         -11.5989    8.5245   -4.1425 H       1  UNL1        0.0654
     54 H         -10.3348    6.8794   -2.8095 H       1  UNL1        0.0625
     55 H           5.0101   -0.6689   -1.4733 H       1  UNL1        0.0625
     56 H           7.4199   -0.2636   -1.7106 H       1  UNL1        0.0654
     57 H           9.0844    1.3397   -1.6922 H       1  UNL1        0.2921
     58 H           6.8358    3.8858   -0.7786 H       1  UNL1        0.0654
     59 H           4.3975    3.5067   -0.5440 H       1  UNL1        0.0625
@<TRIPOS>BOND
     1     1     2    1
     2     2     3    1
     3     3     4    2
     4     4     5    1
     5     5     6   am
     6     6     7    2
     7     6     8    1
     8     8     9    1
     9     9    10    1
    10    10    11    1
    11    11    12    2
    12    11    13   am
    13    13    14    1
    14    14    15    2
    15    15    16    1
    16    16    17    1
    17    15    18    1
    18    18    19   ar
    19    19    20   ar
    20    20    21   ar
    21    21    22    1
    22    21    23   ar
    23    23    24   ar
    24    18    24   ar
    25     3    25    1
    26    25    26   ar
    27    26    27   ar
    28    27    28   ar
    29    28    29    1
    30    28    30   ar
    31    30    31   ar
    32    25    31   ar
    33     1    32    1
    34     1    33    1
    35     1    34    1
    36     2    35    1
    37     2    36    1
    38     5    37    1
    39     8    38    1
    40     8    39    1
    41     9    40    1
    42     9    41    1
    43    10    42    1
    44    10    43    1
    45    13    44    1
    46    16    45    1
    47    16    46    1
    48    17    47    1
    49    17    48    1
    50    17    49    1
    51    19    50    1
    52    20    51    1
    53    22    52    1
    54    23    53    1
    55    24    54    1
    56    26    55    1
    57    27    56    1
    58    29    57    1
    59    30    58    1
    60    31    59    1
