@<TRIPOS>MOLECULE
*****
 40 41 0 0 0
SMALL
GASTEIGER

@<TRIPOS>ATOM
      1 C          -2.6118    1.7739   -0.0400 C.3     1  UNL1       -0.0362
      2 C          -1.6876    0.5935    0.0129 C.ar    1  UNL1       -0.0074
      3 C          -0.3104    0.9011    0.0305 C.ar    1  UNL1       -0.0370
      4 C           0.6566   -0.0975    0.0143 C.ar    1  UNL1        0.0414
      5 CL          2.3212    0.3355    0.0056 Cl      1  UNL1       -0.0835
      6 C           0.2731   -1.4295   -0.0087 C.ar    1  UNL1       -0.0399
      7 C          -1.0906   -1.7542   -0.0043 C.ar    1  UNL1       -0.0183
      8 C          -2.0882   -0.7574    0.0100 C.ar    1  UNL1        0.1242
      9 O          -3.3660   -1.2706    0.0073 O.3     1  UNL1       -0.4825
     10 C          -4.4626   -0.3774    0.0603 C.3     1  UNL1        0.1664
     11 C          -5.8629   -0.9667    0.1416 C.2     1  UNL1        0.2653
     12 O          -6.1019   -2.1678    0.2194 O.2     1  UNL1       -0.2707
     13 N          -6.8454    0.0282    0.2067 N.am    1  UNL1       -0.2290
     14 N          -8.1868   -0.3693    0.6052 N.3     1  UNL1       -0.1076
     15 S          -9.5122    0.6108    0.2688 S.O2    1  UNL1        0.0800
     16 O          -9.6308    1.4691    1.4328 O.2     1  UNL1       -0.1515
     17 O          -9.3416    1.1990   -1.0431 O.2     1  UNL1       -0.1515
     18 C         -11.0256   -0.3482    0.2207 C.ar    1  UNL1        0.1834
     19 C         -12.2097    0.4226    0.3551 C.ar    1  UNL1       -0.0286
     20 C         -13.4623   -0.1808    0.5367 C.ar    1  UNL1       -0.0595
     21 C         -13.5735   -1.5622    0.5206 C.ar    1  UNL1       -0.0552
     22 C         -12.4331   -2.3352    0.3363 C.ar    1  UNL1        0.0176
     23 C         -11.1600   -1.7413    0.1683 C.ar    1  UNL1        0.2993
     24 N         -10.0957   -2.6871   -0.1562 N.pl3   1  UNL1        0.0816
     25 O         -10.2716   -3.8772    0.1075 O.2     1  UNL1        0.0415
     26 O          -9.0809   -2.2457   -0.7048 O.co2   1  UNL1       -0.5760
     27 H          -2.0789    2.7271   -0.0393 H       1  UNL1        0.0279
     28 H          -3.2587    1.7997    0.8386 H       1  UNL1        0.0279
     29 H          -3.1860    1.7520   -0.9697 H       1  UNL1        0.0279
     30 H           0.0078    1.9419    0.0446 H       1  UNL1        0.0636
     31 H           1.0246   -2.2145   -0.0316 H       1  UNL1        0.0633
     32 H          -1.3746   -2.8061   -0.0203 H       1  UNL1        0.0655
     33 H          -4.4761    0.2369   -0.8432 H       1  UNL1        0.0795
     34 H          -4.3969    0.2095    0.9822 H       1  UNL1        0.0795
     35 H          -6.6841    1.0095   -0.0109 H       1  UNL1        0.1707
     36 H          -8.2968   -1.3798    0.7241 H       1  UNL1        0.1716
     37 H         -12.1718    1.5137    0.3204 H       1  UNL1        0.0639
     38 H         -14.3520    0.4238    0.7076 H       1  UNL1        0.0618
     39 H         -14.5421   -2.0459    0.6289 H       1  UNL1        0.0620
     40 H         -12.5519   -3.4184    0.3206 H       1  UNL1        0.0686
@<TRIPOS>UNITY_ATOM_ATTR
24 1
charge 1
26 1
charge -1
@<TRIPOS>BOND
     1     1     2    1
     2     2     3   ar
     3     3     4   ar
     4     4     5    1
     5     4     6   ar
     6     6     7   ar
     7     7     8   ar
     8     2     8   ar
     9     8     9    1
    10     9    10    1
    11    10    11    1
    12    11    12    2
    13    11    13   am
    14    13    14    1
    15    14    15    1
    16    15    16    2
    17    15    17    2
    18    15    18    1
    19    18    19   ar
    20    19    20   ar
    21    20    21   ar
    22    21    22   ar
    23    22    23   ar
    24    18    23   ar
    25    23    24    1
    26    24    25    2
    27    24    26    1
    28     1    27    1
    29     1    28    1
    30     1    29    1
    31     3    30    1
    32     6    31    1
    33     7    32    1
    34    10    33    1
    35    10    34    1
    36    13    35    1
    37    14    36    1
    38    19    37    1
    39    20    38    1
    40    21    39    1
    41    22    40    1
