REMARK  3 active torsions:
REMARK  status: ('A' for Active; 'I' for Inactive)
REMARK    1  A    between atoms: C_5  and  N_6 
REMARK       I    between atoms: N_6  and  C_7 
REMARK    2  A    between atoms: C_7  and  C_9 
REMARK    3  A    between atoms: C_17  and  O_18 
ROOT
ATOM      1  N   UNL d   1      -2.294  -2.030  -0.080  0.00  0.00    -0.321 N 
ATOM      2  C   UNL d   1      -2.293  -3.426  -0.079  0.00  0.00     0.256 C 
ATOM      3  O   UNL d   1      -1.313  -4.168  -0.032  0.00  0.00    -0.267 OA
ATOM      4  H   UNL d   1      -3.193  -1.573  -0.080  0.00  0.00     0.169 HD
ENDROOT
BRANCH   1   5
ATOM      5  C   UNL d   1      -1.120  -1.208  -0.032  0.00  0.00     0.068 A 
ATOM      6  C   UNL d   1       0.161  -1.779  -0.002  0.00  0.00     0.033 A 
ATOM      7  C   UNL d   1       1.330  -1.011   0.021  0.00  0.00     0.009 A 
ATOM      8  C   UNL d   1       1.259   0.375   0.005  0.00  0.00    -0.059 A 
ATOM      9  C   UNL d   1       2.499   1.215  -0.000  0.00  0.00     0.048 C 
ATOM     10  C   UNL d   1      -0.004   0.974  -0.009  0.00  0.00     0.045 A 
ATOM     11  C   UNL d   1      -1.177   0.199  -0.021  0.00  0.00     0.092 A 
BRANCH  11  12
ATOM     12  O   UNL d   1      -2.328   0.940  -0.025  0.00  0.00    -0.358 OA
ATOM     13  H   UNL d   1      -3.098   0.363   0.040  0.00  0.00     0.217 HD
ENDBRANCH  11  12
ENDBRANCH   1   5
BRANCH   2  14
ATOM     14  C   UNL d   1      -3.600  -4.127  -0.103  0.00  0.00     0.033 A 
ATOM     15  C   UNL d   1      -3.749  -5.260   0.716  0.00  0.00     0.020 A 
ATOM     16  C   UNL d   1      -4.933  -5.997   0.696  0.00  0.00     0.044 A 
ATOM     17  C   UNL d   1      -5.954  -5.619  -0.167  0.00  0.00     0.122 A 
ATOM     18  F   UNL d   1      -7.086  -6.336  -0.174  0.00  0.00    -0.206 F 
ATOM     19  C   UNL d   1      -5.812  -4.520  -1.022  0.00  0.00    -0.022 A 
ATOM     20  C   UNL d   1      -6.908  -4.155  -1.976  0.00  0.00     0.051 C 
ATOM     21  C   UNL d   1      -4.621  -3.771  -0.990  0.00  0.00     0.027 A 
ENDBRANCH   2  14
TORSDOF 3
