@<TRIPOS>MOLECULE
*****
 37 38 0 0 0
SMALL
GASTEIGER

@<TRIPOS>ATOM
      1 C           1.0074    0.0337   -0.1062 C.3     1  UNL1       -0.0203
      2 C           2.5199    0.0937   -0.0222 C.2     1  UNL1        0.0634
      3 N           3.1943    0.7043    0.9144 N.2     1  UNL1       -0.1845
      4 N           2.5664    1.4105    1.9257 N.am    1  UNL1       -0.2039
      5 C           3.3375    2.0978    2.8716 C.2     1  UNL1        0.2698
      6 O           4.5720    2.1009    2.8666 O.2     1  UNL1       -0.2703
      7 C           2.5238    2.8543    3.9515 C.3     1  UNL1        0.1668
      8 O           3.4084    3.5324    4.8609 O.3     1  UNL1       -0.4827
      9 C           2.8098    4.2326    5.8724 C.ar    1  UNL1        0.1213
     10 C           1.8116    3.6985    6.6857 C.ar    1  UNL1       -0.0185
     11 C           1.2266    4.4819    7.6868 C.ar    1  UNL1       -0.0399
     12 C           1.6621    5.7896    7.8932 C.ar    1  UNL1        0.0412
     13 CL          0.8927    6.7670    9.0825 Cl      1  UNL1       -0.0835
     14 C           2.7126    6.3051    7.1382 C.ar    1  UNL1       -0.0399
     15 C           3.2964    5.5181    6.1373 C.ar    1  UNL1       -0.0185
     16 C           3.2748   -0.6182   -1.1297 C.ar    1  UNL1       -0.0023
     17 C           2.8492   -0.5279   -2.4674 C.ar    1  UNL1       -0.0494
     18 C           3.5925   -1.1129   -3.5075 C.ar    1  UNL1       -0.0196
     19 C           4.7571   -1.8089   -3.2093 C.ar    1  UNL1        0.1169
     20 O           5.5354   -2.3689   -4.1796 O.3     1  UNL1       -0.5068
     21 C           5.1713   -1.9457   -1.8887 C.ar    1  UNL1       -0.0196
     22 C           4.4377   -1.3481   -0.8494 C.ar    1  UNL1       -0.0494
     23 H           0.5077    0.5659    0.7008 H       1  UNL1        0.0293
     24 H           0.6872   -1.0116   -0.0576 H       1  UNL1        0.0293
     25 H           0.6566    0.4775   -1.0404 H       1  UNL1        0.0293
     26 H           1.5585    1.4692    1.9541 H       1  UNL1        0.1773
     27 H           1.9057    2.1195    4.4792 H       1  UNL1        0.0795
     28 H           1.8792    3.5941    3.4594 H       1  UNL1        0.0795
     29 H           1.4936    2.6677    6.5762 H       1  UNL1        0.0654
     30 H           0.4337    4.0651    8.3017 H       1  UNL1        0.0633
     31 H           3.0747    7.3145    7.3179 H       1  UNL1        0.0633
     32 H           4.1251    5.9187    5.5575 H       1  UNL1        0.0654
     33 H           1.9570    0.0296   -2.7341 H       1  UNL1        0.0625
     34 H           3.2553   -0.9991   -4.5342 H       1  UNL1        0.0654
     35 H           5.1776   -2.1513   -5.0561 H       1  UNL1        0.2921
     36 H           6.0794   -2.5035   -1.6714 H       1  UNL1        0.0654
     37 H           4.7896   -1.4576    0.1736 H       1  UNL1        0.0625
@<TRIPOS>BOND
     1     1     2    1
     2     2     3    2
     3     3     4    1
     4     4     5   am
     5     5     6    2
     6     5     7    1
     7     7     8    1
     8     8     9    1
     9     9    10   ar
    10    10    11   ar
    11    11    12   ar
    12    12    13    1
    13    12    14   ar
    14    14    15   ar
    15     9    15   ar
    16     2    16    1
    17    16    17   ar
    18    17    18   ar
    19    18    19   ar
    20    19    20    1
    21    19    21   ar
    22    21    22   ar
    23    16    22   ar
    24     1    23    1
    25     1    24    1
    26     1    25    1
    27     4    26    1
    28     7    27    1
    29     7    28    1
    30    10    29    1
    31    11    30    1
    32    14    31    1
    33    15    32    1
    34    17    33    1
    35    18    34    1
    36    20    35    1
    37    21    36    1
    38    22    37    1
