@<TRIPOS>MOLECULE
*****
 31 32 0 0 0
SMALL
GASTEIGER

@<TRIPOS>ATOM
      1 O           1.0305    0.0002   -0.0044 O.2     1  UNL1       -0.2685
      2 C           2.2547   -0.1361    0.0251 C.2     1  UNL1        0.2633
      3 N           2.9375   -1.1473    0.7122 N.am    1  UNL1       -0.2030
      4 N           2.2215   -2.1090    1.4024 N.2     1  UNL1       -0.1875
      5 C           2.8845   -2.9449    2.1414 C.2     1  UNL1        0.0529
      6 C           2.1937   -3.9597    2.9875 C.ar    1  UNL1       -0.0018
      7 C           1.0905   -4.6896    2.5202 C.ar    1  UNL1       -0.0494
      8 C           0.4106   -5.5785    3.3750 C.ar    1  UNL1       -0.0159
      9 C           0.8383   -5.7270    4.6920 C.ar    1  UNL1        0.1582
     10 O           0.1985   -6.5454    5.5828 O.3     1  UNL1       -0.5033
     11 C           1.9528   -5.0210    5.1415 C.ar    1  UNL1        0.1588
     12 O           2.3862   -5.1567    6.4317 O.3     1  UNL1       -0.5033
     13 C           2.6407   -4.1492    4.2997 C.ar    1  UNL1       -0.0079
     14 C           3.0918    0.8600   -0.7200 C.ar    1  UNL1        0.0384
     15 C           2.7157    2.2164   -0.7685 C.ar    1  UNL1       -0.0482
     16 C           3.4931    3.1497   -1.4748 C.ar    1  UNL1       -0.0427
     17 C           4.6323    2.7259   -2.1556 C.ar    1  UNL1        0.0410
     18 CL          5.5963    3.8603   -3.0206 Cl      1  UNL1       -0.0835
     19 C           4.9935    1.3791   -2.1440 C.ar    1  UNL1       -0.0427
     20 C           4.2223    0.4474   -1.4351 C.ar    1  UNL1       -0.0482
     21 H           3.9483   -1.1288    0.7950 H       1  UNL1        0.1776
     22 H           3.9873   -2.9200    2.2216 H       1  UNL1        0.0851
     23 H           0.7553   -4.5713    1.4918 H       1  UNL1        0.0625
     24 H          -0.4487   -6.1264    2.9979 H       1  UNL1        0.0655
     25 H          -0.5729   -6.9479    5.1457 H       1  UNL1        0.2923
     26 H           1.7636   -5.7822    6.8532 H       1  UNL1        0.2923
     27 H           3.4859   -3.5958    4.6943 H       1  UNL1        0.0662
     28 H           1.8164    2.5584   -0.2573 H       1  UNL1        0.0625
     29 H           3.2077    4.2003   -1.4925 H       1  UNL1        0.0632
     30 H           5.8712    1.0462   -2.6924 H       1  UNL1        0.0632
     31 H           4.4921   -0.6031   -1.4825 H       1  UNL1        0.0625
@<TRIPOS>BOND
     1     1     2    2
     2     2     3   am
     3     3     4    1
     4     4     5    2
     5     5     6    1
     6     6     7   ar
     7     7     8   ar
     8     8     9   ar
     9     9    10    1
    10     9    11   ar
    11    11    12    1
    12    11    13   ar
    13     6    13   ar
    14     2    14    1
    15    14    15   ar
    16    15    16   ar
    17    16    17   ar
    18    17    18    1
    19    17    19   ar
    20    19    20   ar
    21    14    20   ar
    22     3    21    1
    23     5    22    1
    24     7    23    1
    25     8    24    1
    26    10    25    1
    27    12    26    1
    28    13    27    1
    29    15    28    1
    30    16    29    1
    31    19    30    1
    32    20    31    1
