@<TRIPOS>MOLECULE
*****
 37 37 0 0 0
SMALL
GASTEIGER

@<TRIPOS>ATOM
      1 C           1.0511    0.1964   -0.0502 C.3     1  UNL1        0.0125
      2 C           2.5583    0.0710    0.0425 C.2     1  UNL1        0.2154
      3 O           2.9962   -0.8566    0.7284 O.2     1  UNL1       -0.2757
      4 N           3.3531    1.0057   -0.6485 N.am    1  UNL1       -0.2669
      5 C           4.7697    1.0435   -0.6766 C.2     1  UNL1        0.1530
      6 S           5.7815   -0.0438    0.1273 S.2     1  UNL1       -0.0170
      7 N           5.3422    2.0783   -1.4416 N.am    1  UNL1       -0.2455
      8 N           6.7981    2.1835   -1.5202 N.am    1  UNL1       -0.2351
      9 C           7.4243    3.1787   -2.2564 C.2     1  UNL1        0.2295
     10 O           6.7804    4.0273   -2.8825 O.2     1  UNL1       -0.2743
     11 C           8.9622    3.1568   -2.2413 C.3     1  UNL1        0.0336
     12 C           9.6071    4.2932   -3.0798 C.3     1  UNL1        0.0326
     13 C          11.1338    4.2299   -3.0375 C.2     1  UNL1        0.2177
     14 O          11.6986    3.3375   -2.3986 O.2     1  UNL1       -0.2755
     15 N          11.8109    5.2407   -3.7169 N.am    1  UNL1       -0.2855
     16 C          13.2297    5.2772   -3.8206 C.ar    1  UNL1        0.0334
     17 C          13.9266    6.4920   -3.7854 C.ar    1  UNL1       -0.0405
     18 C          15.3242    6.5112   -3.9367 C.ar    1  UNL1       -0.0600
     19 C          16.0324    5.3209   -4.1040 C.ar    1  UNL1       -0.0616
     20 C          15.3441    4.1139   -4.1501 C.ar    1  UNL1       -0.0600
     21 C          13.9550    4.0960   -4.0086 C.ar    1  UNL1       -0.0405
     22 H           0.6143   -0.6178    0.5519 H       1  UNL1        0.0323
     23 H           0.6887    0.0573   -1.0702 H       1  UNL1        0.0323
     24 H           0.6887    1.1310    0.3818 H       1  UNL1        0.0323
     25 H           2.8536    1.7129   -1.1715 H       1  UNL1        0.1565
     26 H           4.8386    2.7903   -1.9682 H       1  UNL1        0.1718
     27 H           7.3138    1.4739   -0.9945 H       1  UNL1        0.1728
     28 H           9.3081    2.1859   -2.6212 H       1  UNL1        0.0363
     29 H           9.3085    3.2363   -1.2019 H       1  UNL1        0.0363
     30 H           9.2835    5.2671   -2.6959 H       1  UNL1        0.0363
     31 H           9.2846    4.2113   -4.1242 H       1  UNL1        0.0363
     32 H          11.3039    6.0559   -4.0417 H       1  UNL1        0.1548
     33 H          13.4190    7.4291   -3.5727 H       1  UNL1        0.0636
     34 H          15.8691    7.4531   -3.9185 H       1  UNL1        0.0618
     35 H          17.1163    5.3293   -4.1935 H       1  UNL1        0.0618
     36 H          15.8785    3.1804   -4.3038 H       1  UNL1        0.0618
     37 H          13.4413    3.1416   -4.0788 H       1  UNL1        0.0636
@<TRIPOS>BOND
     1     1     2    1
     2     2     3    2
     3     2     4   am
     4     4     5    1
     5     5     6    2
     6     5     7    1
     7     7     8    1
     8     8     9   am
     9     9    10    2
    10     9    11    1
    11    11    12    1
    12    12    13    1
    13    13    14    2
    14    13    15   am
    15    15    16    1
    16    16    17   ar
    17    17    18   ar
    18    18    19   ar
    19    19    20   ar
    20    20    21   ar
    21    16    21   ar
    22     1    22    1
    23     1    23    1
    24     1    24    1
    25     4    25    1
    26     7    26    1
    27     8    27    1
    28    11    28    1
    29    11    29    1
    30    12    30    1
    31    12    31    1
    32    15    32    1
    33    17    33    1
    34    18    34    1
    35    19    35    1
    36    20    36    1
    37    21    37    1
