REMARK  13 active torsions:
REMARK  status: ('A' for Active; 'I' for Inactive)
REMARK    1  A    between atoms: C_2  and  O_3 
REMARK    2  A    between atoms: O_3  and  C_4 
REMARK    3  A    between atoms: C_4  and  C_6 
REMARK    4  A    between atoms: C_10  and  N_11 
REMARK    5  A    between atoms: C_15  and  C_16 
REMARK    6  A    between atoms: N_17  and  N_18 
REMARK       I    between atoms: N_18  and  C_19 
REMARK    7  A    between atoms: C_19  and  C_21 
REMARK    8  A    between atoms: C_21  and  C_22 
REMARK    9  A    between atoms: C_22  and  C_23 
REMARK   10  A    between atoms: C_23  and  O_24 
REMARK   11  A    between atoms: C_23  and  C_25 
REMARK   12  A    between atoms: C_28  and  O_29 
REMARK   13  A    between atoms: O_29  and  C_30 
ROOT
ATOM      1  C   UNL d   1       2.169   3.124  -8.788  0.00  0.00     0.152 C 
ATOM      2  N   UNL d   1       1.620   4.192  -9.297  0.00  0.00    -0.184 NA
ENDROOT
BRANCH   1   3
ATOM      3  C   UNL d   1       3.006   3.014  -7.591  0.00  0.00     0.008 A 
ATOM      4  C   UNL d   1       3.432   4.003  -6.670  0.00  0.00     0.040 A 
ATOM      5  C   UNL d   1       4.169   3.437  -5.671  0.00  0.00     0.014 A 
ATOM      6  N   UNL d   1       4.214   2.091  -5.917  0.00  0.00    -0.319 N 
ATOM      7  C   UNL d   1       4.821   4.193  -4.572  0.00  0.00     0.068 C 
ATOM      8  C   UNL d   1       3.552   1.817  -7.111  0.00  0.00     0.025 A 
ATOM      9  C   UNL d   1       3.435   0.414  -7.623  0.00  0.00     0.070 C 
BRANCH   6  10
ATOM     10  C   UNL d   1       4.760   1.139  -5.045  0.00  0.00     0.040 A 
ATOM     11  C   UNL d   1       5.864   0.395  -5.461  0.00  0.00     0.030 A 
ATOM     12  C   UNL d   1       6.437  -0.497  -4.565  0.00  0.00     0.003 A 
ATOM     13  C   UNL d   1       5.872  -0.669  -3.294  0.00  0.00     0.018 A 
ATOM     14  C   UNL d   1       4.766   0.096  -2.883  0.00  0.00     0.041 A 
ATOM     15  C   UNL d   1       4.205   1.013  -3.765  0.00  0.00     0.047 A 
BRANCH  14  16
ATOM     16  C   UNL d   1       4.315   0.032  -1.473  0.00  0.00     0.293 C 
ATOM     17  O   UNL d   1       5.110  -0.062  -0.545  0.00  0.00    -0.259 OA
BRANCH  16  18
ATOM     18  O   UNL d   1       2.962   0.090  -1.362  0.00  0.00    -0.318 OA
BRANCH  18  19
ATOM     19  C   UNL d   1       2.490   0.031  -0.002  0.00  0.00     0.174 C 
ATOM     20  C   UNL d   1       0.970   0.030   0.023  0.00  0.00     0.034 C 
ENDBRANCH  18  19
ENDBRANCH  16  18
ENDBRANCH  14  16
ENDBRANCH   6  10
ENDBRANCH   1   3
BRANCH   2  21
ATOM     21  N   UNL d   1       1.797   5.397  -8.711  0.00  0.00    -0.247 N 
ATOM     22  C   UNL d   1       1.264   6.565  -9.188  0.00  0.00     0.237 C 
ATOM     23  O   UNL d   1       0.564   6.658 -10.191  0.00  0.00    -0.272 OA
ATOM     24  H   UNL d   1       2.351   5.476  -7.893  0.00  0.00     0.192 HD
BRANCH  22  25
ATOM     25  C   UNL d   1       1.648   7.759  -8.310  0.00  0.00     0.107 C 
BRANCH  25  26
ATOM     26  C   UNL d   1       1.008   9.003  -8.901  0.00  0.00     0.046 C 
BRANCH  26  27
ATOM     27  C   UNL d   1       1.283  10.293  -8.129  0.00  0.00     0.151 C 
BRANCH  27  28
ATOM     28  O   UNL d   1       2.703  10.460  -8.068  0.00  0.00    -0.391 OA
ATOM     29  H   UNL d   1       3.003  10.599  -8.985  0.00  0.00     0.210 HD
ENDBRANCH  27  28
BRANCH  27  30
ATOM     30  C   UNL d   1       0.620  11.470  -8.826  0.00  0.00    -0.029 A 
ATOM     31  C   UNL d   1      -0.706  11.382  -9.284  0.00  0.00     0.012 A 
ATOM     32  C   UNL d   1      -1.265  12.395 -10.067  0.00  0.00     0.037 A 
ATOM     33  C   UNL d   1      -0.555  13.569 -10.306  0.00  0.00     0.068 A 
ATOM     34  C   UNL d   1       0.743  13.689  -9.810  0.00  0.00     0.037 A 
ATOM     35  C   UNL d   1       1.321  12.655  -9.072  0.00  0.00     0.012 A 
BRANCH  33  36
ATOM     36  O   UNL d   1      -1.227  14.536 -11.006  0.00  0.00    -0.352 OA
BRANCH  36  37
ATOM     37  C   UNL d   1      -0.559  15.793 -11.118  0.00  0.00     0.171 C 
ATOM     38  C   UNL d   1      -1.481  16.785 -11.800  0.00  0.00     0.034 C 
ENDBRANCH  36  37
ENDBRANCH  33  36
ENDBRANCH  27  30
ENDBRANCH  26  27
ENDBRANCH  25  26
ENDBRANCH  22  25
ENDBRANCH   2  21
TORSDOF 13
