@<TRIPOS>MOLECULE
*****
 64 66 0 0 0
SMALL
GASTEIGER

@<TRIPOS>ATOM
      1 C           1.0685    0.0411   -0.0602 C.3     1  UNL1       -0.0306
      2 C           2.5956    0.0640   -0.0525 C.3     1  UNL1        0.0900
      3 O           3.1171    0.8794    1.0273 O.3     1  UNL1       -0.4614
      4 C           4.4783    0.9994    1.0685 C.2     1  UNL1        0.3392
      5 O           5.2610    0.4668    0.2776 O.2     1  UNL1       -0.2450
      6 C           4.9893    1.7740    2.2502 C.ar    1  UNL1        0.0609
      7 C           6.1519    2.5070    2.2927 C.ar    1  UNL1       -0.0459
      8 C           6.6567    2.9456    3.5486 C.ar    1  UNL1       -0.0381
      9 C           6.0170    2.6910    4.8110 C.ar    1  UNL1        0.0516
     10 N           6.6059    3.2444    5.9500 N.pl3   1  UNL1       -0.3183
     11 C           6.9917    2.5127    7.1547 C.3     1  UNL1        0.0525
     12 C           6.0780    2.9123    8.3426 C.3     1  UNL1       -0.0158
     13 N           5.9814    4.4393    8.5493 N.4     1  UNL1        0.2373
     14 C           4.9025    4.7690    9.5796 C.3     1  UNL1       -0.0347
     15 C           4.9224    6.2338    9.9762 C.3     1  UNL1       -0.0245
     16 C           5.7665    5.1914    7.1985 C.3     1  UNL1       -0.0158
     17 C           6.7518    4.7080    6.1025 C.3     1  UNL1        0.0525
     18 C           4.8343    1.8910    4.7478 C.ar    1  UNL1        0.0547
     19 N           4.0992    1.3519    5.8897 N.am    1  UNL1       -0.2951
     20 C           2.9265    0.5154    5.8914 C.2     1  UNL1        0.1411
     21 S           1.8835    0.2012    4.6013 S.2     1  UNL1       -0.0182
     22 N           2.5951   -0.0274    7.1548 N.am    1  UNL1       -0.2635
     23 C           1.3043   -0.5235    7.4555 C.2     1  UNL1        0.2531
     24 O           0.4792   -0.9293    6.6389 O.2     1  UNL1       -0.2697
     25 C           0.7925   -0.6264    8.8296 C.ar    1  UNL1        0.0786
     26 C           0.1377   -1.8659    9.0585 C.ar    1  UNL1       -0.0461
     27 C          -0.6912   -2.0618   10.1556 C.ar    1  UNL1       -0.0608
     28 C          -0.8131   -1.0481   11.0904 C.ar    1  UNL1       -0.0583
     29 C          -0.1867    0.1842   10.8711 C.ar    1  UNL1       -0.0192
     30 C           0.5875    0.4365    9.7230 C.ar    1  UNL1        0.1322
     31 O           0.9565    1.7571    9.6504 O.3     1  UNL1       -0.4944
     32 C           1.7314    2.1742    8.5519 C.3     1  UNL1        0.0788
     33 C           4.3819    1.5371    3.4643 C.ar    1  UNL1       -0.0247
     34 H           0.6913   -0.5426   -0.9103 H       1  UNL1        0.0262
     35 H           0.6581    1.0527   -0.1360 H       1  UNL1        0.0262
     36 H           0.6682   -0.4048    0.8562 H       1  UNL1        0.0262
     37 H           2.9403    0.4801   -1.0045 H       1  UNL1        0.0695
     38 H           2.9600   -0.9660    0.0465 H       1  UNL1        0.0695
     39 H           6.6740    2.7166    1.3631 H       1  UNL1        0.0626
     40 H           7.6343    3.4309    3.5267 H       1  UNL1        0.0637
     41 H           8.0218    2.7986    7.4206 H       1  UNL1        0.0516
     42 H           7.0128    1.4333    6.9815 H       1  UNL1        0.0516
     43 H           6.4348    2.4627    9.2750 H       1  UNL1        0.0830
     44 H           5.0502    2.5923    8.1854 H       1  UNL1        0.0830
     45 H           6.8827    4.7464    8.9397 H       1  UNL1        0.2034
     46 H           5.0897    4.1436   10.4609 H       1  UNL1        0.0812
     47 H           3.9365    4.4914    9.1463 H       1  UNL1        0.0812
     48 H           5.8698    6.5050   10.4512 H       1  UNL1        0.0281
     49 H           4.1178    6.4403   10.6915 H       1  UNL1        0.0281
     50 H           4.7590    6.8927    9.1199 H       1  UNL1        0.0281
     51 H           5.9135    6.2570    7.3965 H       1  UNL1        0.0830
     52 H           4.7325    5.0000    6.8946 H       1  UNL1        0.0830
     53 H           7.7742    4.9478    6.4352 H       1  UNL1        0.0516
     54 H           6.5946    5.2599    5.1691 H       1  UNL1        0.0516
     55 H           4.5111    1.5935    6.7651 H       1  UNL1        0.1539
     56 H           3.2482    0.0328    7.9193 H       1  UNL1        0.1568
     57 H           0.2016   -2.6631    8.3129 H       1  UNL1        0.0626
     58 H          -1.2617   -2.9831   10.2546 H       1  UNL1        0.0618
     59 H          -1.4235   -1.2046   11.9763 H       1  UNL1        0.0619
     60 H          -0.3568    0.9835   11.5900 H       1  UNL1        0.0654
     61 H           1.9524    3.2413    8.5895 H       1  UNL1        0.0660
     62 H           1.2123    1.9968    7.6055 H       1  UNL1        0.0660
     63 H           2.7095    1.7049    8.6481 H       1  UNL1        0.0660
     64 H           3.5064    0.9675    3.3039 H       1  UNL1        0.0645
@<TRIPOS>UNITY_ATOM_ATTR
13 1
charge 1
@<TRIPOS>BOND
     1     1     2    1
     2     2     3    1
     3     3     4    1
     4     4     5    2
     5     4     6    1
     6     6     7   ar
     7     7     8   ar
     8     8     9   ar
     9     9    10    1
    10    10    11    1
    11    11    12    1
    12    12    13    1
    13    13    14    1
    14    14    15    1
    15    13    16    1
    16    16    17    1
    17    10    17    1
    18     9    18   ar
    19    18    19    1
    20    19    20    1
    21    20    21    2
    22    20    22    1
    23    22    23   am
    24    23    24    2
    25    23    25    1
    26    25    26   ar
    27    26    27   ar
    28    27    28   ar
    29    28    29   ar
    30    29    30   ar
    31    25    30   ar
    32    30    31    1
    33    31    32    1
    34    18    33   ar
    35     6    33   ar
    36     1    34    1
    37     1    35    1
    38     1    36    1
    39     2    37    1
    40     2    38    1
    41     7    39    1
    42     8    40    1
    43    11    41    1
    44    11    42    1
    45    12    43    1
    46    12    44    1
    47    13    45    1
    48    14    46    1
    49    14    47    1
    50    15    48    1
    51    15    49    1
    52    15    50    1
    53    16    51    1
    54    16    52    1
    55    17    53    1
    56    17    54    1
    57    19    55    1
    58    22    56    1
    59    26    57    1
    60    27    58    1
    61    28    59    1
    62    29    60    1
    63    32    61    1
    64    32    62    1
    65    32    63    1
    66    33    64    1
