@<TRIPOS>MOLECULE
*****
 55 58 0 0 0
SMALL
GASTEIGER

@<TRIPOS>ATOM
      1 C           1.0710    0.0071    0.0663 C.3     1  UNL1        0.0790
      2 O           2.4988    0.0296    0.0797 O.3     1  UNL1       -0.4914
      3 C           3.1141    1.2602    0.0765 C.ar    1  UNL1        0.1619
      4 C           4.5299    1.2049    0.0601 C.ar    1  UNL1       -0.0077
      5 C           5.3018    2.3804    0.0393 C.ar    1  UNL1       -0.0018
      6 C           6.8050    2.3430    0.0121 C.2     1  UNL1        0.0529
      7 N           7.5073    3.4376   -0.0163 N.2     1  UNL1       -0.1874
      8 N           8.8886    3.3577   -0.0608 N.am    1  UNL1       -0.2017
      9 C           9.6537    4.5307   -0.0204 C.2     1  UNL1        0.2810
     10 O           9.1615    5.6600    0.0883 O.2     1  UNL1       -0.2668
     11 C          11.0919    4.3633   -0.0780 C.ar    1  UNL1        0.1224
     12 C          11.9020    3.5530   -0.8516 C.ar    1  UNL1       -0.0041
     13 C          13.2468    3.8809   -0.5150 C.ar    1  UNL1        0.0932
     14 C          14.4579    3.3114   -1.1048 C.ar    1  UNL1        0.0023
     15 C          14.6582    3.3889   -2.4884 C.ar    1  UNL1       -0.0491
     16 C          15.7810    2.8046   -3.0856 C.ar    1  UNL1       -0.0193
     17 C          16.7222    2.1303   -2.3095 C.ar    1  UNL1        0.1210
     18 O          17.8520    1.5232   -2.7868 O.3     1  UNL1       -0.4873
     19 C          18.0961    1.6373   -4.1928 C.3     1  UNL1        0.1160
     20 C          19.4236    0.9865   -4.4857 C.ar    1  UNL1        0.0079
     21 C          19.4946   -0.4185   -4.5310 C.ar    1  UNL1       -0.0540
     22 C          20.7247   -1.0668   -4.6480 C.ar    1  UNL1       -0.0613
     23 C          21.8923   -0.3228   -4.7918 C.ar    1  UNL1       -0.0604
     24 C          21.8337    1.0699   -4.7880 C.ar    1  UNL1       -0.0430
     25 C          20.6092    1.7233   -4.6281 C.ar    1  UNL1        0.0474
     26 CL         20.6297    3.4517   -4.6250 Cl      1  UNL1       -0.0831
     27 C          16.5265    2.0457   -0.9275 C.ar    1  UNL1       -0.0193
     28 C          15.4058    2.6389   -0.3248 C.ar    1  UNL1       -0.0491
     29 N          13.2744    4.8288    0.4314 N.ar    1  UNL1       -0.1732
     30 N          11.9764    5.1470    0.6234 N.ar    1  UNL1       -0.2719
     31 C           4.6426    3.6137    0.0366 C.ar    1  UNL1       -0.0494
     32 C           3.2440    3.6799    0.0644 C.ar    1  UNL1       -0.0159
     33 C           2.4819    2.5119    0.0868 C.ar    1  UNL1        0.1585
     34 O           1.1188    2.6269    0.1202 O.3     1  UNL1       -0.5033
     35 H           0.7380   -1.0350    0.0548 H       1  UNL1        0.0660
     36 H           0.6729    0.4758   -0.8414 H       1  UNL1        0.0660
     37 H           0.6594    0.4581    0.9765 H       1  UNL1        0.0660
     38 H           5.0085    0.2281    0.0622 H       1  UNL1        0.0662
     39 H           7.2780    1.3444    0.0151 H       1  UNL1        0.0851
     40 H           9.3409    2.4507   -0.0399 H       1  UNL1        0.1776
     41 H          11.5842    2.8470   -1.6026 H       1  UNL1        0.0662
     42 H          13.9459    3.9149   -3.1192 H       1  UNL1        0.0625
     43 H          15.8851    2.8978   -4.1610 H       1  UNL1        0.0654
     44 H          18.0991    2.6876   -4.5004 H       1  UNL1        0.0748
     45 H          17.3085    1.1202   -4.7558 H       1  UNL1        0.0748
     46 H          18.5874   -1.0156   -4.4501 H       1  UNL1        0.0622
     47 H          20.7734   -2.1524   -4.6070 H       1  UNL1        0.0618
     48 H          22.8491   -0.8252   -4.9047 H       1  UNL1        0.0618
     49 H          22.7499    1.6457   -4.8902 H       1  UNL1        0.0632
     50 H          17.2502    1.5136   -0.3129 H       1  UNL1        0.0654
     51 H          15.2727    2.5585    0.7516 H       1  UNL1        0.0625
     52 H          11.7562    5.9006    1.2698 H       1  UNL1        0.1891
     53 H           5.2140    4.5392    0.0135 H       1  UNL1        0.0625
     54 H           2.7655    4.6550    0.0664 H       1  UNL1        0.0655
     55 H           0.8532    3.5597    0.1460 H       1  UNL1        0.2923
@<TRIPOS>BOND
     1     1     2    1
     2     2     3    1
     3     3     4   ar
     4     4     5   ar
     5     5     6    1
     6     6     7    2
     7     7     8    1
     8     8     9   am
     9     9    10    2
    10     9    11    1
    11    11    12   ar
    12    12    13   ar
    13    13    14    1
    14    14    15   ar
    15    15    16   ar
    16    16    17   ar
    17    17    18    1
    18    18    19    1
    19    19    20    1
    20    20    21   ar
    21    21    22   ar
    22    22    23   ar
    23    23    24   ar
    24    24    25   ar
    25    20    25   ar
    26    25    26    1
    27    17    27   ar
    28    27    28   ar
    29    14    28   ar
    30    13    29   ar
    31    29    30   ar
    32    11    30   ar
    33     5    31   ar
    34    31    32   ar
    35    32    33   ar
    36     3    33   ar
    37    33    34    1
    38     1    35    1
    39     1    36    1
    40     1    37    1
    41     4    38    1
    42     6    39    1
    43     8    40    1
    44    12    41    1
    45    15    42    1
    46    16    43    1
    47    19    44    1
    48    19    45    1
    49    21    46    1
    50    22    47    1
    51    23    48    1
    52    24    49    1
    53    27    50    1
    54    28    51    1
    55    30    52    1
    56    31    53    1
    57    32    54    1
    58    34    55    1
