REMARK  6 active torsions:
REMARK  status: ('A' for Active; 'I' for Inactive)
REMARK    1  A    between atoms: C_2  and  C_4 
REMARK       I    between atoms: C_4  and  N_6 
REMARK    2  A    between atoms: N_6  and  C_7 
REMARK    3  A    between atoms: C_11  and  C_12 
REMARK    4  A    between atoms: C_12  and  N_13 
REMARK       I    between atoms: N_13  and  C_14 
REMARK    5  A    between atoms: C_14  and  C_16 
REMARK    6  A    between atoms: C_20  and  N_21 
ROOT
ATOM      1  C   UNL d   1       4.495  -4.371  -5.014  0.00  0.00     0.161 C 
ENDROOT
BRANCH   1   2
ATOM      2  C   UNL d   1       5.003  -4.007  -3.635  0.00  0.00    -0.038 A 
ATOM      3  C   UNL d   1       6.049  -4.738  -3.053  0.00  0.00     0.009 A 
ATOM      4  C   UNL d   1       6.581  -4.353  -1.814  0.00  0.00     0.003 A 
ATOM      5  C   UNL d   1       6.045  -3.266  -1.114  0.00  0.00     0.029 A 
ATOM      6  C   UNL d   1       4.981  -2.557  -1.657  0.00  0.00     0.035 A 
ATOM      7  C   UNL d   1       4.482  -2.931  -2.903  0.00  0.00     0.038 A 
BRANCH   6   8
ATOM      8  N   UNL d   1       4.424  -1.446  -0.986  0.00  0.00    -0.327 N 
ATOM      9  C   UNL d   1       3.050  -1.245  -0.917  0.00  0.00     0.225 C 
ATOM     10  O   UNL d   1       2.225  -1.983  -1.457  0.00  0.00    -0.273 OA
ATOM     11  H   UNL d   1       5.038  -0.914  -0.385  0.00  0.00     0.169 HD
BRANCH   9  12
ATOM     12  C   UNL d   1       2.597  -0.028  -0.106  0.00  0.00     0.070 C 
ATOM     13  C   UNL d   1       1.063   0.028  -0.097  0.00  0.00     0.019 C 
ATOM     14  C   UNL d   1       3.097  -0.077   1.334  0.00  0.00     0.019 C 
ENDBRANCH   9  12
ENDBRANCH   6   8
ENDBRANCH   1   2
BRANCH   1  15
ATOM     15  N   UNL d   1       3.483  -3.466  -5.536  0.00  0.00    -0.353 N 
ATOM     16  C   UNL d   1       2.863  -3.657  -6.737  0.00  0.00     0.252 C 
ATOM     17  O   UNL d   1       3.120  -4.583  -7.504  0.00  0.00    -0.268 OA
ATOM     18  H   UNL d   1       3.093  -2.760  -4.936  0.00  0.00     0.163 HD
BRANCH  16  19
ATOM     19  C   UNL d   1       1.815  -2.659  -7.091  0.00  0.00     0.034 A 
ATOM     20  C   UNL d   1       0.666  -3.108  -7.751  0.00  0.00     0.017 A 
ATOM     21  C   UNL d   1      -0.259  -2.195  -8.265  0.00  0.00     0.003 A 
ATOM     22  C   UNL d   1      -0.076  -0.827  -8.065  0.00  0.00     0.036 A 
ATOM     23  C   UNL d   1       1.062  -0.377  -7.380  0.00  0.00     0.103 A 
ATOM     24  C   UNL d   1       2.012  -1.286  -6.885  0.00  0.00     0.053 A 
BRANCH  23  25
ATOM     25  N   UNL d   1       1.297   1.068  -7.244  0.00  0.00    -0.116 N 
ATOM     26  O   UNL d   1       0.450   1.839  -7.719  0.00  0.00    -0.532 OA
ATOM     27  O   UNL d   1       2.333   1.429  -6.670  0.00  0.00    -0.532 OA
ENDBRANCH  23  25
ENDBRANCH  16  19
ENDBRANCH   1  15
TORSDOF 6
