@<TRIPOS>MOLECULE
*****
 36 36 0 0 0
SMALL
GASTEIGER

@<TRIPOS>ATOM
      1 C           1.1404   -0.1171    0.0384 C.3     1  UNL1       -0.0468
      2 C           2.6759   -0.1030    0.0768 C.3     1  UNL1        0.0190
      3 C           3.1211    1.2202    0.7050 C.3     1  UNL1       -0.0468
      4 N           3.2466   -1.2574    0.7959 N.am    1  UNL1       -0.2959
      5 C           4.6087   -1.4786    0.8605 C.2     1  UNL1        0.3162
      6 O           5.4439   -0.7420    0.3305 O.2     1  UNL1       -0.2513
      7 N           4.9963   -2.5850    1.5895 N.am    1  UNL1       -0.2182
      8 N           6.3956   -2.8686    1.7151 N.am    1  UNL1       -0.2329
      9 C           6.8005   -3.9891    2.4142 C.2     1  UNL1        0.2337
     10 O           5.9720   -4.7537    2.9182 O.2     1  UNL1       -0.2739
     11 C           8.3285   -4.2385    2.5106 C.3     1  UNL1        0.0569
     12 C           8.6149   -5.4368    3.4175 C.ar    1  UNL1        0.0384
     13 C           8.9387   -6.6723    2.8134 C.ar    1  UNL1       -0.0517
     14 C           8.8721   -7.8689    3.5374 C.ar    1  UNL1       -0.0611
     15 C           8.5712   -7.8518    4.8953 C.ar    1  UNL1       -0.0553
     16 C           8.3304   -6.6370    5.5355 C.ar    1  UNL1        0.0159
     17 C           8.3578   -5.4286    4.8106 C.ar    1  UNL1        0.2767
     18 N           8.0885   -4.1847    5.5677 N.pl3   1  UNL1        0.0799
     19 O           7.8410   -4.2853    6.7750 O.2     1  UNL1        0.0415
     20 O           8.1639   -3.0968    4.9755 O.co2   1  UNL1       -0.5760
     21 H           0.7581    0.7520   -0.5156 H       1  UNL1        0.0247
     22 H           0.7138   -0.0706    1.0467 H       1  UNL1        0.0247
     23 H           0.7508   -1.0141   -0.4520 H       1  UNL1        0.0247
     24 H           3.0448   -0.1482   -0.9559 H       1  UNL1        0.0493
     25 H           2.7714    1.2931    1.7403 H       1  UNL1        0.0247
     26 H           2.7234    2.0751    0.1471 H       1  UNL1        0.0247
     27 H           4.2088    1.3199    0.7156 H       1  UNL1        0.0247
     28 H           2.6146   -1.9347    1.1985 H       1  UNL1        0.1505
     29 H           4.3586   -3.2455    2.0253 H       1  UNL1        0.1744
     30 H           7.0274   -2.1580    1.3495 H       1  UNL1        0.1728
     31 H           8.8665   -3.3537    2.8638 H       1  UNL1        0.0410
     32 H           8.7282   -4.4224    1.5056 H       1  UNL1        0.0410
     33 H           9.1943   -6.7280    1.7558 H       1  UNL1        0.0623
     34 H           9.0126   -8.8231    3.0317 H       1  UNL1        0.0618
     35 H           8.5184   -8.7825    5.4563 H       1  UNL1        0.0620
     36 H           8.0799   -6.6511    6.5947 H       1  UNL1        0.0685
@<TRIPOS>UNITY_ATOM_ATTR
18 1
charge 1
20 1
charge -1
@<TRIPOS>BOND
     1     1     2    1
     2     2     3    1
     3     2     4    1
     4     4     5   am
     5     5     6    2
     6     5     7   am
     7     7     8    1
     8     8     9   am
     9     9    10    2
    10     9    11    1
    11    11    12    1
    12    12    13   ar
    13    13    14   ar
    14    14    15   ar
    15    15    16   ar
    16    16    17   ar
    17    12    17   ar
    18    17    18    1
    19    18    19    2
    20    18    20    1
    21     1    21    1
    22     1    22    1
    23     1    23    1
    24     2    24    1
    25     3    25    1
    26     3    26    1
    27     3    27    1
    28     4    28    1
    29     7    29    1
    30     8    30    1
    31    11    31    1
    32    11    32    1
    33    13    33    1
    34    14    34    1
    35    15    35    1
    36    16    36    1
