REMARK  8 active torsions:
REMARK  status: ('A' for Active; 'I' for Inactive)
REMARK    1  A    between atoms: O_2  and  C_3 
REMARK    2  A    between atoms: C_10  and  S_11 
REMARK    3  A    between atoms: S_11  and  C_12 
REMARK    4  A    between atoms: C_12  and  C_13 
REMARK       I    between atoms: C_13  and  N_15 
REMARK    5  A    between atoms: N_15  and  C_17 
REMARK    6  A    between atoms: C_17  and  C_18 
REMARK       I    between atoms: C_18  and  N_20 
REMARK    7  A    between atoms: N_20  and  C_21 
REMARK    8  A    between atoms: C_26  and  C_27 
ROOT
ATOM      1  C   UNL d   1       7.123  -6.905   3.318  0.00  0.00     0.229 C 
ATOM      2  O   UNL d   1       6.459  -7.904   3.046  0.00  0.00    -0.273 OA
ATOM      3  N   UNL d   1       7.848  -6.816   4.500  0.00  0.00    -0.347 N 
ATOM      4  C   UNL d   1       8.639  -5.641   4.854  0.00  0.00     0.153 C 
ENDROOT
BRANCH   1   5
ATOM      5  C   UNL d   1       7.158  -5.683   2.365  0.00  0.00     0.180 C 
BRANCH   5   6
ATOM      6  S   UNL d   1       6.126  -5.993   0.859  0.00  0.00    -0.114 SA
BRANCH   6   7
ATOM      7  C   UNL d   1       6.282  -4.459  -0.097  0.00  0.00     0.247 A 
ATOM      8  N   UNL d   1       5.895  -3.208   0.605  0.00  0.00    -0.358 N 
ATOM      9  C   UNL d   1       4.907  -2.653   0.002  0.00  0.00     0.059 A 
ATOM     10  H   UNL d   1       6.290  -2.841   1.468  0.00  0.00     0.162 HD
ATOM     11  C   UNL d   1       4.575  -3.429  -1.224  0.00  0.00     0.057 A 
ATOM     12  C   UNL d   1       4.153  -1.471   0.368  0.00  0.00     0.068 A 
ATOM     13  C   UNL d   1       3.473  -2.976  -2.076  0.00  0.00     0.034 A 
ATOM     14  N   UNL d   1       5.376  -4.425  -1.305  0.00  0.00    -0.359 N 
ATOM     15  C   UNL d   1       2.818  -1.872  -1.662  0.00  0.00     0.039 A 
ATOM     16  C   UNL d   1       3.133  -1.136  -0.439  0.00  0.00     0.070 A 
ATOM     17  H   UNL d   1       5.351  -5.137  -2.041  0.00  0.00     0.162 HD
BRANCH  16  18
ATOM     18  O   UNL d   1       2.466   0.040  -0.183  0.00  0.00    -0.356 OA
ATOM     19  C   UNL d   1       1.038  -0.001  -0.126  0.00  0.00     0.210 C 
ENDBRANCH  16  18
ENDBRANCH   6   7
ENDBRANCH   5   6
ENDBRANCH   1   5
BRANCH   3  20
ATOM     20  C   UNL d   1       7.850  -7.985   5.458  0.00  0.00     0.228 C 
BRANCH  20  21
ATOM     21  C   UNL d   1       8.666  -7.801   6.773  0.00  0.00     0.240 C 
ATOM     22  O   UNL d   1       9.376  -6.806   6.944  0.00  0.00    -0.271 OA
ATOM     23  N   UNL d   1       8.634  -8.809   7.731  0.00  0.00    -0.325 N 
ATOM     24  H   UNL d   1       8.447  -9.753   7.398  0.00  0.00     0.169 HD
BRANCH  23  25
ATOM     25  C   UNL d   1       9.519  -8.668   8.853  0.00  0.00     0.049 C 
ATOM     26  C   UNL d   1       9.528  -7.450   9.558  0.00  0.00     0.030 C 
ATOM     27  C   UNL d   1      10.555  -7.133  10.445  0.00  0.00     0.002 C 
ATOM     28  C   UNL d   1      11.513  -8.087  10.752  0.00  0.00     0.001 C 
ATOM     29  C   UNL d   1      11.426  -9.357  10.181  0.00  0.00     0.018 C 
ATOM     30  C   UNL d   1      10.464  -9.649   9.185  0.00  0.00     0.074 C 
BRANCH  30  31
ATOM     31  C   UNL d   1      10.595 -10.944   8.435  0.00  0.00     0.419 C 
ATOM     32  F   UNL d   1      11.805 -11.071   7.821  0.00  0.00    -0.166 F 
ATOM     33  F   UNL d   1      10.454 -12.034   9.232  0.00  0.00    -0.166 F 
ATOM     34  F   UNL d   1       9.670 -11.093   7.438  0.00  0.00    -0.166 F 
ENDBRANCH  30  31
ENDBRANCH  23  25
ENDBRANCH  20  21
ENDBRANCH   3  20
TORSDOF 8
