@<TRIPOS>MOLECULE
*****
 68 69 0 0 0
SMALL
GASTEIGER

@<TRIPOS>ATOM
      1 C           3.2671   10.9056    7.8386 C.3     1  UNL1       -0.0653
      2 C           3.9483    9.8662    6.9676 C.3     1  UNL1       -0.0559
      3 C           5.3868    9.6451    7.4221 C.3     1  UNL1       -0.0532
      4 C           6.0763    8.6000    6.5540 C.3     1  UNL1       -0.0500
      5 C           7.5108    8.3718    7.0200 C.3     1  UNL1       -0.0186
      6 C           8.1992    7.3212    6.1592 C.3     1  UNL1        0.0896
      7 O           9.5132    7.0884    6.6810 O.3     1  UNL1       -0.4920
      8 C          10.2791    6.2211    5.9528 C.ar    1  UNL1        0.1205
      9 C          11.1820    5.4202    6.6435 C.ar    1  UNL1       -0.0192
     10 C          12.0946    4.6031    5.9429 C.ar    1  UNL1       -0.0462
     11 C          12.0282    4.4429    4.5425 C.ar    1  UNL1        0.0373
     12 C          13.0322    3.5135    3.8641 C.2     1  UNL1        0.2495
     13 O          13.7900    2.9304    4.6377 O.2     1  UNL1       -0.2698
     14 N          13.0850    3.3422    2.4382 N.am    1  UNL1       -0.2636
     15 C          13.9168    2.4758    1.6574 C.2     1  UNL1        0.1401
     16 S          15.0427    1.4251    2.3445 S.2     1  UNL1       -0.0183
     17 N          13.6251    2.4440    0.2478 N.am    1  UNL1       -0.2988
     18 C          13.7395    1.1488   -0.4545 C.3     1  UNL1        0.0301
     19 C          12.5499    1.0385   -1.3979 C.3     1  UNL1        0.0274
     20 N          12.5743    2.0847   -2.3832 N.am    1  UNL1       -0.3123
     21 C          13.0161    3.3407   -2.1111 C.2     1  UNL1        0.2341
     22 O          12.8009    4.1946   -2.9667 O.2     1  UNL1       -0.2738
     23 C          13.8032    3.5782   -0.7812 C.3     1  UNL1        0.1113
     24 C          13.3156    4.8717   -0.2243 C.3     1  UNL1        0.0720
     25 C          13.4382    6.1501   -1.0047 C.2     1  UNL1        0.3096
     26 O          14.1047    6.2488   -2.0370 O.2     1  UNL1       -0.2508
     27 O          12.8283    7.2492   -0.4990 O.3     1  UNL1       -0.4616
     28 C          12.3347    7.5308    0.8394 C.3     1  UNL1        0.1000
     29 C          12.6838    6.5199    1.8774 C.3     1  UNL1       -0.0277
     30 C          10.8127    7.7076    0.8007 C.3     1  UNL1       -0.0188
     31 C          10.4677    8.9629    0.0299 C.3     1  UNL1       -0.0619
     32 C          11.0184    5.1576    3.9027 C.ar    1  UNL1       -0.0462
     33 C          10.2421    6.1215    4.5718 C.ar    1  UNL1       -0.0192
     34 H           2.2359   11.0607    7.5097 H       1  UNL1        0.0230
     35 H           3.7943   11.8633    7.7829 H       1  UNL1        0.0230
     36 H           3.2502   10.5835    8.8847 H       1  UNL1        0.0230
     37 H           3.9325   10.1972    5.9226 H       1  UNL1        0.0263
     38 H           3.3907    8.9237    7.0191 H       1  UNL1        0.0263
     39 H           5.3977    9.3188    8.4693 H       1  UNL1        0.0265
     40 H           5.9406   10.5907    7.3719 H       1  UNL1        0.0265
     41 H           6.0697    8.9281    5.5069 H       1  UNL1        0.0266
     42 H           5.5186    7.6566    6.5997 H       1  UNL1        0.0266
     43 H           7.5282    8.0588    8.0701 H       1  UNL1        0.0298
     44 H           8.0766    9.3111    6.9710 H       1  UNL1        0.0298
     45 H           8.2243    7.7030    5.1330 H       1  UNL1        0.0696
     46 H           7.6316    6.3832    6.1849 H       1  UNL1        0.0696
     47 H          11.1769    5.4162    7.7318 H       1  UNL1        0.0654
     48 H          12.8502    4.0705    6.5212 H       1  UNL1        0.0626
     49 H          12.3434    3.7730    1.9224 H       1  UNL1        0.1568
     50 H          13.7307    0.2992    0.2290 H       1  UNL1        0.0480
     51 H          14.6874    1.1423   -1.0130 H       1  UNL1        0.0480
     52 H          11.6175    1.1483   -0.8315 H       1  UNL1        0.0477
     53 H          12.5421    0.0907   -1.9354 H       1  UNL1        0.0477
     54 H          12.0233    2.0279   -3.2322 H       1  UNL1        0.1488
     55 H          14.8747    3.6340   -1.0236 H       1  UNL1        0.0602
     56 H          13.9646    4.9834    0.6359 H       1  UNL1        0.0401
     57 H          12.2577    4.6972   -0.0064 H       1  UNL1        0.0401
     58 H          12.8133    8.4595    1.1609 H       1  UNL1        0.0731
     59 H          12.0891    5.6479    1.6328 H       1  UNL1        0.0265
     60 H          12.4210    6.8585    2.8719 H       1  UNL1        0.0265
     61 H          13.7410    6.2687    1.9129 H       1  UNL1        0.0265
     62 H          10.4073    7.7893    1.8175 H       1  UNL1        0.0298
     63 H          10.3271    6.8436    0.3277 H       1  UNL1        0.0298
     64 H          10.9470    9.8281    0.4992 H       1  UNL1        0.0231
     65 H           9.3879    9.1252    0.0221 H       1  UNL1        0.0231
     66 H          10.8206    8.8882   -1.0021 H       1  UNL1        0.0231
     67 H          10.8167    5.0494    2.8511 H       1  UNL1        0.0626
     68 H           9.6229    6.7852    3.9765 H       1  UNL1        0.0654
@<TRIPOS>BOND
     1     1     2    1
     2     2     3    1
     3     3     4    1
     4     4     5    1
     5     5     6    1
     6     6     7    1
     7     7     8    1
     8     8     9   ar
     9     9    10   ar
    10    10    11   ar
    11    11    12    1
    12    12    13    2
    13    12    14   am
    14    14    15    1
    15    15    16    2
    16    15    17    1
    17    17    18    1
    18    18    19    1
    19    19    20    1
    20    20    21   am
    21    21    22    2
    22    21    23    1
    23    17    23    1
    24    23    24    1
    25    24    25    1
    26    25    26    2
    27    25    27    1
    28    28    30    1
    29    30    31    1
    30    11    32   ar
    31    32    33   ar
    32     8    33   ar
    33    28    29    1
    34    28    27    1
    35     1    34    1
    36     1    35    1
    37     1    36    1
    38     2    37    1
    39     2    38    1
    40     3    39    1
    41     3    40    1
    42     4    41    1
    43     4    42    1
    44     5    43    1
    45     5    44    1
    46     6    45    1
    47     6    46    1
    48     9    47    1
    49    10    48    1
    50    14    49    1
    51    18    50    1
    52    18    51    1
    53    19    52    1
    54    19    53    1
    55    20    54    1
    56    23    55    1
    57    24    56    1
    58    24    57    1
    59    28    58    1
    60    29    59    1
    61    29    60    1
    62    29    61    1
    63    30    62    1
    64    30    63    1
    65    31    64    1
    66    31    65    1
    67    31    66    1
    68    32    67    1
    69    33    68    1
