@<TRIPOS>MOLECULE
*****
 60 64 0 0 0
SMALL
GASTEIGER

@<TRIPOS>ATOM
      1 C           0.9486    0.0655   -0.0204 C.3     1  UNL1       -0.0471
      2 C           2.4814   -0.0134   -0.0344 C.3     1  UNL1        0.0205
      3 N           2.9898   -1.1559    0.7582 N.ar    1  UNL1       -0.3459
      4 C           3.6154   -1.0076    1.9934 C.ar    1  UNL1        0.0209
      5 C           3.9489   -1.9812    2.8598 C.ar    1  UNL1        0.0999
      6 C           4.6484   -1.7231    4.1896 C.2     1  UNL1        0.2496
      7 O           4.9113   -2.6318    4.9700 O.2     1  UNL1       -0.2700
      8 N           5.0050   -0.4242    4.5330 N.am    1  UNL1       -0.3026
      9 C           5.7039   -0.1407    5.7995 C.3     1  UNL1        0.0886
     10 C           5.9393    1.3735    6.0543 C.2     1  UNL1        0.2328
     11 O           5.4633    2.2174    5.2915 O.2     1  UNL1       -0.2739
     12 N           6.5458    1.7335    7.2597 N.am    1  UNL1       -0.2972
     13 C           6.1186    2.9302    7.9994 C.3     1  UNL1        0.0307
     14 C           5.8339    2.5514    9.4868 C.3     1  UNL1        0.0331
     15 N           6.9963    1.8647   10.1012 N.pl3   1  UNL1       -0.2750
     16 C           7.6761    2.3583   11.1901 C.ar    1  UNL1        0.2719
     17 C           9.0462    2.6605   11.1797 C.ar    1  UNL1        0.0264
     18 C           9.7195    2.9786   12.3638 C.ar    1  UNL1       -0.0486
     19 C           9.0096    3.0784   13.5499 C.ar    1  UNL1        0.0022
     20 C           7.6388    2.8763   13.5138 C.ar    1  UNL1        0.1710
     21 N           7.0366    2.4950   12.3704 N.ar    1  UNL1       -0.1981
     22 C           7.5315    0.7306    9.2959 C.3     1  UNL1        0.0331
     23 C           7.7500    1.1124    7.8158 C.3     1  UNL1        0.0307
     24 C           3.5601   -3.3891    2.4293 C.ar    1  UNL1        0.2016
     25 O           3.7864   -4.3715    3.1140 O.2     1  UNL1       -0.2864
     26 C           2.8457   -3.5783    1.1179 C.ar    1  UNL1        0.0496
     27 C           2.3452   -4.8513    0.7220 C.ar    1  UNL1       -0.0033
     28 C           1.5369   -4.9217   -0.4097 C.ar    1  UNL1        0.1670
     29 C           1.3710   -3.8246   -1.2023 C.ar    1  UNL1        0.1682
     30 C           1.9932   -2.6379   -0.9311 C.ar    1  UNL1        0.0081
     31 C           2.6314   -2.4477    0.3050 C.ar    1  UNL1        0.0565
     32 O           0.5186   -3.9987   -2.2426 O.3     1  UNL1       -0.4525
     33 C           0.1564   -5.3732   -2.0506 C.3     1  UNL1        0.2332
     34 O           0.8196   -5.9743   -0.9014 O.3     1  UNL1       -0.4526
     35 H           0.6057    0.8910   -0.6494 H       1  UNL1        0.0247
     36 H           0.5739    0.1985    0.9970 H       1  UNL1        0.0247
     37 H           0.4502   -0.8285   -0.4070 H       1  UNL1        0.0247
     38 H           2.8762    0.9308    0.3560 H       1  UNL1        0.0489
     39 H           2.8614   -0.0769   -1.0628 H       1  UNL1        0.0489
     40 H           3.8272    0.0358    2.2017 H       1  UNL1        0.0818
     41 H           4.7852    0.3768    3.9578 H       1  UNL1        0.1495
     42 H           6.6428   -0.6981    5.8046 H       1  UNL1        0.0558
     43 H           5.0665   -0.5097    6.6135 H       1  UNL1        0.0558
     44 H           5.2244    3.3646    7.5419 H       1  UNL1        0.0480
     45 H           6.9280    3.6691    7.9522 H       1  UNL1        0.0480
     46 H           4.9955    1.8422    9.5034 H       1  UNL1        0.0481
     47 H           5.5323    3.4331   10.0611 H       1  UNL1        0.0481
     48 H           9.5987    2.6631   10.2443 H       1  UNL1        0.0698
     49 H          10.7957    3.1526   12.3581 H       1  UNL1        0.0622
     50 H           9.5191    3.3206   14.4824 H       1  UNL1        0.0677
     51 H           7.0134    3.0005   14.3938 H       1  UNL1        0.1376
     52 H           6.0547    2.2361   12.3948 H       1  UNL1        0.4542
     53 H           6.7728   -0.0615    9.3190 H       1  UNL1        0.0481
     54 H           8.4486    0.3129    9.7243 H       1  UNL1        0.0481
     55 H           8.0685    0.2594    7.2134 H       1  UNL1        0.0480
     56 H           8.5486    1.8665    7.7539 H       1  UNL1        0.0480
     57 H           2.5639   -5.7360    1.3133 H       1  UNL1        0.0663
     58 H           1.8696   -1.8538   -1.6648 H       1  UNL1        0.0676
     59 H           0.4305   -5.9096   -2.9661 H       1  UNL1        0.1166
     60 H          -0.9352   -5.4348   -1.9354 H       1  UNL1        0.1166
@<TRIPOS>UNITY_ATOM_ATTR
21 1
charge 1
@<TRIPOS>BOND
     1     1     2    1
     2     2     3    1
     3     3     4   ar
     4     4     5   ar
     5     5     6    1
     6     6     7    2
     7     6     8   am
     8     8     9    1
     9     9    10    1
    10    10    11    2
    11    10    12   am
    12    12    13    1
    13    13    14    1
    14    14    15    1
    15    15    16    1
    16    16    17   ar
    17    17    18   ar
    18    18    19   ar
    19    19    20   ar
    20    20    21   ar
    21    16    21   ar
    22    15    22    1
    23    22    23    1
    24    12    23    1
    25     5    24   ar
    26    24    25    2
    27    24    26   ar
    28    26    27   ar
    29    27    28   ar
    30    28    29   ar
    31    29    30   ar
    32    30    31   ar
    33    26    31   ar
    34     3    31   ar
    35    29    32    1
    36    32    33    1
    37    33    34    1
    38    28    34    1
    39     1    35    1
    40     1    36    1
    41     1    37    1
    42     2    38    1
    43     2    39    1
    44     4    40    1
    45     8    41    1
    46     9    42    1
    47     9    43    1
    48    13    44    1
    49    13    45    1
    50    14    46    1
    51    14    47    1
    52    17    48    1
    53    18    49    1
    54    19    50    1
    55    20    51    1
    56    21    52    1
    57    22    53    1
    58    22    54    1
    59    23    55    1
    60    23    56    1
    61    27    57    1
    62    30    58    1
    63    33    59    1
    64    33    60    1
