REMARK  15 active torsions:
REMARK  status: ('A' for Active; 'I' for Inactive)
REMARK    1  A    between atoms: C_2  and  O_5 
REMARK    2  A    between atoms: O_5  and  C_6 
REMARK       I    between atoms: C_6  and  N_8 
REMARK    3  A    between atoms: N_8  and  C_9 
REMARK    4  A    between atoms: C_9  and  C_10 
REMARK    5  A    between atoms: C_10  and  C_11 
REMARK    6  A    between atoms: C_11  and  C_12 
REMARK    7  A    between atoms: C_13  and  C_12 
REMARK    8  A    between atoms: C_13  and  C_25 
REMARK    9  A    between atoms: C_13  and  N_14 
REMARK       I    between atoms: N_14  and  C_15 
REMARK   10  A    between atoms: C_15  and  O_17 
REMARK   11  A    between atoms: O_17  and  C_18 
REMARK   12  A    between atoms: C_18  and  C_19 
REMARK   13  A    between atoms: C_25  and  O_27 
REMARK   14  A    between atoms: O_27  and  C_28 
REMARK   15  A    between atoms: C_28  and  C_29 
ROOT
ATOM      1  C   UNL d   1       9.706  -3.026   6.032  0.00  0.00     0.186 C 
ENDROOT
BRANCH   1   2
ATOM      2  C   UNL d   1       9.907  -3.704   7.410  0.00  0.00     0.282 C 
ATOM      3  O   UNL d   1       8.989  -4.039   8.150  0.00  0.00    -0.263 OA
BRANCH   2   4
ATOM      4  O   UNL d   1      11.236  -3.878   7.702  0.00  0.00    -0.315 OA
BRANCH   4   5
ATOM      5  C   UNL d   1      11.482  -4.508   8.973  0.00  0.00     0.217 C 
BRANCH   5   6
ATOM      6  C   UNL d   1      12.967  -4.625   9.257  0.00  0.00    -0.034 A 
ATOM      7  C   UNL d   1      13.581  -5.878   9.418  0.00  0.00     0.009 A 
ATOM      8  C   UNL d   1      14.914  -5.972   9.836  0.00  0.00     0.001 A 
ATOM      9  C   UNL d   1      15.672  -4.818  10.017  0.00  0.00     0.000 A 
ATOM     10  C   UNL d   1      15.084  -3.568   9.832  0.00  0.00     0.001 A 
ATOM     11  C   UNL d   1      13.738  -3.473   9.466  0.00  0.00     0.009 A 
ENDBRANCH   5   6
ENDBRANCH   4   5
ENDBRANCH   2   4
ENDBRANCH   1   2
BRANCH   1  12
ATOM     12  N   UNL d   1       8.277  -2.924   5.665  0.00  0.00    -0.323 N 
ATOM     13  C   UNL d   1       7.795  -3.275   4.431  0.00  0.00     0.361 C 
ATOM     14  O   UNL d   1       8.499  -3.689   3.515  0.00  0.00    -0.238 OA
ATOM     15  H   UNL d   1       7.608  -2.636   6.370  0.00  0.00     0.165 HD
BRANCH  13  16
ATOM     16  O   UNL d   1       6.448  -3.099   4.339  0.00  0.00    -0.299 OA
BRANCH  16  17
ATOM     17  C   UNL d   1       5.880  -3.465   3.054  0.00  0.00     0.219 C 
BRANCH  17  18
ATOM     18  C   UNL d   1       4.370  -3.298   3.054  0.00  0.00    -0.034 A 
ATOM     19  C   UNL d   1       3.764  -2.191   3.660  0.00  0.00     0.009 A 
ATOM     20  C   UNL d   1       2.374  -2.123   3.790  0.00  0.00     0.001 A 
ATOM     21  C   UNL d   1       1.565  -3.099   3.212  0.00  0.00     0.000 A 
ATOM     22  C   UNL d   1       2.148  -4.161   2.527  0.00  0.00     0.001 A 
ATOM     23  C   UNL d   1       3.542  -4.259   2.445  0.00  0.00     0.009 A 
ENDBRANCH  17  18
ENDBRANCH  16  17
ENDBRANCH  13  16
ENDBRANCH   1  12
BRANCH   1  24
ATOM     24  C   UNL d   1      10.361  -1.631   6.016  0.00  0.00     0.035 C 
BRANCH  24  25
ATOM     25  C   UNL d   1      11.551  -1.590   5.050  0.00  0.00     0.004 C 
BRANCH  25  26
ATOM     26  C   UNL d   1      12.230  -0.215   5.047  0.00  0.00     0.020 C 
BRANCH  26  27
ATOM     27  C   UNL d   1      13.406  -0.184   4.077  0.00  0.00     0.125 C 
BRANCH  27  28
ATOM     28  N   UNL d   1      14.095   1.095   4.032  0.00  0.00    -0.337 N 
ATOM     29  C   UNL d   1      15.171   1.246   3.195  0.00  0.00     0.361 C 
ATOM     30  O   UNL d   1      15.570   0.330   2.484  0.00  0.00    -0.238 OA
ATOM     31  H   UNL d   1      13.800   1.880   4.596  0.00  0.00     0.164 HD
BRANCH  29  32
ATOM     32  O   UNL d   1      15.723   2.497   3.249  0.00  0.00    -0.294 OA
BRANCH  32  33
ATOM     33  C   UNL d   1      16.881   2.772   2.394  0.00  0.00     0.061 C 
ATOM     34  C   UNL d   1      17.341   4.231   2.612  0.00  0.00     0.046 C 
ATOM     35  C   UNL d   1      16.517   2.631   0.909  0.00  0.00     0.046 C 
ATOM     36  C   UNL d   1      18.066   1.867   2.764  0.00  0.00     0.046 C 
ENDBRANCH  32  33
ENDBRANCH  29  32
ENDBRANCH  27  28
ENDBRANCH  26  27
ENDBRANCH  25  26
ENDBRANCH  24  25
ENDBRANCH   1  24
TORSDOF 15
