@<TRIPOS>MOLECULE
*****
 55 59 0 0 0
SMALL
GASTEIGER

@<TRIPOS>ATOM
      1 O           4.0344    0.7864    1.1710 O.2     1  UNL1       -0.2755
      2 C           4.0646   -0.4369    1.3395 C.2     1  UNL1        0.2174
      3 N           5.0752   -1.0290    2.0664 N.am    1  UNL1       -0.3147
      4 C           6.0257   -0.2257    2.7934 C.3     1  UNL1        0.0155
      5 C           7.0675   -1.0584    3.5442 C.3     1  UNL1       -0.0092
      6 C           8.0938   -0.2371    4.2651 C.2     1  UNL1        0.0091
      7 C           8.6999    0.8853    3.8629 C.ar    1  UNL1        0.0509
      8 C           8.6521    1.6901    2.6825 C.ar    1  UNL1       -0.0482
      9 C           9.3908    2.8003    2.6143 C.ar    1  UNL1       -0.0608
     10 C          10.2828    3.1840    3.6882 C.ar    1  UNL1       -0.0555
     11 C          10.4209    2.4704    4.8269 C.ar    1  UNL1        0.0098
     12 C           9.6020    1.2597    4.9645 C.ar    1  UNL1        0.2086
     13 N           9.5412    0.4139    5.9511 N.2     1  UNL1       -0.2369
     14 C           8.5661   -0.6459    5.6349 C.3     1  UNL1        0.1661
     15 C           2.9884   -1.3988    0.7764 C.3     1  UNL1        0.0484
     16 C           3.4553   -2.1103   -0.4970 C.3     1  UNL1       -0.0396
     17 C           2.4326   -3.1927   -0.8521 C.3     1  UNL1       -0.0394
     18 C           2.1662   -4.2082    0.2863 C.3     1  UNL1        0.0014
     19 N           1.5892   -3.6098    1.4719 N.3     1  UNL1       -0.2750
     20 C           1.0352   -4.6415    2.5164 C.3     1  UNL1        0.1289
     21 N           0.9062   -6.2703    2.5822 N.pl3   1  UNL1       -0.3178
     22 C          -0.1778   -6.5537    3.7226 C.ar    1  UNL1        0.0612
     23 C          -0.0313   -7.5867    4.6873 C.ar    1  UNL1       -0.0368
     24 C           0.1408   -7.2001    6.0222 C.ar    1  UNL1       -0.0418
     25 C           0.0386   -5.8482    6.3059 C.ar    1  UNL1        0.0290
     26 N          -0.4177   -4.9199    5.4308 N.ar    1  UNL1       -0.2468
     27 C          -0.6518   -5.3324    4.1751 C.ar    1  UNL1        0.1206
     28 S          -0.6815   -4.1426    2.8695 S.3     1  UNL1       -0.0657
     29 C           2.4881   -2.4553    1.8978 C.3     1  UNL1        0.0124
     30 H           5.2211   -2.0246    1.9893 H       1  UNL1        0.1487
     31 H           5.4813    0.4198    3.4953 H       1  UNL1        0.0465
     32 H           6.4784    0.4216    2.0506 H       1  UNL1        0.0465
     33 H           7.5863   -1.7373    2.8559 H       1  UNL1        0.0327
     34 H           6.5433   -1.7002    4.2646 H       1  UNL1        0.0327
     35 H           8.0431    1.4349    1.8274 H       1  UNL1        0.0626
     36 H           9.3385    3.4232    1.7217 H       1  UNL1        0.0618
     37 H          10.8622    4.0872    3.5141 H       1  UNL1        0.0620
     38 H          11.1132    2.7861    5.5963 H       1  UNL1        0.0683
     39 H          10.0950    0.5045    6.7881 H       1  UNL1        0.4459
     40 H           7.7675   -0.6175    6.3832 H       1  UNL1        0.1077
     41 H           9.0823   -1.6105    5.6351 H       1  UNL1        0.1077
     42 H           2.1613   -0.7332    0.4784 H       1  UNL1        0.0407
     43 H           4.4587   -2.5382   -0.3837 H       1  UNL1        0.0273
     44 H           3.5440   -1.4039   -1.3423 H       1  UNL1        0.0273
     45 H           2.7880   -3.7427   -1.7287 H       1  UNL1        0.0278
     46 H           1.4962   -2.6976   -1.1478 H       1  UNL1        0.0278
     47 H           3.1136   -4.6822    0.5579 H       1  UNL1        0.0427
     48 H           1.4700   -4.9556   -0.0909 H       1  UNL1        0.0427
     49 H           1.6248   -4.4437    3.4206 H       1  UNL1        0.0794
     50 H           0.4009   -6.6429    1.7729 H       1  UNL1        0.1484
     51 H          -0.4599   -8.5957    4.5662 H       1  UNL1        0.0637
     52 H           0.2917   -7.9113    6.8340 H       1  UNL1        0.0633
     53 H           0.2788   -5.4566    7.2880 H       1  UNL1        0.0830
     54 H           3.3998   -2.9026    2.3059 H       1  UNL1        0.0435
     55 H           2.0548   -1.8399    2.6981 H       1  UNL1        0.0435
@<TRIPOS>UNITY_ATOM_ATTR
13 1
charge 1
@<TRIPOS>BOND
     1     1     2    2
     2     2     3   am
     3     3     4    1
     4     4     5    1
     5     5     6    1
     6     6     7    2
     7     7     8   ar
     8     8     9   ar
     9     9    10   ar
    10    10    11   ar
    11    11    12   ar
    12     7    12   ar
    13    12    13    2
    14    13    14    1
    15     6    14    1
    16    15    16    1
    17    16    17    1
    18    17    18    1
    19    18    19    1
    20    19    20    1
    21    20    21    1
    22    21    22    1
    23    22    23   ar
    24    23    24   ar
    25    24    25   ar
    26    25    26   ar
    27    26    27   ar
    28    22    27   ar
    29    27    28    1
    30    20    28    1
    31    19    29    1
    32    15    29    1
    33    15     2    1
    34     3    30    1
    35     4    31    1
    36     4    32    1
    37     5    33    1
    38     5    34    1
    39     8    35    1
    40     9    36    1
    41    10    37    1
    42    11    38    1
    43    13    39    1
    44    14    40    1
    45    14    41    1
    46    15    42    1
    47    16    43    1
    48    16    44    1
    49    17    45    1
    50    17    46    1
    51    18    47    1
    52    18    48    1
    53    20    49    1
    54    21    50    1
    55    23    51    1
    56    24    52    1
    57    25    53    1
    58    29    54    1
    59    29    55    1
