@<TRIPOS>MOLECULE
*****
 54 56 0 0 0
SMALL
GASTEIGER

@<TRIPOS>ATOM
      1 C           2.6726    0.8754    0.0142 C.3     1  UNL1       -0.0362
      2 C           1.2712    0.3243   -0.0029 C.ar    1  UNL1       -0.0085
      3 C           1.2013   -1.0840    0.0030 C.ar    1  UNL1       -0.0554
      4 C          -0.0124   -1.7554   -0.0012 C.ar    1  UNL1       -0.0610
      5 C          -1.1926   -1.0291   -0.0041 C.ar    1  UNL1       -0.0554
      6 C          -1.1717    0.3776   -0.0082 C.ar    1  UNL1       -0.0085
      7 C          -2.5005    1.0914   -0.0068 C.3     1  UNL1       -0.0362
      8 C           0.0670    1.0752   -0.0154 C.ar    1  UNL1        0.1264
      9 O          -0.0646    2.4529   -0.0356 O.3     1  UNL1       -0.4888
     10 C           1.1277    3.2300   -0.0591 C.3     1  UNL1        0.1169
     11 C           0.9066    4.7392   -0.0742 C.3     1  UNL1        0.1045
     12 O           0.2207    5.1756    1.1060 O.3     1  UNL1       -0.3869
     13 C           2.2836    5.4322   -0.1336 C.3     1  UNL1        0.0411
     14 N           2.1464    6.8669   -0.2197 N.am    1  UNL1       -0.3088
     15 C           3.2386    7.6967   -0.3115 C.2     1  UNL1        0.2444
     16 O           4.4070    7.3132   -0.3564 O.2     1  UNL1       -0.2702
     17 C           2.9422    9.1395   -0.2726 C.ar    1  UNL1        0.0432
     18 C           3.6491   10.0888   -0.9999 C.ar    1  UNL1       -0.0475
     19 C           3.3944   11.4591   -0.7923 C.ar    1  UNL1       -0.0335
     20 C           2.4406   11.9300    0.1538 C.ar    1  UNL1        0.1056
     21 N           2.1575   13.3276    0.0611 N.pl3   1  UNL1       -0.3358
     22 C           1.1106   14.1188    0.7436 C.3     1  UNL1        0.0210
     23 C          -0.0128   13.4235    1.4432 C.3     1  UNL1       -0.0329
     24 C           1.1268   14.0936    2.2176 C.3     1  UNL1       -0.0329
     25 C           1.8361   10.9136    0.9425 C.ar    1  UNL1        0.2944
     26 N           1.1178   11.0398    2.2134 N.pl3   1  UNL1        0.0815
     27 O           1.6921   11.5891    3.1594 O.2     1  UNL1        0.0415
     28 O           0.0467   10.4131    2.3125 O.co2   1  UNL1       -0.5760
     29 C           2.0353    9.5533    0.6795 C.ar    1  UNL1        0.0296
     30 H           3.4341    0.0907    0.0162 H       1  UNL1        0.0279
     31 H           2.8497    1.4494    0.9268 H       1  UNL1        0.0279
     32 H           2.8729    1.4618   -0.8848 H       1  UNL1        0.0279
     33 H           2.1163   -1.6739    0.0115 H       1  UNL1        0.0621
     34 H          -0.0329   -2.8413    0.0002 H       1  UNL1        0.0618
     35 H          -2.1371   -1.5691   -0.0036 H       1  UNL1        0.0621
     36 H          -3.3337    0.3767    0.0204 H       1  UNL1        0.0279
     37 H          -2.6188    1.6884   -0.9155 H       1  UNL1        0.0279
     38 H          -2.5980    1.7281    0.8773 H       1  UNL1        0.0279
     39 H           1.6766    3.0046   -0.9759 H       1  UNL1        0.0723
     40 H           1.6899    3.0245    0.8535 H       1  UNL1        0.0723
     41 H           0.2898    5.0223   -0.9326 H       1  UNL1        0.0643
     42 H           0.6900    4.8097    1.8773 H       1  UNL1        0.2100
     43 H           2.8683    5.1054   -1.0000 H       1  UNL1        0.0489
     44 H           2.8704    5.2156    0.7698 H       1  UNL1        0.0489
     45 H           1.2048    7.2376   -0.1322 H       1  UNL1        0.1491
     46 H           4.3946    9.7713   -1.7262 H       1  UNL1        0.0626
     47 H           3.9825   12.1691   -1.3766 H       1  UNL1        0.0638
     48 H           2.8053   13.8528   -0.5268 H       1  UNL1        0.1465
     49 H           0.8949   15.0634    0.2523 H       1  UNL1        0.0497
     50 H          -0.1875   12.5043    0.8990 H       1  UNL1        0.0284
     51 H          -0.9497   13.7121    1.8958 H       1  UNL1        0.0284
     52 H           2.0616   13.6906    2.5884 H       1  UNL1        0.0284
     53 H           0.7949   14.9021    2.8572 H       1  UNL1        0.0284
     54 H           1.5385    8.8118    1.3038 H       1  UNL1        0.0693
@<TRIPOS>UNITY_ATOM_ATTR
26 1
charge 1
28 1
charge -1
@<TRIPOS>BOND
     1     1     2    1
     2     2     3   ar
     3     3     4   ar
     4     4     5   ar
     5     5     6   ar
     6     6     7    1
     7     6     8   ar
     8     2     8   ar
     9     8     9    1
    10     9    10    1
    11    10    11    1
    12    11    12    1
    13    11    13    1
    14    13    14    1
    15    14    15   am
    16    15    16    2
    17    15    17    1
    18    17    18   ar
    19    18    19   ar
    20    19    20   ar
    21    20    21    1
    22    21    22    1
    23    22    23    1
    24    23    24    1
    25    22    24    1
    26    20    25   ar
    27    25    26    1
    28    26    27    2
    29    26    28    1
    30    25    29   ar
    31    17    29   ar
    32     1    30    1
    33     1    31    1
    34     1    32    1
    35     3    33    1
    36     4    34    1
    37     5    35    1
    38     7    36    1
    39     7    37    1
    40     7    38    1
    41    10    39    1
    42    10    40    1
    43    11    41    1
    44    12    42    1
    45    13    43    1
    46    13    44    1
    47    14    45    1
    48    18    46    1
    49    19    47    1
    50    21    48    1
    51    22    49    1
    52    23    50    1
    53    23    51    1
    54    24    52    1
    55    24    53    1
    56    29    54    1
