REMARK  12 active torsions:
REMARK  status: ('A' for Active; 'I' for Inactive)
REMARK    1  A    between atoms: C_2  and  C_3 
REMARK    2  A    between atoms: C_3  and  N_4 
REMARK       I    between atoms: N_4  and  C_5 
REMARK    3  A    between atoms: N_4  and  C_17 
REMARK    4  A    between atoms: C_5  and  C_7 
REMARK    5  A    between atoms: C_7  and  N_8 
REMARK       I    between atoms: N_8  and  C_9 
REMARK    6  A    between atoms: C_9  and  C_11 
REMARK    7  A    between atoms: C_17  and  C_18 
REMARK    8  A    between atoms: C_17  and  C_27 
REMARK       I    between atoms: C_18  and  N_20 
REMARK    9  A    between atoms: N_20  and  C_21 
REMARK   10  A    between atoms: C_28  and  O_29 
REMARK   11  A    between atoms: C_31  and  O_32 
REMARK   12  A    between atoms: C_34  and  O_35 
ROOT
ATOM      1  C   UNL d   1       5.178   2.315   1.073  0.00  0.00     0.218 C 
ENDROOT
BRANCH   1   2
ATOM      2  N   UNL d   1       4.428   1.117   0.514  0.00  0.00    -0.333 N 
ATOM      3  C   UNL d   1       5.048   0.331  -0.524  0.00  0.00     0.238 C 
ATOM      4  O   UNL d   1       6.010   0.697  -1.199  0.00  0.00    -0.272 OA
BRANCH   2   5
ATOM      5  C   UNL d   1       2.953   1.228   0.566  0.00  0.00     0.127 C 
BRANCH   5   6
ATOM      6  C   UNL d   1       2.194   0.026   0.075  0.00  0.00     0.015 C 
ATOM      7  C   UNL d   1       0.702   0.057   0.114  0.00  0.00     0.006 C 
ENDBRANCH   5   6
ENDBRANCH   2   5
BRANCH   3   8
ATOM      8  C   UNL d   1       4.572  -1.139  -0.625  0.00  0.00     0.225 C 
BRANCH   8   9
ATOM      9  N   UNL d   1       5.493  -2.192  -0.933  0.00  0.00    -0.348 N 
ATOM     10  C   UNL d   1       4.951  -3.378  -1.376  0.00  0.00     0.252 C 
ATOM     11  O   UNL d   1       3.736  -3.582  -1.473  0.00  0.00    -0.268 OA
ATOM     12  H   UNL d   1       6.487  -2.027  -0.834  0.00  0.00     0.163 HD
BRANCH  10  13
ATOM     13  C   UNL d   1       5.887  -4.431  -1.777  0.00  0.00     0.032 A 
ATOM     14  C   UNL d   1       5.615  -5.155  -2.942  0.00  0.00     0.017 A 
ATOM     15  C   UNL d   1       6.419  -6.239  -3.280  0.00  0.00     0.001 A 
ATOM     16  C   UNL d   1       7.523  -6.555  -2.487  0.00  0.00     0.000 A 
ATOM     17  C   UNL d   1       7.799  -5.819  -1.332  0.00  0.00     0.001 A 
ATOM     18  C   UNL d   1       6.974  -4.758  -0.966  0.00  0.00     0.017 A 
ENDBRANCH  10  13
ENDBRANCH   8   9
ENDBRANCH   3   8
ENDBRANCH   1   2
BRANCH   1  19
ATOM     19  C   UNL d   1       4.833   2.737   2.565  0.00  0.00     0.245 C 
ATOM     20  O   UNL d   1       5.733   2.907   3.394  0.00  0.00    -0.271 OA
ATOM     21  N   UNL d   1       3.519   2.971   2.932  0.00  0.00    -0.354 N 
ATOM     22  H   UNL d   1       2.833   3.201   2.227  0.00  0.00     0.162 HD
BRANCH  21  23
ATOM     23  C   UNL d   1       3.158   3.248   4.326  0.00  0.00     0.084 C 
ATOM     24  C   UNL d   1       3.765   2.203   5.283  0.00  0.00     0.025 C 
ATOM     25  C   UNL d   1       3.569   2.530   6.751  0.00  0.00     0.002 C 
ATOM     26  C   UNL d   1       4.025   3.951   7.062  0.00  0.00     0.000 C 
ATOM     27  C   UNL d   1       3.285   4.962   6.195  0.00  0.00     0.002 C 
ATOM     28  C   UNL d   1       3.509   4.690   4.711  0.00  0.00     0.025 C 
ENDBRANCH  21  23
ENDBRANCH   1  19
BRANCH   1  29
ATOM     29  C   UNL d   1       6.694   2.108   1.090  0.00  0.00     0.040 C 
ATOM     30  C   UNL d   1       7.297   0.859   1.340  0.00  0.00     0.080 C 
ATOM     31  C   UNL d   1       8.668   0.696   1.260  0.00  0.00     0.073 C 
ATOM     32  C   UNL d   1       9.469   1.811   1.083  0.00  0.00     0.071 C 
ATOM     33  C   UNL d   1       8.923   3.088   1.012  0.00  0.00     0.073 C 
ATOM     34  C   UNL d   1       7.538   3.230   0.982  0.00  0.00     0.080 C 
BRANCH  30  35
ATOM     35  O   UNL d   1       6.614  -0.292   1.641  0.00  0.00    -0.360 OA
ATOM     36  H   UNL d   1       5.664  -0.095   1.639  0.00  0.00     0.217 HD
ENDBRANCH  30  35
BRANCH  32  37
ATOM     37  O   UNL d   1      10.822   1.675   0.988  0.00  0.00    -0.361 OA
ATOM     38  H   UNL d   1      11.015   0.723   0.940  0.00  0.00     0.217 HD
ENDBRANCH  32  37
BRANCH  34  39
ATOM     39  O   UNL d   1       6.976   4.477   0.886  0.00  0.00    -0.360 OA
ATOM     40  H   UNL d   1       7.684   5.142   0.942  0.00  0.00     0.217 HD
ENDBRANCH  34  39
ENDBRANCH   1  29
TORSDOF 12
