@<TRIPOS>MOLECULE
*****
 68 70 0 0 0
SMALL
GASTEIGER

@<TRIPOS>ATOM
      1 O           1.1579    0.1529    0.1805 O.2     1  UNL1       -0.2754
      2 C           2.3673    0.0591   -0.0226 C.2     1  UNL1        0.2185
      3 C           2.9448   -0.5356   -1.2956 C.3     1  UNL1        0.0248
      4 C           1.9981   -1.0327   -2.3562 C.3     1  UNL1       -0.0347
      5 C           2.7720   -1.6131   -3.5595 C.3     1  UNL1        0.0454
      6 C           1.7842   -2.1034   -4.5869 C.2     1  UNL1        0.3071
      7 O           0.5595   -2.0361   -4.4446 O.2     1  UNL1       -0.2509
      8 O           2.3912   -2.6259   -5.6876 O.3     1  UNL1       -0.4646
      9 C           1.4461   -3.0927   -6.6688 C.3     1  UNL1        0.0928
     10 C           2.1781   -3.6618   -7.8766 C.3     1  UNL1       -0.0146
     11 C           1.1921   -4.1550   -8.9446 C.3     1  UNL1       -0.0246
     12 C           1.9130   -4.7294  -10.1393 C.ar    1  UNL1       -0.0472
     13 C           1.8180   -6.0934  -10.4423 C.ar    1  UNL1       -0.0586
     14 C           2.5813   -6.6400  -11.4750 C.ar    1  UNL1       -0.0615
     15 C           3.3806   -5.8162  -12.2654 C.ar    1  UNL1       -0.0617
     16 C           3.4524   -4.4515  -11.9969 C.ar    1  UNL1       -0.0615
     17 C           2.7263   -3.9114  -10.9361 C.ar    1  UNL1       -0.0586
     18 N           3.2877    0.5123    0.9421 N.am    1  UNL1       -0.2676
     19 C           4.6961    0.4055    1.0203 C.2     1  UNL1        0.1408
     20 S           5.6575   -0.4554   -0.0833 S.2     1  UNL1       -0.0182
     21 N           5.2572    1.0696    2.1323 N.am    1  UNL1       -0.2965
     22 C           6.6745    1.2275    2.2642 C.ar    1  UNL1        0.0361
     23 C           7.3741    0.8734    3.4124 C.ar    1  UNL1       -0.0403
     24 C           8.7755    0.9969    3.4239 C.ar    1  UNL1       -0.0566
     25 C           9.4762    1.4077    2.2785 C.ar    1  UNL1       -0.0198
     26 C           8.7808    1.7719    1.1335 C.ar    1  UNL1        0.1223
     27 O           9.5123    2.1730    0.0449 O.3     1  UNL1       -0.4916
     28 C           8.7398    2.5147   -1.1167 C.3     1  UNL1        0.0935
     29 C           9.6580    3.0278   -2.2232 C.3     1  UNL1        0.0066
     30 C           8.8641    3.3948   -3.4542 C.ar    1  UNL1       -0.0442
     31 C           8.7725    4.7265   -3.8772 C.ar    1  UNL1       -0.0585
     32 C           7.9281    5.0722   -4.9341 C.ar    1  UNL1       -0.0615
     33 C           7.2311    4.0831   -5.6263 C.ar    1  UNL1       -0.0617
     34 C           7.3433    2.7509   -5.2368 C.ar    1  UNL1       -0.0615
     35 C           8.1519    2.4091   -4.1539 C.ar    1  UNL1       -0.0585
     36 C           7.3921    1.7218    1.1666 C.ar    1  UNL1        0.0013
     37 H           3.5040   -1.4253   -0.9984 H       1  UNL1        0.0359
     38 H           3.5757    0.2349   -1.7538 H       1  UNL1        0.0359
     39 H           1.3545   -0.2109   -2.6825 H       1  UNL1        0.0275
     40 H           1.3575   -1.8090   -1.9230 H       1  UNL1        0.0275
     41 H           3.4094   -2.4485   -3.2404 H       1  UNL1        0.0378
     42 H           3.4136   -0.8431   -4.0067 H       1  UNL1        0.0378
     43 H           0.8160   -2.2535   -6.9889 H       1  UNL1        0.0697
     44 H           0.8162   -3.8718   -6.2225 H       1  UNL1        0.0697
     45 H           2.8353   -4.4811   -7.5583 H       1  UNL1        0.0301
     46 H           2.8437   -2.8918   -8.2857 H       1  UNL1        0.0301
     47 H           0.5430   -3.3373   -9.2820 H       1  UNL1        0.0314
     48 H           0.5308   -4.9152   -8.5089 H       1  UNL1        0.0314
     49 H           1.1605   -6.7431   -9.8692 H       1  UNL1        0.0620
     50 H           2.5612   -7.7115  -11.6555 H       1  UNL1        0.0618
     51 H           3.9456   -6.2381  -13.0918 H       1  UNL1        0.0618
     52 H           4.0873   -3.8092  -12.6011 H       1  UNL1        0.0618
     53 H           2.8080   -2.8476  -10.7253 H       1  UNL1        0.0620
     54 H           2.7955    0.9180    1.7300 H       1  UNL1        0.1565
     55 H           4.7089    1.1959    2.9754 H       1  UNL1        0.1538
     56 H           6.8768    0.4311    4.2704 H       1  UNL1        0.0636
     57 H           9.3362    0.7602    4.3256 H       1  UNL1        0.0619
     58 H          10.5628    1.4488    2.2848 H       1  UNL1        0.0654
     59 H           8.0190    3.3083   -0.8741 H       1  UNL1        0.0700
     60 H           8.1959    1.6273   -1.4686 H       1  UNL1        0.0700
     61 H          10.4090    2.2711   -2.4745 H       1  UNL1        0.0346
     62 H          10.2147    3.8946   -1.8464 H       1  UNL1        0.0346
     63 H           9.3454    5.5060   -3.3799 H       1  UNL1        0.0620
     64 H           7.8048    6.1159   -5.2111 H       1  UNL1        0.0618
     65 H           6.6031    4.3507   -6.4716 H       1  UNL1        0.0618
     66 H           6.7898    1.9786   -5.7640 H       1  UNL1        0.0618
     67 H           8.2125    1.3664   -3.8488 H       1  UNL1        0.0620
     68 H           6.8218    2.0274    0.2982 H       1  UNL1        0.0673
@<TRIPOS>BOND
     1     1     2    2
     2     2     3    1
     3     3     4    1
     4     4     5    1
     5     5     6    1
     6     6     7    2
     7     6     8    1
     8     8     9    1
     9     9    10    1
    10    10    11    1
    11    11    12    1
    12    12    13   ar
    13    13    14   ar
    14    14    15   ar
    15    15    16   ar
    16    16    17   ar
    17    12    17   ar
    18     2    18   am
    19    18    19    1
    20    19    20    2
    21    19    21    1
    22    21    22    1
    23    22    23   ar
    24    23    24   ar
    25    24    25   ar
    26    25    26   ar
    27    26    27    1
    28    27    28    1
    29    28    29    1
    30    29    30    1
    31    30    31   ar
    32    31    32   ar
    33    32    33   ar
    34    33    34   ar
    35    34    35   ar
    36    30    35   ar
    37    26    36   ar
    38    22    36   ar
    39     3    37    1
    40     3    38    1
    41     4    39    1
    42     4    40    1
    43     5    41    1
    44     5    42    1
    45     9    43    1
    46     9    44    1
    47    10    45    1
    48    10    46    1
    49    11    47    1
    50    11    48    1
    51    13    49    1
    52    14    50    1
    53    15    51    1
    54    16    52    1
    55    17    53    1
    56    18    54    1
    57    21    55    1
    58    23    56    1
    59    24    57    1
    60    25    58    1
    61    28    59    1
    62    28    60    1
    63    29    61    1
    64    29    62    1
    65    31    63    1
    66    32    64    1
    67    33    65    1
    68    34    66    1
    69    35    67    1
    70    36    68    1
