REMARK  12 active torsions:
REMARK  status: ('A' for Active; 'I' for Inactive)
REMARK    1  A    between atoms: C_2  and  O_3 
REMARK    2  A    between atoms: O_3  and  C_4 
REMARK    3  A    between atoms: C_7  and  O_8 
REMARK    4  A    between atoms: O_8  and  C_9 
REMARK    5  A    between atoms: C_11  and  N_12 
REMARK       I    between atoms: N_12  and  C_13 
REMARK    6  A    between atoms: C_13  and  C_15 
REMARK    7  A    between atoms: C_15  and  C_16 
REMARK    8  A    between atoms: C_16  and  S_17 
REMARK    9  A    between atoms: S_17  and  C_18 
REMARK   10  A    between atoms: C_20  and  C_21 
REMARK   11  A    between atoms: C_21  and  C_22 
REMARK   12  A    between atoms: C_26  and  N_27 
ROOT
ATOM      1  C   UNL d   1       6.919   3.785  -3.572  0.00  0.00     0.090 C 
ENDROOT
BRANCH   1   2
ATOM      2  C   UNL d   1       7.673   3.305  -2.320  0.00  0.00     0.113 C 
BRANCH   2   3
ATOM      3  C   UNL d   1       6.698   2.538  -1.449  0.00  0.00     0.223 C 
ATOM      4  N   UNL d   1       7.246   2.047  -0.279  0.00  0.00    -0.325 N 
ATOM      5  H   UNL d   1       8.204   2.303  -0.147  0.00  0.00     0.169 HD
ATOM      6  O   UNL d   1       5.533   2.397  -1.829  0.00  0.00    -0.273 OA
BRANCH   4   7
ATOM      7  C   UNL d   1       6.586   1.301   0.750  0.00  0.00     0.071 A 
ATOM      8  C   UNL d   1       7.191   0.849   1.946  0.00  0.00     0.095 A 
ATOM      9  C   UNL d   1       6.376   0.211   2.915  0.00  0.00     0.042 A 
ATOM     10  C   UNL d   1       5.016  -0.055   2.686  0.00  0.00     0.039 A 
ATOM     11  C   UNL d   1       4.430   0.359   1.504  0.00  0.00     0.071 A 
ATOM     12  C   UNL d   1       5.218   1.029   0.579  0.00  0.00     0.069 A 
BRANCH   8  13
ATOM     13  O   UNL d   1       8.512   0.914   2.348  0.00  0.00    -0.349 OA
BRANCH  13  14
ATOM     14  C   UNL d   1       9.459   1.412   1.418  0.00  0.00     0.171 C 
ATOM     15  C   UNL d   1      10.889   1.327   1.896  0.00  0.00     0.034 C 
ENDBRANCH  13  14
ENDBRANCH   8  13
BRANCH  11  16
ATOM     16  O   UNL d   1       3.079   0.187   1.349  0.00  0.00    -0.351 OA
BRANCH  16  17
ATOM     17  C   UNL d   1       2.628  -0.045   0.005  0.00  0.00     0.171 C 
ATOM     18  C   UNL d   1       1.110  -0.027  -0.016  0.00  0.00     0.034 C 
ENDBRANCH  16  17
ENDBRANCH  11  16
ENDBRANCH   4   7
ENDBRANCH   2   3
ENDBRANCH   1   2
BRANCH   1  19
ATOM     19  S   UNL d   1       8.033   4.774  -4.648  0.00  0.00    -0.109 SA
BRANCH  19  20
ATOM     20  C   UNL d   1       6.983   5.186  -6.039  0.00  0.00     0.114 C 
ATOM     21  C   UNL d   1       6.421   4.197  -6.801  0.00  0.00     0.067 C 
ATOM     22  C   UNL d   1       5.575   4.551  -7.843  0.00  0.00     0.057 C 
ATOM     23  N   UNL d   1       5.367   5.840  -8.154  0.00  0.00    -0.065 NA
ATOM     24  C   UNL d   1       6.055   6.755  -7.427  0.00  0.00     0.751 C 
ATOM     25  N   UNL d   1       6.874   6.473  -6.382  0.00  0.00    -0.054 NA
BRANCH  22  26
ATOM     26  C   UNL d   1       4.842   3.512  -8.671  0.00  0.00     0.064 C 
BRANCH  26  27
ATOM     27  C   UNL d   1       4.976   2.079  -8.118  0.00  0.00    -0.017 C 
ATOM     28  C   UNL d   1       4.348   1.949  -6.718  0.00  0.00     0.010 C 
ATOM     29  C   UNL d   1       4.316   1.053  -9.030  0.00  0.00     0.010 C 
ENDBRANCH  26  27
ENDBRANCH  22  26
BRANCH  24  30
ATOM     30  N   UNL d   1       6.014   8.113  -7.873  0.00  0.00    -0.064 N 
ATOM     31  N   UNL d   1       4.839   8.791  -8.024  0.00  0.00    -0.158 NA
ATOM     32  C   UNL d   1       5.210  10.025  -8.382  0.00  0.00     0.054 A 
ATOM     33  C   UNL d   1       4.216  11.107  -8.567  0.00  0.00     0.072 C 
ATOM     34  C   UNL d   1       6.600  10.123  -8.575  0.00  0.00     0.056 A 
ATOM     35  C   UNL d   1       7.106   8.891  -8.229  0.00  0.00     0.052 A 
ATOM     36  C   UNL d   1       8.496   8.383  -8.293  0.00  0.00     0.071 C 
ENDBRANCH  24  30
ENDBRANCH  19  20
ENDBRANCH   1  19
TORSDOF 12
