@<TRIPOS>MOLECULE
*****
 51 53 0 0 0
SMALL
GASTEIGER

@<TRIPOS>ATOM
      1 C           2.6904    0.7003    0.0048 C.3     1  UNL1       -0.0379
      2 C           1.2669    0.2502   -0.0004 C.ar    1  UNL1       -0.0290
      3 C           1.1592   -1.1525    0.0049 C.ar    1  UNL1       -0.0571
      4 C          -0.0643   -1.7781    0.0002 C.ar    1  UNL1       -0.0611
      5 C          -1.2075   -0.9973   -0.0031 C.ar    1  UNL1       -0.0571
      6 C          -1.1463    0.4235   -0.0056 C.ar    1  UNL1       -0.0290
      7 C          -2.4879    1.1164   -0.0065 C.3     1  UNL1       -0.0379
      8 C           0.1188    1.0903   -0.0101 C.ar    1  UNL1        0.0393
      9 N           0.1653    2.5448   -0.0347 N.am    1  UNL1       -0.2837
     10 C           1.2816    3.3722   -0.0348 C.2     1  UNL1        0.2343
     11 O           2.4696    3.0385    0.0400 O.2     1  UNL1       -0.2738
     12 C           1.1265    4.8883   -0.1098 C.3     1  UNL1        0.0861
     13 N           2.4947    5.4137   -0.3180 N.pl3   1  UNL1       -0.3354
     14 C           2.9121    6.7037   -0.1486 C.ar    1  UNL1        0.0275
     15 C           3.9841    7.1780   -0.9130 C.ar    1  UNL1       -0.0401
     16 C           4.3763    8.5196   -0.8468 C.ar    1  UNL1       -0.0479
     17 C           3.6807    9.4193   -0.0294 C.ar    1  UNL1        0.0368
     18 C           4.0344   10.8774   -0.1090 C.2     1  UNL1        0.2444
     19 O           4.9299   11.2619   -0.8526 O.2     1  UNL1       -0.2702
     20 N           3.2882   11.7436    0.6558 N.am    1  UNL1       -0.3042
     21 C           3.4887   13.1828    0.6434 C.3     1  UNL1        0.0700
     22 C           2.5477   13.8286    1.6099 C.ar    1  UNL1        0.1218
     23 C           1.5683   13.3472    2.4600 C.ar    1  UNL1       -0.0192
     24 C           1.0426   14.4544    3.1598 C.ar    1  UNL1       -0.0236
     25 C           1.7146   15.5548    2.6870 C.ar    1  UNL1        0.0921
     26 O           2.6273   15.1896    1.7453 O.2     1  UNL1       -0.4662
     27 C           2.6543    8.9231    0.7852 C.ar    1  UNL1       -0.0479
     28 C           2.2808    7.5801    0.7214 C.ar    1  UNL1       -0.0401
     29 H           3.4337   -0.0967    0.0151 H       1  UNL1        0.0278
     30 H           2.8657    1.2406    0.9414 H       1  UNL1        0.0278
     31 H           2.8771    1.2390   -0.9309 H       1  UNL1        0.0278
     32 H           2.0648   -1.7567    0.0106 H       1  UNL1        0.0621
     33 H          -0.1109   -2.8622   -0.0004 H       1  UNL1        0.0618
     34 H          -2.1641   -1.5179   -0.0048 H       1  UNL1        0.0621
     35 H          -3.3125    0.3881    0.0202 H       1  UNL1        0.0278
     36 H          -2.6215    1.7044   -0.9178 H       1  UNL1        0.0278
     37 H          -2.6032    1.7456    0.8797 H       1  UNL1        0.0278
     38 H          -0.7371    3.0054   -0.0538 H       1  UNL1        0.1549
     39 H           0.6823    5.2298    0.8273 H       1  UNL1        0.0557
     40 H           0.5292    5.1649   -0.9786 H       1  UNL1        0.0557
     41 H           3.2172    4.6884   -0.1934 H       1  UNL1        0.1466
     42 H           4.4815    6.5133   -1.6193 H       1  UNL1        0.0636
     43 H           5.2075    8.8594   -1.4616 H       1  UNL1        0.0626
     44 H           2.5357   11.3887    1.2130 H       1  UNL1        0.1495
     45 H           3.3222   13.5499   -0.3753 H       1  UNL1        0.0543
     46 H           4.5285   13.3857    0.9199 H       1  UNL1        0.0543
     47 H           1.2726   12.3167    2.5794 H       1  UNL1        0.0652
     48 H           0.2717   14.4428    3.9171 H       1  UNL1        0.0649
     49 H           1.6621   16.6107    2.9161 H       1  UNL1        0.1029
     50 H           2.1024    9.5404    1.4804 H       1  UNL1        0.0626
     51 H           1.4898    7.2226    1.3717 H       1  UNL1        0.0636
@<TRIPOS>BOND
     1     1     2    1
     2     2     3   ar
     3     3     4   ar
     4     4     5   ar
     5     5     6   ar
     6     6     7    1
     7     6     8   ar
     8     2     8   ar
     9     8     9    1
    10     9    10   am
    11    10    11    2
    12    10    12    1
    13    12    13    1
    14    13    14    1
    15    14    15   ar
    16    15    16   ar
    17    16    17   ar
    18    17    18    1
    19    18    19    2
    20    18    20   am
    21    20    21    1
    22    21    22    1
    23    22    23   ar
    24    23    24   ar
    25    24    25   ar
    26    25    26   ar
    27    22    26   ar
    28    17    27   ar
    29    27    28   ar
    30    14    28   ar
    31     1    29    1
    32     1    30    1
    33     1    31    1
    34     3    32    1
    35     4    33    1
    36     5    34    1
    37     7    35    1
    38     7    36    1
    39     7    37    1
    40     9    38    1
    41    12    39    1
    42    12    40    1
    43    13    41    1
    44    15    42    1
    45    16    43    1
    46    20    44    1
    47    21    45    1
    48    21    46    1
    49    23    47    1
    50    24    48    1
    51    25    49    1
    52    27    50    1
    53    28    51    1
