@<TRIPOS>MOLECULE
*****
 64 68 0 0 0
SMALL
GASTEIGER

@<TRIPOS>ATOM
      1 C           1.0968   -0.1147    0.1541 C.3     1  UNL1        0.0817
      2 O           2.5332   -0.1617    0.2014 O.3     1  UNL1       -0.4666
      3 C           3.1282   -0.7878    1.2545 C.2     1  UNL1        0.3278
      4 O           2.5142   -1.3636    2.1489 O.2     1  UNL1       -0.2487
      5 C           4.6847   -0.7107    1.1785 C.3     1  UNL1        0.1279
      6 C           5.1750    0.7542    1.1406 C.3     1  UNL1        0.0415
      7 C           4.8148    1.4766   -0.1050 C.ar    1  UNL1        0.1436
      8 C           4.3362    1.0294   -1.3157 C.ar    1  UNL1        0.1313
      9 N           4.0968    2.1257   -2.0955 N.ar    1  UNL1       -0.2498
     10 C           4.5074    3.2316   -1.4737 C.ar    1  UNL1        0.2425
     11 N           4.9249    2.8542   -0.2607 N.ar    1  UNL1       -0.2473
     12 N           5.2802   -1.4369    2.3255 N.am    1  UNL1       -0.2992
     13 C           6.6513   -1.6041    2.4538 C.2     1  UNL1        0.2513
     14 O           7.4118   -1.1280    1.6111 O.2     1  UNL1       -0.2721
     15 C           7.1431   -2.3768    3.6972 C.3     1  UNL1        0.1652
     16 O           8.5713   -2.3264    3.7266 O.3     1  UNL1       -0.4825
     17 C           9.2197   -3.0011    4.7231 C.ar    1  UNL1        0.1282
     18 C           8.8838   -4.2761    5.1766 C.ar    1  UNL1        0.0225
     19 C           9.7041   -4.9216    6.1146 C.ar    1  UNL1        0.1343
     20 O           9.4010   -6.1971    6.4985 O.3     1  UNL1       -0.5058
     21 C          10.8420   -4.2882    6.6340 C.ar    1  UNL1        0.1012
     22 C          11.1530   -2.9968    6.1996 C.ar    1  UNL1        0.1380
     23 C          10.3673   -2.3780    5.2212 C.ar    1  UNL1        0.0227
     24 O          12.2546   -2.2841    6.5955 O.3     1  UNL1       -0.4900
     25 C          12.8991   -2.7707    7.7765 C.3     1  UNL1        0.1034
     26 C          13.1057   -4.2801    7.8037 C.3     1  UNL1        0.0815
     27 C          14.1760   -4.7453    6.8368 C.ar    1  UNL1       -0.0299
     28 C          15.3094   -5.4218    7.3060 C.ar    1  UNL1       -0.0541
     29 C          16.2872   -5.8613    6.4094 C.ar    1  UNL1       -0.0160
     30 C          16.1431   -5.6236    5.0431 C.ar    1  UNL1        0.1621
     31 C          15.0148   -4.9626    4.5686 C.ar    1  UNL1        0.1623
     32 C          14.0508   -4.5211    5.4576 C.ar    1  UNL1       -0.0123
     33 O          14.7737   -4.6934    3.2482 O.3     1  UNL1       -0.4849
     34 C          15.6125   -5.4813    2.4052 C.3     1  UNL1        0.1237
     35 C          17.0436   -5.4796    2.9169 C.3     1  UNL1        0.1237
     36 O          17.1385   -6.0730    4.2175 O.3     1  UNL1       -0.4849
     37 C          11.7884   -4.9742    7.5555 C.2     1  UNL1        0.1808
     38 O          11.5546   -6.0707    8.0561 O.2     1  UNL1       -0.2910
     39 H           0.8064    0.4578   -0.7368 H       1  UNL1        0.0661
     40 H           0.7009    0.4058    1.0297 H       1  UNL1        0.0661
     41 H           0.6855   -1.1217    0.0586 H       1  UNL1        0.0661
     42 H           5.0067   -1.2470    0.2744 H       1  UNL1        0.0619
     43 H           6.2670    0.8149    1.1903 H       1  UNL1        0.0373
     44 H           4.7984    1.2982    2.0149 H       1  UNL1        0.0373
     45 H           4.0585    0.0592   -1.6934 H       1  UNL1        0.1120
     46 H           3.6866    2.0941   -3.0258 H       1  UNL1        0.3101
     47 H           4.4986    4.2359   -1.8765 H       1  UNL1        0.1581
     48 H           5.2972    3.4954    0.4386 H       1  UNL1        0.3104
     49 H           4.6393   -1.9056    2.9625 H       1  UNL1        0.1496
     50 H           6.7745   -3.4032    3.6189 H       1  UNL1        0.0795
     51 H           6.7476   -1.8871    4.5944 H       1  UNL1        0.0795
     52 H           8.0265   -4.8005    4.7733 H       1  UNL1        0.0691
     53 H           8.6125   -6.5365    6.0516 H       1  UNL1        0.2922
     54 H          10.6649   -1.4034    4.8386 H       1  UNL1        0.0691
     55 H          12.3099   -2.4392    8.6396 H       1  UNL1        0.0707
     56 H          13.8723   -2.2674    7.8437 H       1  UNL1        0.0707
     57 H          13.4060   -4.5407    8.8288 H       1  UNL1        0.0463
     58 H          15.4390   -5.6168    8.3692 H       1  UNL1        0.0622
     59 H          17.1636   -6.3848    6.7798 H       1  UNL1        0.0655
     60 H          13.1967   -4.0100    5.0315 H       1  UNL1        0.0658
     61 H          15.5702   -5.0427    1.4035 H       1  UNL1        0.0731
     62 H          15.1992   -6.4956    2.3546 H       1  UNL1        0.0731
     63 H          17.4422   -4.4590    2.9717 H       1  UNL1        0.0731
     64 H          17.6758   -6.0630    2.2428 H       1  UNL1        0.0731
@<TRIPOS>UNITY_ATOM_ATTR
9 1
charge 1
@<TRIPOS>BOND
     1     1     2    1
     2     2     3    1
     3     3     4    2
     4     3     5    1
     5     5     6    1
     6     6     7    1
     7     7     8   ar
     8     8     9   ar
     9     9    10   ar
    10    10    11   ar
    11     7    11   ar
    12     5    12    1
    13    12    13   am
    14    13    14    2
    15    13    15    1
    16    15    16    1
    17    16    17    1
    18    17    18   ar
    19    18    19   ar
    20    19    20    1
    21    19    21   ar
    22    21    22   ar
    23    22    23   ar
    24    17    23   ar
    25    22    24    1
    26    24    25    1
    27    25    26    1
    28    26    27    1
    29    27    28   ar
    30    28    29   ar
    31    29    30   ar
    32    30    31   ar
    33    31    32   ar
    34    27    32   ar
    35    31    33    1
    36    33    34    1
    37    34    35    1
    38    35    36    1
    39    30    36    1
    40    26    37    1
    41    21    37    1
    42    37    38    2
    43     1    39    1
    44     1    40    1
    45     1    41    1
    46     5    42    1
    47     6    43    1
    48     6    44    1
    49     8    45    1
    50     9    46    1
    51    10    47    1
    52    11    48    1
    53    12    49    1
    54    15    50    1
    55    15    51    1
    56    18    52    1
    57    20    53    1
    58    23    54    1
    59    25    55    1
    60    25    56    1
    61    26    57    1
    62    28    58    1
    63    29    59    1
    64    32    60    1
    65    34    61    1
    66    34    62    1
    67    35    63    1
    68    35    64    1
