@<TRIPOS>MOLECULE
*****
 50 53 0 0 0
SMALL
GASTEIGER

@<TRIPOS>ATOM
      1 C           0.9488    0.1024   -0.0134 C.3     1  UNL1        0.0790
      2 O           2.3680    0.0551   -0.1017 O.3     1  UNL1       -0.4914
      3 C           2.9988    1.2674   -0.1008 C.ar    1  UNL1        0.1629
      4 C           2.6370    2.3541    0.6863 C.ar    1  UNL1       -0.0162
      5 C           3.4397    3.4996    0.6974 C.ar    1  UNL1       -0.0575
      6 C           4.6740    3.5089    0.0421 C.ar    1  UNL1       -0.0508
      7 C           4.9823    2.4862   -0.8483 C.ar    1  UNL1        0.0222
      8 C           6.1265    2.5563   -1.7562 C.ar    1  UNL1       -0.0290
      9 C           6.3316    1.6341   -2.7169 C.ar    1  UNL1        0.1490
     10 C           7.5539    1.7840   -3.5936 C.2     1  UNL1        0.2591
     11 O           8.2752    2.7630   -3.4032 O.2     1  UNL1       -0.2695
     12 N           7.8162    0.8275   -4.5785 N.am    1  UNL1       -0.2661
     13 C           8.9509    0.9130   -5.3993 C.ar    1  UNL1        0.1251
     14 C          10.1646    1.3477   -4.9136 C.ar    1  UNL1       -0.0215
     15 C          11.1649    1.6279   -5.8264 C.ar    1  UNL1       -0.0571
     16 C          10.9507    1.3617   -7.1728 C.ar    1  UNL1       -0.0435
     17 C           9.7569    0.7606   -7.5404 C.ar    1  UNL1        0.0297
     18 N           8.7388    0.5293   -6.6747 N.ar    1  UNL1       -0.2401
     19 C           5.3849    0.5218   -2.7777 C.ar    1  UNL1        0.3881
     20 N           5.5826   -0.5139   -3.4734 N.2     1  UNL1       -0.1722
     21 C           4.6780   -1.5300   -3.7278 C.ar    1  UNL1        0.2090
     22 C           3.3280   -1.2873   -3.9455 C.ar    1  UNL1        0.0105
     23 C           2.4597   -2.3667   -3.9261 C.ar    1  UNL1       -0.0434
     24 C           2.9557   -3.6685   -3.7689 C.ar    1  UNL1        0.0369
     25 C           2.0488   -4.8285   -3.5799 C.2     1  UNL1        0.2415
     26 N           0.7037   -4.5930   -3.5504 N.am    1  UNL1       -0.3253
     27 O           2.5013   -5.9533   -3.4192 O.2     1  UNL1       -0.2704
     28 C           4.3436   -3.8910   -3.7341 C.ar    1  UNL1       -0.0434
     29 C           5.2142   -2.8127   -3.6994 C.ar    1  UNL1        0.0105
     30 O           4.3313    0.4124   -1.9012 O.2     1  UNL1       -0.3996
     31 C           4.1232    1.3951   -0.9212 C.ar    1  UNL1        0.1830
     32 H           0.5851   -0.9288    0.0341 H       1  UNL1        0.0660
     33 H           0.5450    0.5649   -0.9186 H       1  UNL1        0.0660
     34 H           0.5890    0.6140    0.8830 H       1  UNL1        0.0660
     35 H           1.7586    2.3375    1.3233 H       1  UNL1        0.0655
     36 H           3.1033    4.3895    1.2260 H       1  UNL1        0.0619
     37 H           5.3579    4.3375    0.2125 H       1  UNL1        0.0625
     38 H           6.7872    3.4139   -1.6286 H       1  UNL1        0.0635
     39 H           7.1425    0.3485   -5.1554 H       1  UNL1        0.1566
     40 H          10.3269    1.4739   -3.8504 H       1  UNL1        0.0652
     41 H          12.0990    2.0569   -5.4795 H       1  UNL1        0.0619
     42 H          11.7131    1.5948   -7.9078 H       1  UNL1        0.0633
     43 H           9.5929    0.4457   -8.5694 H       1  UNL1        0.0830
     44 H           6.4771   -0.6536   -3.9323 H       1  UNL1        0.4567
     45 H           2.9346   -0.2934   -4.1504 H       1  UNL1        0.0683
     46 H           1.4004   -2.1581   -4.0100 H       1  UNL1        0.0627
     47 H           0.2502   -3.6984   -3.6406 H       1  UNL1        0.1453
     48 H           0.1001   -5.3910   -3.3979 H       1  UNL1        0.1453
     49 H           4.7501   -4.9005   -3.6760 H       1  UNL1        0.0627
     50 H           6.2754   -2.9914   -3.5206 H       1  UNL1        0.0683
@<TRIPOS>UNITY_ATOM_ATTR
20 1
charge 1
@<TRIPOS>BOND
     1     1     2    1
     2     2     3    1
     3     3     4   ar
     4     4     5   ar
     5     5     6   ar
     6     6     7   ar
     7     7     8   ar
     8     8     9   ar
     9     9    10    1
    10    10    11    2
    11    10    12   am
    12    12    13    1
    13    13    14   ar
    14    14    15   ar
    15    15    16   ar
    16    16    17   ar
    17    17    18   ar
    18    13    18   ar
    19     9    19   ar
    20    19    20    2
    21    20    21    1
    22    21    22   ar
    23    22    23   ar
    24    23    24   ar
    25    24    25    1
    26    25    26   am
    27    25    27    2
    28    24    28   ar
    29    28    29   ar
    30    21    29   ar
    31    19    30   ar
    32    30    31   ar
    33     3    31   ar
    34     7    31   ar
    35     1    32    1
    36     1    33    1
    37     1    34    1
    38     4    35    1
    39     5    36    1
    40     6    37    1
    41     8    38    1
    42    12    39    1
    43    14    40    1
    44    15    41    1
    45    16    42    1
    46    17    43    1
    47    20    44    1
    48    22    45    1
    49    23    46    1
    50    26    47    1
    51    26    48    1
    52    28    49    1
    53    29    50    1
