REMARK  10 active torsions:
REMARK  status: ('A' for Active; 'I' for Inactive)
REMARK    1  A    between atoms: O_2  and  C_3 
REMARK    2  A    between atoms: C_6  and  O_7 
REMARK    3  A    between atoms: O_7  and  C_8 
REMARK    4  A    between atoms: C_8  and  C_9 
REMARK    5  A    between atoms: C_9  and  N_10 
REMARK       I    between atoms: N_10  and  C_11 
REMARK       I    between atoms: C_11  and  N_13 
REMARK    6  A    between atoms: N_13  and  C_14 
REMARK    7  A    between atoms: C_14  and  C_15 
REMARK    8  A    between atoms: C_15  and  N_16 
REMARK    9  A    between atoms: N_16  and  C_17 
REMARK   10  A    between atoms: C_22  and  N_23 
ROOT
ATOM      1  N   UNL d   1       5.771  -7.830   2.619  0.00  0.00    -0.341 N 
ATOM      2  C   UNL d   1       6.596  -8.761   3.213  0.00  0.00     0.316 C 
ATOM      3  O   UNL d   1       7.634  -8.470   3.778  0.00  0.00    -0.247 OA
ATOM      4  N   UNL d   1       6.117 -10.049   3.154  0.00  0.00    -0.342 N 
ATOM      5  H   UNL d   1       4.936  -8.129   2.140  0.00  0.00     0.164 HD
ATOM      6  H   UNL d   1       5.370 -10.269   2.513  0.00  0.00     0.164 HD
ENDROOT
BRANCH   1   7
ATOM      7  C   UNL d   1       6.113  -6.403   2.680  0.00  0.00     0.151 C 
BRANCH   7   8
ATOM      8  C   UNL d   1       5.110  -5.465   1.985  0.00  0.00     0.195 C 
BRANCH   8   9
ATOM      9  O   UNL d   1       5.546  -4.095   2.058  0.00  0.00    -0.350 OA
BRANCH   9  10
ATOM     10  C   UNL d   1       4.687  -3.142   1.561  0.00  0.00     0.069 A 
ATOM     11  C   UNL d   1       5.064  -1.806   1.740  0.00  0.00     0.039 A 
ATOM     12  C   UNL d   1       4.220  -0.761   1.331  0.00  0.00     0.039 A 
ATOM     13  C   UNL d   1       3.021  -1.033   0.669  0.00  0.00     0.068 A 
ATOM     14  C   UNL d   1       2.655  -2.359   0.462  0.00  0.00     0.039 A 
ATOM     15  C   UNL d   1       3.482  -3.405   0.906  0.00  0.00     0.039 A 
BRANCH  13  16
ATOM     16  O   UNL d   1       2.360   0.056   0.173  0.00  0.00    -0.356 OA
ATOM     17  C   UNL d   1       0.942  -0.032   0.092  0.00  0.00     0.210 C 
ENDBRANCH  13  16
ENDBRANCH   9  10
ENDBRANCH   8   9
ENDBRANCH   7   8
ENDBRANCH   1   7
BRANCH   4  18
ATOM     18  C   UNL d   1       6.906 -11.154   3.717  0.00  0.00     0.144 C 
BRANCH  18  19
ATOM     19  C   UNL d   1       6.207 -12.511   3.555  0.00  0.00     0.139 C 
BRANCH  19  20
ATOM     20  N   UNL d   1       7.024 -13.648   3.974  0.00  0.00    -0.386 N 
ATOM     21  H   UNL d   1       7.894 -13.466   4.471  0.00  0.00     0.159 HD
BRANCH  20  22
ATOM     22  C   UNL d   1       6.719 -14.980   3.717  0.00  0.00     0.061 A 
ATOM     23  C   UNL d   1       6.861 -15.880   4.807  0.00  0.00     0.031 A 
ATOM     24  C   UNL d   1       6.630 -17.260   4.688  0.00  0.00     0.002 A 
ATOM     25  C   UNL d   1       6.173 -17.782   3.489  0.00  0.00     0.003 A 
ATOM     26  C   UNL d   1       5.995 -16.931   2.406  0.00  0.00     0.038 A 
ATOM     27  C   UNL d   1       6.270 -15.546   2.503  0.00  0.00     0.129 A 
BRANCH  27  28
ATOM     28  N   UNL d   1       6.153 -14.814   1.229  0.00  0.00    -0.113 N 
ATOM     29  O   UNL d   1       5.401 -15.295   0.367  0.00  0.00    -0.532 OA
ATOM     30  O   UNL d   1       6.833 -13.796   1.038  0.00  0.00    -0.532 OA
ENDBRANCH  27  28
ENDBRANCH  20  22
ENDBRANCH  19  20
ENDBRANCH  18  19
ENDBRANCH   4  18
TORSDOF 10
