REMARK  9 active torsions:
REMARK  status: ('A' for Active; 'I' for Inactive)
REMARK    1  A    between atoms: C_8  and  O_9 
REMARK    2  A    between atoms: O_9  and  C_10 
REMARK    3  A    between atoms: C_10  and  C_11 
REMARK       I    between atoms: C_11  and  N_13 
REMARK    4  A    between atoms: N_13  and  C_14 
REMARK    5  A    between atoms: C_14  and  N_16 
REMARK    6  A    between atoms: N_16  and  N_17 
REMARK       I    between atoms: N_17  and  C_18 
REMARK    7  A    between atoms: C_18  and  C_20 
REMARK    8  A    between atoms: C_23  and  N_24 
REMARK       I    between atoms: N_24  and  C_25 
REMARK    9  A    between atoms: C_25  and  C_27 
ROOT
ATOM      1  N   UNL d   1     -10.099  -0.785  -0.017  0.00  0.00    -0.273 N 
ATOM      2  H   UNL d   1      -9.963  -1.795  -0.019  0.00  0.00     0.189 HD
ENDROOT
BRANCH   1   3
ATOM      3  C   UNL d   1      -9.111   0.217  -0.021  0.00  0.00     0.193 C 
ATOM      4  S   UNL d   1      -9.599   1.837  -0.029  0.00  0.00    -0.039 SA
BRANCH   3   5
ATOM      5  N   UNL d   1      -7.766  -0.214  -0.016  0.00  0.00    -0.301 N 
ATOM      6  C   UNL d   1      -6.637   0.651  -0.015  0.00  0.00     0.248 C 
ATOM      7  O   UNL d   1      -6.705   1.879  -0.018  0.00  0.00    -0.271 OA
ATOM      8  H   UNL d   1      -7.593  -1.212  -0.014  0.00  0.00     0.171 HD
BRANCH   6   9
ATOM      9  C   UNL d   1      -5.242   0.015  -0.009  0.00  0.00     0.278 C 
BRANCH   9  10
ATOM     10  O   UNL d   1      -4.187   0.995  -0.004  0.00  0.00    -0.342 OA
BRANCH  10  11
ATOM     11  C   UNL d   1      -2.862   0.628  -0.004  0.00  0.00     0.075 A 
ATOM     12  C   UNL d   1      -1.954   1.712  -0.001  0.00  0.00     0.039 A 
ATOM     13  C   UNL d   1      -0.563   1.511   0.005  0.00  0.00     0.022 A 
ATOM     14  C   UNL d   1      -0.065   0.217  -0.004  0.00  0.00     0.011 A 
ATOM     15  C   UNL d   1      -0.943  -0.862  -0.012  0.00  0.00     0.028 A 
ATOM     16 BR   UNL d   1       1.797  -0.106  -0.001  0.00  0.00    -0.051 Br
ATOM     17  C   UNL d   1      -2.341  -0.676  -0.005  0.00  0.00    -0.027 A 
ATOM     18  C   UNL d   1      -3.169  -1.921   0.007  0.00  0.00     0.051 C 
ENDBRANCH  10  11
ENDBRANCH   9  10
ENDBRANCH   6   9
ENDBRANCH   3   5
ENDBRANCH   1   3
BRANCH   1  19
ATOM     19  N   UNL d   1     -11.494  -0.359  -0.037  0.00  0.00    -0.264 N 
ATOM     20  C   UNL d   1     -12.556  -1.250   0.040  0.00  0.00     0.270 C 
ATOM     21  O   UNL d   1     -12.404  -2.465   0.106  0.00  0.00    -0.266 OA
ATOM     22  H   UNL d   1     -11.628   0.653  -0.016  0.00  0.00     0.190 HD
BRANCH  20  23
ATOM     23  C   UNL d   1     -13.948  -0.660   0.004  0.00  0.00     0.033 A 
ATOM     24  C   UNL d   1     -15.010  -1.213   0.745  0.00  0.00     0.019 A 
ATOM     25  C   UNL d   1     -16.349  -0.756   0.578  0.00  0.00     0.030 A 
ATOM     26  C   UNL d   1     -16.636   0.310  -0.287  0.00  0.00     0.034 A 
ATOM     27  C   UNL d   1     -15.567   0.825  -1.027  0.00  0.00     0.030 A 
ATOM     28  C   UNL d   1     -14.249   0.365  -0.885  0.00  0.00     0.019 A 
BRANCH  26  29
ATOM     29  N   UNL d   1     -17.952   0.864  -0.384  0.00  0.00    -0.327 N 
ATOM     30  C   UNL d   1     -18.288   1.982  -1.147  0.00  0.00     0.226 C 
ATOM     31  O   UNL d   1     -17.533   2.616  -1.884  0.00  0.00    -0.273 OA
ATOM     32  H   UNL d   1     -18.676   0.452   0.195  0.00  0.00     0.169 HD
BRANCH  30  33
ATOM     33  C   UNL d   1     -19.713   2.436  -1.100  0.00  0.00     0.078 A 
ATOM     34  C   UNL d   1     -20.158   3.677  -1.871  0.00  0.00     0.015 A 
ATOM     35  C   UNL d   1     -20.518   2.315  -2.380  0.00  0.00     0.015 A 
ENDBRANCH  30  33
ENDBRANCH  26  29
ENDBRANCH  20  23
ENDBRANCH   1  19
TORSDOF 9
