@<TRIPOS>MOLECULE
*****
 48 50 0 0 0
SMALL
GASTEIGER

@<TRIPOS>ATOM
      1 C           3.4965   -0.4062   -0.0210 C.3     1  UNL1       -0.0380
      2 C           2.0365   -0.0993   -0.0018 C.ar    1  UNL1       -0.0292
      3 C           1.2404   -1.2592    0.0021 C.ar    1  UNL1       -0.0557
      4 C          -0.1356   -1.1845    0.0144 C.ar    1  UNL1       -0.0430
      5 C          -0.7308    0.0675    0.0105 C.ar    1  UNL1        0.0427
      6 CL         -2.4532    0.1396    0.0039 Cl      1  UNL1       -0.0835
      7 C           0.0447    1.2477    0.0113 C.ar    1  UNL1       -0.0219
      8 C           1.4592    1.1941    0.0154 C.ar    1  UNL1        0.0377
      9 N           2.1882    2.4470    0.0375 N.am    1  UNL1       -0.2839
     10 C           3.5629    2.6320    0.0577 C.2     1  UNL1        0.2343
     11 O           4.4343    1.7558    0.0826 O.2     1  UNL1       -0.2738
     12 C           4.1592    4.0354    0.0741 C.3     1  UNL1        0.0861
     13 N           5.6160    3.8457   -0.1031 N.pl3   1  UNL1       -0.3354
     14 C           6.5919    4.7721    0.1375 C.ar    1  UNL1        0.0275
     15 C           7.7881    4.7120   -0.5866 C.ar    1  UNL1       -0.0401
     16 C           8.7663    5.7030   -0.4386 C.ar    1  UNL1       -0.0479
     17 C           8.5482    6.7897    0.4204 C.ar    1  UNL1        0.0368
     18 C           9.5474    7.9084    0.4396 C.2     1  UNL1        0.2444
     19 O          10.5538    7.8477   -0.2589 O.2     1  UNL1       -0.2702
     20 N           9.2697    8.9991    1.2388 N.am    1  UNL1       -0.3042
     21 C          10.1527   10.1507    1.2867 C.3     1  UNL1        0.0700
     22 C           9.6674   11.1216    2.3095 C.ar    1  UNL1        0.1218
     23 C           8.9850   10.9784    3.5026 C.ar    1  UNL1       -0.0192
     24 C           8.8880   12.2658    4.0778 C.ar    1  UNL1       -0.0236
     25 C           9.5058   13.1231    3.1989 C.ar    1  UNL1        0.0921
     26 O           9.9756   12.4413    2.1190 O.2     1  UNL1       -0.4662
     27 C           7.3808    6.8066    1.1906 C.ar    1  UNL1       -0.0479
     28 C           6.4195    5.8070    1.0454 C.ar    1  UNL1       -0.0401
     29 H           3.7455   -1.4661   -0.0566 H       1  UNL1        0.0278
     30 H           3.9239   -0.0558    0.9246 H       1  UNL1        0.0278
     31 H           3.9185    0.0097   -0.9425 H       1  UNL1        0.0278
     32 H           1.7224   -2.2356   -0.0048 H       1  UNL1        0.0621
     33 H          -0.7124   -2.1044    0.0232 H       1  UNL1        0.0632
     34 H          -0.4903    2.1952    0.0084 H       1  UNL1        0.0651
     35 H           1.6150    3.2851    0.0511 H       1  UNL1        0.1549
     36 H           3.9065    4.5014    1.0289 H       1  UNL1        0.0557
     37 H           3.7915    4.6092   -0.7768 H       1  UNL1        0.0557
     38 H           5.8998    2.8587   -0.0125 H       1  UNL1        0.1466
     39 H           7.9375    3.9224   -1.3232 H       1  UNL1        0.0636
     40 H           9.6828    5.6326   -1.0220 H       1  UNL1        0.0626
     41 H           8.4032    9.0628    1.7433 H       1  UNL1        0.1495
     42 H          10.2004   10.5977    0.2879 H       1  UNL1        0.0543
     43 H          11.1537    9.8012    1.5589 H       1  UNL1        0.0543
     44 H           8.6294   10.0470    3.9177 H       1  UNL1        0.0652
     45 H           8.4395   12.5318    5.0247 H       1  UNL1        0.0649
     46 H           9.6936   14.1888    3.2063 H       1  UNL1        0.1029
     47 H           7.1644    7.5828    1.9110 H       1  UNL1        0.0626
     48 H           5.5295    5.8442    1.6633 H       1  UNL1        0.0636
@<TRIPOS>BOND
     1     1     2    1
     2     2     3   ar
     3     3     4   ar
     4     4     5   ar
     5     5     6    1
     6     5     7   ar
     7     7     8   ar
     8     2     8   ar
     9     8     9    1
    10     9    10   am
    11    10    11    2
    12    10    12    1
    13    12    13    1
    14    13    14    1
    15    14    15   ar
    16    15    16   ar
    17    16    17   ar
    18    17    18    1
    19    18    19    2
    20    18    20   am
    21    20    21    1
    22    21    22    1
    23    22    23   ar
    24    23    24   ar
    25    24    25   ar
    26    25    26   ar
    27    22    26   ar
    28    17    27   ar
    29    27    28   ar
    30    14    28   ar
    31     1    29    1
    32     1    30    1
    33     1    31    1
    34     3    32    1
    35     4    33    1
    36     7    34    1
    37     9    35    1
    38    12    36    1
    39    12    37    1
    40    13    38    1
    41    15    39    1
    42    16    40    1
    43    20    41    1
    44    21    42    1
    45    21    43    1
    46    23    44    1
    47    24    45    1
    48    25    46    1
    49    27    47    1
    50    28    48    1
