REMARK  6 active torsions:
REMARK  status: ('A' for Active; 'I' for Inactive)
REMARK    1  A    between atoms: C_3  and  C_19 
REMARK    2  A    between atoms: C_4  and  C_5 
REMARK    3  A    between atoms: C_8  and  C_9 
REMARK    4  A    between atoms: C_14  and  N_15 
REMARK       I    between atoms: C_19  and  N_21 
REMARK    5  A    between atoms: N_21  and  C_22 
REMARK    6  A    between atoms: C_24  and  C_25 
ROOT
ATOM      1  N   UNL d   1       0.953  -0.037  -0.080  0.00  0.00    -0.096 N 
ATOM      2  C   UNL d   1       2.214  -0.037  -0.080  0.00  0.00     0.025 C 
ATOM      3  C   UNL d   1       3.734  -0.037  -0.080  0.00  0.00     0.101 C 
ATOM      4  C   UNL d   1       4.369  -0.783  -1.016  0.00  0.00     0.064 C 
ENDROOT
BRANCH   3   5
ATOM      5  C   UNL d   1       4.429   0.830   0.927  0.00  0.00     0.265 C 
ATOM      6  O   UNL d   1       3.741   1.589   1.610  0.00  0.00    -0.267 OA
ATOM      7  N   UNL d   1       5.819   0.812   0.990  0.00  0.00    -0.321 N 
ATOM      8  H   UNL d   1       6.369   0.438   0.228  0.00  0.00     0.169 HD
BRANCH   7   9
ATOM      9  C   UNL d   1       6.562   1.395   2.064  0.00  0.00     0.057 A 
ATOM     10  C   UNL d   1       7.807   2.003   1.779  0.00  0.00     0.047 A 
ATOM     11  C   UNL d   1       8.660   2.440   2.822  0.00  0.00     0.050 A 
ATOM     12  C   UNL d   1       8.210   2.366   4.145  0.00  0.00     0.018 A 
ATOM     13  C   UNL d   1       6.986   1.777   4.435  0.00  0.00     0.027 A 
ATOM     14  C   UNL d   1       6.176   1.271   3.416  0.00  0.00     0.060 A 
ATOM     15 CL   UNL d   1       4.839   0.313   3.964  0.00  0.00    -0.082 Cl
BRANCH  11  16
ATOM     16  C   UNL d   1      10.089   2.868   2.565  0.00  0.00     0.417 C 
ATOM     17  F   UNL d   1      10.793   1.898   1.916  0.00  0.00    -0.166 F 
ATOM     18  F   UNL d   1      10.197   3.989   1.806  0.00  0.00    -0.166 F 
ATOM     19  F   UNL d   1      10.789   3.118   3.709  0.00  0.00    -0.166 F 
ENDBRANCH  11  16
ENDBRANCH   7   9
ENDBRANCH   3   5
BRANCH   4  20
ATOM     20  C   UNL d   1       3.594  -1.454  -2.017  0.00  0.00     0.077 C 
ATOM     21  C   UNL d   1       2.553  -0.903  -2.757  0.00  0.00     0.040 C 
ATOM     22  C   UNL d   1       1.879  -1.944  -3.398  0.00  0.00     0.041 C 
ATOM     23  C   UNL d   1       2.679  -3.049  -3.257  0.00  0.00     0.088 C 
ATOM     24  O   UNL d   1       3.716  -2.782  -2.400  0.00  0.00    -0.310 OA
BRANCH  23  25
ATOM     25  C   UNL d   1       2.650  -4.309  -3.983  0.00  0.00     0.031 A 
ATOM     26  C   UNL d   1       2.406  -5.512  -3.289  0.00  0.00     0.017 A 
ATOM     27  C   UNL d   1       2.285  -6.729  -3.976  0.00  0.00     0.001 A 
ATOM     28  C   UNL d   1       2.331  -6.758  -5.366  0.00  0.00     0.002 A 
ATOM     29  C   UNL d   1       2.546  -5.579  -6.074  0.00  0.00     0.037 A 
ATOM     30  C   UNL d   1       2.716  -4.355  -5.396  0.00  0.00     0.115 A 
BRANCH  30  31
ATOM     31  N   UNL d   1       2.932  -3.162  -6.254  0.00  0.00    -0.115 N 
ATOM     32  O   UNL d   1       2.812  -3.311  -7.474  0.00  0.00    -0.532 OA
ATOM     33  O   UNL d   1       3.237  -2.075  -5.741  0.00  0.00    -0.532 OA
ENDBRANCH  30  31
ENDBRANCH  23  25
ENDBRANCH   4  20
TORSDOF 6
