@<TRIPOS>MOLECULE
*****
 31 32 0 0 0
SMALL
GASTEIGER

@<TRIPOS>ATOM
      1 C           1.9047    1.5012   -0.0163 C.3     1  UNL1       -0.0395
      2 C           0.6392    0.7034    0.0290 C.ar    1  UNL1       -0.0475
      3 C          -0.5660    1.3940    0.0862 C.ar    1  UNL1       -0.0583
      4 C          -1.7603    0.6977    0.1368 C.ar    1  UNL1       -0.0580
      5 C          -1.8083   -0.7008    0.0443 C.ar    1  UNL1       -0.0426
      6 C          -3.1295   -1.4513   -0.0879 C.3     1  UNL1        0.0035
      7 C          -4.3482   -0.5671   -0.1874 C.ar    1  UNL1        0.0297
      8 C          -4.5515    0.3211   -1.1917 C.ar    1  UNL1       -0.0285
      9 O          -3.9491    0.5890   -2.2536 O.co2   1  UNL1       -0.8613
     10 N          -5.5562    1.2271   -1.0709 N.ar    1  UNL1       -0.3481
     11 C          -6.4755    1.2553   -0.0773 C.ar    1  UNL1        0.1575
     12 S          -7.7252    2.3571   -0.0475 S.2     1  UNL1       -0.0130
     13 N          -6.3335    0.3147    0.8995 N.ar    1  UNL1       -0.3026
     14 C          -5.3131   -0.5992    0.9461 C.ar    1  UNL1        0.2549
     15 O          -5.2253   -1.3910    1.8850 O.2     1  UNL1       -0.2675
     16 C          -0.5970   -1.3977    0.0130 C.ar    1  UNL1       -0.0551
     17 C           0.6285   -0.7070    0.0224 C.ar    1  UNL1       -0.0473
     18 C           1.9092   -1.4860    0.0214 C.3     1  UNL1       -0.0395
     19 H           1.6944    2.5769   -0.0317 H       1  UNL1        0.0278
     20 H           2.4719    1.2649   -0.9206 H       1  UNL1        0.0278
     21 H           2.5031    1.2932    0.8739 H       1  UNL1        0.0278
     22 H          -0.6110    2.4789    0.0621 H       1  UNL1        0.0620
     23 H          -2.6674    1.2943    0.1623 H       1  UNL1        0.0620
     24 H          -3.2026   -2.1325    0.7700 H       1  UNL1        0.0363
     25 H          -3.0932   -2.0933   -0.9787 H       1  UNL1        0.0363
     26 H          -5.5482    1.9157   -1.8126 H       1  UNL1        0.1666
     27 H          -7.0012    0.2898    1.6486 H       1  UNL1        0.1708
     28 H          -0.6127   -2.4841   -0.0398 H       1  UNL1        0.0623
     29 H           1.7227   -2.5644    0.0249 H       1  UNL1        0.0278
     30 H           2.4838   -1.2462    0.9215 H       1  UNL1        0.0278
     31 H           2.5000   -1.2492   -0.8682 H       1  UNL1        0.0278
@<TRIPOS>UNITY_ATOM_ATTR
9 1
charge -1
@<TRIPOS>BOND
     1     1     2    1
     2     2     3   ar
     3     3     4   ar
     4     4     5   ar
     5     5     6    1
     6     6     7    1
     7     7     8   ar
     8     8     9    1
     9     8    10   ar
    10    10    11   ar
    11    11    12    2
    12    11    13   ar
    13    13    14   ar
    14     7    14   ar
    15    14    15    2
    16     5    16   ar
    17    16    17   ar
    18     2    17   ar
    19    17    18    1
    20     1    19    1
    21     1    20    1
    22     1    21    1
    23     3    22    1
    24     4    23    1
    25     6    24    1
    26     6    25    1
    27    10    26    1
    28    13    27    1
    29    16    28    1
    30    18    29    1
    31    18    30    1
    32    18    31    1
