@<TRIPOS>MOLECULE
*****
 55 56 0 0 0
SMALL
GASTEIGER

@<TRIPOS>ATOM
      1 C           0.9173    0.0605    0.0262 C.3     1  UNL1        0.0366
      2 O           2.3382    0.0615    0.0389 O.3     1  UNL1       -0.3796
      3 C           2.8364    0.8462    1.1127 C.3     1  UNL1        0.0813
      4 C           4.3565    0.8387    1.0842 C.3     1  UNL1        0.1128
      5 O           4.8040    1.6199    2.1912 O.3     1  UNL1       -0.4889
      6 C           6.1651    1.6196    2.3197 C.ar    1  UNL1        0.1328
      7 C           7.0077    2.0463    1.2796 C.ar    1  UNL1       -0.0181
      8 C           8.3828    2.2115    1.4844 C.ar    1  UNL1       -0.0443
      9 C           8.9185    1.9829    2.7410 C.ar    1  UNL1        0.0188
     10 BR         10.7394    2.3639    3.0801 Br      1  UNL1       -0.0503
     11 C           8.1024    1.4882    3.7551 C.ar    1  UNL1       -0.0321
     12 C           6.7138    1.2760    3.5502 C.ar    1  UNL1        0.0797
     13 C           5.9483    0.6443    4.6731 C.2     1  UNL1        0.2531
     14 O           6.6517    0.2906    5.6198 O.2     1  UNL1       -0.2697
     15 N           4.5287    0.5903    4.6817 N.am    1  UNL1       -0.2635
     16 C           3.7105    0.0922    5.7352 C.2     1  UNL1        0.1411
     17 S           4.2956   -0.7160    7.0939 S.2     1  UNL1       -0.0182
     18 N           2.3352    0.4350    5.5791 N.am    1  UNL1       -0.2960
     19 C           1.3715    0.3138    6.6553 C.ar    1  UNL1        0.0448
     20 C           0.2903   -0.5876    6.5104 C.ar    1  UNL1       -0.0398
     21 C          -0.6610   -0.7595    7.5342 C.ar    1  UNL1       -0.0600
     22 C          -0.5256   -0.0689    8.7325 C.ar    1  UNL1       -0.0609
     23 C           0.5242    0.8391    8.8834 C.ar    1  UNL1       -0.0478
     24 C           1.4656    1.0674    7.8523 C.ar    1  UNL1        0.0578
     25 C           2.4985    2.1293    8.1283 C.2     1  UNL1        0.2459
     26 O           2.6624    2.5466    9.2823 O.2     1  UNL1       -0.2701
     27 N           3.2400    2.6194    7.0727 N.am    1  UNL1       -0.3112
     28 C           4.5032    3.3070    7.2939 C.3     1  UNL1        0.0140
     29 C           5.3754    3.3453    6.0552 C.3     1  UNL1       -0.0141
     30 C           6.6308    4.1762    6.1860 C.3     1  UNL1        0.0456
     31 O           7.3231    4.1859    4.9444 O.3     1  UNL1       -0.3950
     32 H           0.5788   -0.5448   -0.8173 H       1  UNL1        0.0524
     33 H           0.5384    1.0801   -0.0936 H       1  UNL1        0.0524
     34 H           0.5337   -0.3765    0.9532 H       1  UNL1        0.0524
     35 H           2.4807    0.4428    2.0690 H       1  UNL1        0.0593
     36 H           2.4707    1.8776    1.0338 H       1  UNL1        0.0593
     37 H           4.6987    1.2531    0.1308 H       1  UNL1        0.0720
     38 H           4.7294   -0.1884    1.1787 H       1  UNL1        0.0720
     39 H           6.6133    2.2736    0.2941 H       1  UNL1        0.0655
     40 H           9.0194    2.5402    0.6664 H       1  UNL1        0.0630
     41 H           8.5410    1.3213    4.7408 H       1  UNL1        0.0637
     42 H           4.0806    1.0882    3.9209 H       1  UNL1        0.1568
     43 H           1.9354    0.3696    4.6492 H       1  UNL1        0.1539
     44 H           0.2041   -1.2353    5.6405 H       1  UNL1        0.0636
     45 H          -1.4986   -1.4472    7.4130 H       1  UNL1        0.0618
     46 H          -1.2264   -0.2346    9.5507 H       1  UNL1        0.0618
     47 H           0.6052    1.3844    9.8239 H       1  UNL1        0.0626
     48 H           3.0641    2.2129    6.1658 H       1  UNL1        0.1490
     49 H           5.0491    2.7617    8.0752 H       1  UNL1        0.0463
     50 H           4.2792    4.3122    7.6444 H       1  UNL1        0.0463
     51 H           4.8314    3.5355    5.1203 H       1  UNL1        0.0302
     52 H           5.7571    2.3469    5.9850 H       1  UNL1        0.0302
     53 H           7.2940    3.7376    6.9404 H       1  UNL1        0.0557
     54 H           6.4033    5.2076    6.4409 H       1  UNL1        0.0557
     55 H           7.9064    3.4102    4.9628 H       1  UNL1        0.2094
@<TRIPOS>BOND
     1     1     2    1
     2     2     3    1
     3     3     4    1
     4     4     5    1
     5     5     6    1
     6     6     7   ar
     7     7     8   ar
     8     8     9   ar
     9     9    10    1
    10     9    11   ar
    11    11    12   ar
    12     6    12   ar
    13    12    13    1
    14    13    14    2
    15    13    15   am
    16    15    16    1
    17    16    17    2
    18    16    18    1
    19    18    19    1
    20    19    20   ar
    21    20    21   ar
    22    21    22   ar
    23    22    23   ar
    24    23    24   ar
    25    19    24   ar
    26    24    25    1
    27    25    26    2
    28    25    27   am
    29    27    28    1
    30    28    29    1
    31    29    30    1
    32    30    31    1
    33     1    32    1
    34     1    33    1
    35     1    34    1
    36     3    35    1
    37     3    36    1
    38     4    37    1
    39     4    38    1
    40     7    39    1
    41     8    40    1
    42    11    41    1
    43    15    42    1
    44    18    43    1
    45    20    44    1
    46    21    45    1
    47    22    46    1
    48    23    47    1
    49    27    48    1
    50    28    49    1
    51    28    50    1
    52    29    51    1
    53    29    52    1
    54    30    53    1
    55    30    54    1
    56    31    55    1
