REMARK  12 active torsions:
REMARK  status: ('A' for Active; 'I' for Inactive)
REMARK    1  A    between atoms: C_2  and  O_3 
REMARK    2  A    between atoms: O_3  and  C_4 
REMARK    3  A    between atoms: C_6  and  C_7 
REMARK    4  A    between atoms: C_9  and  N_10 
REMARK    5  A    between atoms: C_13  and  C_14 
REMARK    6  A    between atoms: C_14  and  C_15 
REMARK    7  A    between atoms: C_25  and  O_26 
REMARK    8  A    between atoms: O_26  and  C_27 
REMARK    9  A    between atoms: C_27  and  C_28 
REMARK   10  A    between atoms: C_28  and  O_29 
REMARK   11  A    between atoms: O_29  and  C_30 
REMARK   12  A    between atoms: C_33  and  O_34 
ROOT
ATOM      1  C   UNL d   1       4.141   1.296   0.677  0.00  0.00     0.102 C 
ATOM      2  C   UNL d   1       4.723   1.754   1.876  0.00  0.00     0.051 C 
ATOM      3  C   UNL d   1       6.101   2.022   1.932  0.00  0.00    -0.032 C 
ATOM      4  C   UNL d   1       6.907   1.594   0.909  0.00  0.00     0.014 C 
ATOM      5  C   UNL d   1       6.364   1.346  -0.320  0.00  0.00     0.040 C 
ATOM      6  C   UNL d   1       4.992   1.195  -0.468  0.00  0.00     0.102 C 
ENDROOT
BRANCH   3   7
ATOM      7  C   UNL d   1       6.703   2.821   2.985  0.00  0.00     0.032 C 
ATOM      8  C   UNL d   1       7.892   3.469   3.030  0.00  0.00     0.082 C 
ATOM      9  C   UNL d   1       8.040   4.137   4.329  0.00  0.00     0.162 C 
ATOM     10  C   UNL d   1       9.100   3.669   2.049  0.00  0.00     0.283 C 
ATOM     11  N   UNL d   1       9.290   4.520   4.626  0.00  0.00    -0.189 N 
ATOM     12  N   UNL d   1       9.461   4.891   5.909  0.00  0.00    -0.161 NA
ATOM     13  C   UNL d   1      10.281   4.741   3.736  0.00  0.00     0.201 C 
ATOM     14  C   UNL d   1      10.293   5.775   6.008  0.00  0.00     0.099 C 
ATOM     15  S   UNL d   1      11.411   5.867   4.577  0.00  0.00    -0.033 SA
ATOM     16  N   UNL d   1      10.286   4.288   2.514  0.00  0.00    -0.182 NA
ATOM     17  O   UNL d   1       8.970   3.427   0.850  0.00  0.00    -0.265 OA
BRANCH   9  18
ATOM     18  N   UNL d   1       7.154   4.391   5.255  0.00  0.00    -0.281 NA
ATOM     19  H   UNL d   1       6.226   4.032   5.166  0.00  0.00     0.188 HD
ENDBRANCH   9  18
BRANCH  14  20
ATOM     20  C   UNL d   1      10.252   6.547   7.349  0.00  0.00     0.072 C 
BRANCH  20  21
ATOM     21  C   UNL d   1       8.927   6.558   8.323  0.00  0.00    -0.017 C 
ATOM     22  C   UNL d   1       8.393   5.211   8.870  0.00  0.00     0.010 C 
ATOM     23  C   UNL d   1       9.250   7.393   9.596  0.00  0.00     0.010 C 
ENDBRANCH  20  21
ENDBRANCH  14  20
ENDBRANCH   3   7
BRANCH   1  24
ATOM     24  O   UNL d   1       2.758   1.225   0.761  0.00  0.00    -0.349 OA
BRANCH  24  25
ATOM     25  C   UNL d   1       2.124  -0.016   0.450  0.00  0.00     0.171 C 
ATOM     26  C   UNL d   1       0.619   0.039   0.332  0.00  0.00     0.034 C 
ENDBRANCH  24  25
ENDBRANCH   1  24
BRANCH   6  27
ATOM     27  O   UNL d   1       4.763   0.962  -1.816  0.00  0.00    -0.346 OA
BRANCH  27  28
ATOM     28  C   UNL d   1       3.519   0.381  -1.986  0.00  0.00     0.202 C 
BRANCH  28  29
ATOM     29  C   UNL d   1       3.044  -0.165  -3.299  0.00  0.00     0.202 C 
BRANCH  29  30
ATOM     30  O   UNL d   1       1.624  -0.437  -3.161  0.00  0.00    -0.349 OA
BRANCH  30  31
ATOM     31  C   UNL d   1       1.106  -1.086  -4.248  0.00  0.00     0.069 A 
ATOM     32  C   UNL d   1      -0.135  -0.692  -4.749  0.00  0.00     0.039 A 
ATOM     33  C   UNL d   1      -0.646  -1.316  -5.898  0.00  0.00     0.039 A 
ATOM     34  C   UNL d   1       0.098  -2.297  -6.564  0.00  0.00     0.068 A 
ATOM     35  C   UNL d   1       1.298  -2.726  -6.009  0.00  0.00     0.039 A 
ATOM     36  C   UNL d   1       1.780  -2.146  -4.844  0.00  0.00     0.039 A 
BRANCH  34  37
ATOM     37  O   UNL d   1      -0.421  -2.767  -7.741  0.00  0.00    -0.356 OA
ATOM     38  C   UNL d   1       0.420  -3.654  -8.479  0.00  0.00     0.210 C 
ENDBRANCH  34  37
ENDBRANCH  30  31
ENDBRANCH  29  30
ENDBRANCH  28  29
ENDBRANCH  27  28
ENDBRANCH   6  27
TORSDOF 12
