REMARK  15 active torsions:
REMARK  status: ('A' for Active; 'I' for Inactive)
REMARK    1  A    between atoms: C_2  and  C_3 
REMARK    2  A    between atoms: C_3  and  C_4 
REMARK    3  A    between atoms: C_6  and  C_7 
REMARK    4  A    between atoms: N_8  and  N_9 
REMARK       I    between atoms: N_9  and  C_10 
REMARK    5  A    between atoms: C_10  and  C_12 
REMARK    6  A    between atoms: C_12  and  C_13 
REMARK    7  A    between atoms: C_14  and  C_13 
REMARK    8  A    between atoms: C_14  and  C_16 
REMARK    9  A    between atoms: C_14  and  O_15 
REMARK   10  A    between atoms: C_19  and  O_20 
REMARK   11  A    between atoms: O_20  and  C_21 
REMARK   12  A    between atoms: C_26  and  O_27 
REMARK   13  A    between atoms: C_29  and  O_30 
REMARK   14  A    between atoms: O_30  and  C_31 
REMARK   15  A    between atoms: C_31  and  C_32 
ROOT
ATOM      1  C   UNL d   1      14.230   7.811   2.987  0.00  0.00     0.150 C 
ATOM      2  N   UNL d   1      13.929   6.614   3.406  0.00  0.00    -0.184 NA
ENDROOT
BRANCH   1   3
ATOM      3  C   UNL d   1      14.752   8.262   1.672  0.00  0.00    -0.014 C 
ATOM      4  C   UNL d   1      15.192   9.571   1.540  0.00  0.00     0.023 C 
ATOM      5  C   UNL d   1      15.928   9.978   0.405  0.00  0.00    -0.018 C 
ATOM      6  C   UNL d   1      16.250   9.013  -0.586  0.00  0.00     0.109 C 
ATOM      7  C   UNL d   1      15.762   7.709  -0.453  0.00  0.00     0.102 C 
ATOM      8  C   UNL d   1      14.906   7.415   0.592  0.00  0.00     0.052 C 
BRANCH   5   9
ATOM      9  C   UNL d   1      16.489  11.377   0.392  0.00  0.00     0.068 C 
BRANCH   9  10
ATOM     10  C   UNL d   1      15.745  12.472   1.062  0.00  0.00    -0.032 C 
ATOM     11  C   UNL d   1      16.156  13.737   0.914  0.00  0.00     0.007 C 
ENDBRANCH   9  10
ENDBRANCH   5   9
BRANCH   6  12
ATOM     12  O   UNL d   1      16.991   9.203  -1.712  0.00  0.00    -0.343 OA
BRANCH  12  13
ATOM     13  C   UNL d   1      17.355  10.492  -2.125  0.00  0.00     0.214 C 
BRANCH  13  14
ATOM     14  C   UNL d   1      18.109  10.506  -3.403  0.00  0.00    -0.034 C 
ATOM     15  C   UNL d   1      17.953   9.510  -4.359  0.00  0.00     0.009 C 
ATOM     16  C   UNL d   1      18.770   9.502  -5.472  0.00  0.00     0.001 C 
ATOM     17  C   UNL d   1      19.638  10.570  -5.692  0.00  0.00     0.000 C 
ATOM     18  C   UNL d   1      19.728  11.621  -4.779  0.00  0.00     0.001 C 
ATOM     19  C   UNL d   1      18.966  11.587  -3.627  0.00  0.00     0.009 C 
ENDBRANCH  13  14
ENDBRANCH  12  13
ENDBRANCH   6  12
BRANCH   7  20
ATOM     20  O   UNL d   1      16.018   6.590  -1.208  0.00  0.00    -0.353 OA
ATOM     21  C   UNL d   1      16.850   6.747  -2.342  0.00  0.00     0.210 C 
ENDBRANCH   7  20
ENDBRANCH   1   3
BRANCH   2  22
ATOM     22  N   UNL d   1      14.138   5.544   2.596  0.00  0.00    -0.247 N 
ATOM     23  C   UNL d   1      13.745   4.274   2.935  0.00  0.00     0.237 C 
ATOM     24  O   UNL d   1      13.276   3.938   4.026  0.00  0.00    -0.272 OA
ATOM     25  H   UNL d   1      14.881   5.592   1.915  0.00  0.00     0.192 HD
BRANCH  23  26
ATOM     26  C   UNL d   1      13.946   3.310   1.781  0.00  0.00     0.107 C 
BRANCH  26  27
ATOM     27  C   UNL d   1      13.629   1.893   2.240  0.00  0.00     0.046 C 
BRANCH  27  28
ATOM     28  C   UNL d   1      14.055   0.823   1.241  0.00  0.00     0.151 C 
BRANCH  28  29
ATOM     29  C   UNL d   1      15.475   0.330   1.466  0.00  0.00    -0.029 A 
ATOM     30  C   UNL d   1      16.559   1.214   1.608  0.00  0.00     0.012 A 
ATOM     31  C   UNL d   1      17.873   0.757   1.671  0.00  0.00     0.037 A 
ATOM     32  C   UNL d   1      18.130  -0.605   1.710  0.00  0.00     0.068 A 
ATOM     33  C   UNL d   1      17.068  -1.500   1.601  0.00  0.00     0.037 A 
ATOM     34  C   UNL d   1      15.759  -1.038   1.466  0.00  0.00     0.012 A 
BRANCH  32  35
ATOM     35  O   UNL d   1      19.443  -0.943   1.879  0.00  0.00    -0.352 OA
BRANCH  35  36
ATOM     36  C   UNL d   1      19.691  -2.334   2.062  0.00  0.00     0.171 C 
ATOM     37  C   UNL d   1      21.166  -2.529   2.341  0.00  0.00     0.034 C 
ENDBRANCH  35  36
ENDBRANCH  32  35
ENDBRANCH  28  29
BRANCH  28  38
ATOM     38  O   UNL d   1      13.116  -0.253   1.348  0.00  0.00    -0.391 OA
ATOM     39  H   UNL d   1      13.202  -0.616   2.247  0.00  0.00     0.210 HD
ENDBRANCH  28  38
ENDBRANCH  27  28
ENDBRANCH  26  27
ENDBRANCH  23  26
ENDBRANCH   2  22
TORSDOF 15
