REMARK  9 active torsions:
REMARK  status: ('A' for Active; 'I' for Inactive)
REMARK    1  A    between atoms: C_2  and  C_3 
REMARK    2  A    between atoms: C_3  and  C_4 
REMARK    3  A    between atoms: C_4  and  N_5 
REMARK    4  A    between atoms: N_5  and  C_6 
REMARK       I    between atoms: N_5  and  C_9 
REMARK    5  A    between atoms: C_6  and  C_7 
REMARK    6  A    between atoms: C_7  and  O_8 
REMARK       I    between atoms: C_9  and  N_11 
REMARK    7  A    between atoms: N_11  and  C_12 
REMARK    8  A    between atoms: C_15  and  N_16 
REMARK       I    between atoms: N_16  and  C_17 
REMARK    9  A    between atoms: C_17  and  C_19 
ROOT
ATOM      1  N   UNL d   1       5.094  -1.529   2.540  0.00  0.00    -0.332 N 
ATOM      2  C   UNL d   1       6.501  -1.620   2.689  0.00  0.00     0.322 C 
ATOM      3  O   UNL d   1       7.242  -1.106   1.857  0.00  0.00    -0.247 OA
ATOM      4  N   UNL d   1       6.979  -2.347   3.782  0.00  0.00    -0.309 N 
ATOM      5  H   UNL d   1       6.351  -2.911   4.327  0.00  0.00     0.170 HD
ENDROOT
BRANCH   4   6
ATOM      6  C   UNL d   1       8.366  -2.456   4.097  0.00  0.00     0.036 A 
ATOM      7  C   UNL d   1       8.935  -3.619   4.644  0.00  0.00     0.032 A 
ATOM      8  C   UNL d   1      10.318  -3.671   4.990  0.00  0.00     0.032 A 
ATOM      9  C   UNL d   1      11.152  -2.562   4.777  0.00  0.00     0.034 A 
ATOM     10  C   UNL d   1      10.539  -1.409   4.287  0.00  0.00     0.032 A 
ATOM     11  C   UNL d   1       9.191  -1.357   3.936  0.00  0.00     0.032 A 
BRANCH   9  12
ATOM     12  N   UNL d   1      12.565  -2.619   5.016  0.00  0.00    -0.327 N 
ATOM     13  C   UNL d   1      13.437  -1.563   4.735  0.00  0.00     0.221 C 
ATOM     14  O   UNL d   1      13.100  -0.469   4.301  0.00  0.00    -0.273 OA
ATOM     15  H   UNL d   1      12.952  -3.500   5.329  0.00  0.00     0.169 HD
BRANCH  13  16
ATOM     16  C   UNL d   1      14.919  -1.803   4.986  0.00  0.00     0.098 C 
ATOM     17  C   UNL d   1      15.682  -0.513   4.646  0.00  0.00     0.014 C 
ENDBRANCH  13  16
ENDBRANCH   9  12
ENDBRANCH   4   6
BRANCH   1  18
ATOM     18  C   UNL d   1       4.670  -0.783   1.300  0.00  0.00     0.127 C 
BRANCH  18  19
ATOM     19  C   UNL d   1       3.183  -0.636   1.043  0.00  0.00     0.020 C 
BRANCH  19  20
ATOM     20  C   UNL d   1       2.611   0.076  -0.161  0.00  0.00    -0.003 C 
ATOM     21  C   UNL d   1       1.078   0.004  -0.039  0.00  0.00     0.005 C 
ENDBRANCH  19  20
ENDBRANCH  18  19
ENDBRANCH   1  18
BRANCH   1  22
ATOM     22  C   UNL d   1       4.158  -2.098   3.545  0.00  0.00     0.153 C 
BRANCH  22  23
ATOM     23  C   UNL d   1       2.638  -1.987   3.385  0.00  0.00     0.184 C 
BRANCH  23  24
ATOM     24  O   UNL d   1       1.915  -2.623   4.427  0.00  0.00    -0.399 OA
ATOM     25  H   UNL d   1       1.796  -3.546   4.147  0.00  0.00     0.209 HD
ENDBRANCH  23  24
ENDBRANCH  22  23
ENDBRANCH   1  22
TORSDOF 9
