@<TRIPOS>MOLECULE
*****
 52 53 0 0 0
SMALL
GASTEIGER

@<TRIPOS>ATOM
      1 C           0.9438    0.0627   -0.0422 C.3     1  UNL1       -0.0416
      2 C           2.4593    0.0713   -0.0513 C.3     1  UNL1        0.0450
      3 O           2.9425   -0.8696    0.9085 O.3     1  UNL1       -0.3767
      4 C           4.3721   -0.8777    0.9397 C.3     1  UNL1        0.0817
      5 C           4.8731   -1.8820    1.9798 C.3     1  UNL1        0.1128
      6 O           6.2975   -1.7931    2.0467 O.3     1  UNL1       -0.4897
      7 C           6.9606   -2.7266    2.7935 C.ar    1  UNL1        0.1207
      8 C           8.1704   -2.3027    3.3325 C.ar    1  UNL1       -0.0192
      9 C           9.0146   -3.2199    3.9757 C.ar    1  UNL1       -0.0462
     10 C           8.6436   -4.5730    4.1707 C.ar    1  UNL1        0.0373
     11 C           9.5794   -5.4437    4.9753 C.2     1  UNL1        0.2495
     12 O          10.6087   -4.8725    5.3533 O.2     1  UNL1       -0.2698
     13 N           9.2834   -6.7957    5.2930 N.am    1  UNL1       -0.2627
     14 C          10.0737   -7.6717    6.0840 C.2     1  UNL1        0.1533
     15 S          11.5433   -7.2699    6.8140 S.2     1  UNL1       -0.0170
     16 N           9.5605   -8.9735    6.2524 N.am    1  UNL1       -0.2454
     17 N          10.3214   -9.9418    7.0440 N.am    1  UNL1       -0.2323
     18 C           9.8725  -11.2464    7.2278 C.2     1  UNL1        0.2667
     19 O           8.8051  -11.6182    6.7375 O.2     1  UNL1       -0.2705
     20 C          10.7979  -12.1751    8.0893 C.3     1  UNL1        0.1666
     21 O          10.2931  -13.5154    8.0970 O.3     1  UNL1       -0.4827
     22 C          10.8285  -14.4622    8.9286 C.ar    1  UNL1        0.1213
     23 C          10.6871  -15.7852    8.4826 C.ar    1  UNL1       -0.0189
     24 C          11.0321  -16.8700    9.2985 C.ar    1  UNL1       -0.0443
     25 C          11.5896  -16.6336   10.5492 C.ar    1  UNL1        0.0181
     26 BR         12.1577  -18.0897   11.6149 Br      1  UNL1       -0.0503
     27 C          11.7553  -15.3250   11.0024 C.ar    1  UNL1       -0.0443
     28 C          11.3708  -14.2386   10.1940 C.ar    1  UNL1       -0.0189
     29 C           7.4237   -4.9834    3.6325 C.ar    1  UNL1       -0.0462
     30 C           6.5909   -4.0644    2.9499 C.ar    1  UNL1       -0.0192
     31 H           0.5507    0.7763   -0.7724 H       1  UNL1        0.0252
     32 H           0.5605    0.3259    0.9490 H       1  UNL1        0.0252
     33 H           0.5600   -0.9342   -0.2815 H       1  UNL1        0.0252
     34 H           2.8227    1.0736    0.2011 H       1  UNL1        0.0557
     35 H           2.8232   -0.2024   -1.0476 H       1  UNL1        0.0557
     36 H           4.7452    0.1255    1.1772 H       1  UNL1        0.0594
     37 H           4.7577   -1.1496   -0.0511 H       1  UNL1        0.0594
     38 H           4.5244   -2.8771    1.6870 H       1  UNL1        0.0720
     39 H           4.4509   -1.6386    2.9612 H       1  UNL1        0.0720
     40 H           8.4638   -1.2562    3.2548 H       1  UNL1        0.0654
     41 H           9.9844   -2.8561    4.3202 H       1  UNL1        0.0626
     42 H           8.4134   -7.1658    4.9418 H       1  UNL1        0.1569
     43 H           8.6897   -9.3355    5.8650 H       1  UNL1        0.1718
     44 H          11.1988   -9.5902    7.4277 H       1  UNL1        0.1729
     45 H          10.8553  -11.7568    9.0998 H       1  UNL1        0.0795
     46 H          11.7970  -12.1966    7.6389 H       1  UNL1        0.0795
     47 H          10.2971  -15.9785    7.4856 H       1  UNL1        0.0654
     48 H          10.8514  -17.8854    8.9536 H       1  UNL1        0.0630
     49 H          12.1626  -15.1419   11.9945 H       1  UNL1        0.0630
     50 H          11.4771  -13.2406   10.6020 H       1  UNL1        0.0654
     51 H           7.0928   -6.0117    3.6992 H       1  UNL1        0.0626
     52 H           5.6654   -4.4366    2.5234 H       1  UNL1        0.0654
@<TRIPOS>BOND
     1     1     2    1
     2     2     3    1
     3     3     4    1
     4     4     5    1
     5     5     6    1
     6     6     7    1
     7     7     8   ar
     8     8     9   ar
     9     9    10   ar
    10    10    11    1
    11    11    12    2
    12    11    13   am
    13    13    14    1
    14    14    15    2
    15    14    16    1
    16    16    17    1
    17    17    18   am
    18    18    19    2
    19    18    20    1
    20    20    21    1
    21    21    22    1
    22    22    23   ar
    23    23    24   ar
    24    24    25   ar
    25    25    26    1
    26    25    27   ar
    27    27    28   ar
    28    22    28   ar
    29    10    29   ar
    30    29    30   ar
    31     7    30   ar
    32     1    31    1
    33     1    32    1
    34     1    33    1
    35     2    34    1
    36     2    35    1
    37     4    36    1
    38     4    37    1
    39     5    38    1
    40     5    39    1
    41     8    40    1
    42     9    41    1
    43    13    42    1
    44    16    43    1
    45    17    44    1
    46    20    45    1
    47    20    46    1
    48    23    47    1
    49    24    48    1
    50    27    49    1
    51    28    50    1
    52    29    51    1
    53    30    52    1
