@<TRIPOS>MOLECULE
*****
 56 56 0 0 0
SMALL
GASTEIGER

@<TRIPOS>ATOM
      1 C           0.5715    0.4316    0.1110 C.3     1  UNL1       -0.0612
      2 C           2.0631    0.4341    0.0686 C.3     1  UNL1       -0.0309
      3 C           2.1927   -0.8314   -0.6963 C.3     1  UNL1       -0.0612
      4 C           2.9390    1.4740   -0.6590 C.3     1  UNL1        0.0170
      5 N           4.4591    1.4081   -0.5626 N.am    1  UNL1       -0.2997
      6 C           5.3245    0.3172    0.2126 C.3     1  UNL1        0.0170
      7 C           4.6899   -1.0492    0.6539 C.3     1  UNL1       -0.0309
      8 C           4.3577   -2.1419   -0.4668 C.3     1  UNL1       -0.0612
      9 C           5.4200   -1.9432    1.6282 C.3     1  UNL1       -0.0612
     10 C           5.0101    2.5868   -1.2471 C.2     1  UNL1        0.2327
     11 O           4.3534    3.3038   -1.9697 O.2     1  UNL1       -0.2739
     12 C           6.5232    2.6880   -1.2093 C.3     1  UNL1        0.0860
     13 N           7.2518    3.5980   -2.1004 N.pl3   1  UNL1       -0.3338
     14 C           8.6387    3.5782   -2.3755 C.ar    1  UNL1        0.0551
     15 C           9.2249    4.8770   -2.3859 C.ar    1  UNL1        0.0382
     16 C          10.5703    5.0897   -2.7405 C.ar    1  UNL1        0.2750
     17 N          11.0791    6.4497   -2.9713 N.pl3   1  UNL1        0.0797
     18 O          10.3071    7.3988   -2.7919 O.2     1  UNL1        0.0414
     19 O          12.2500    6.5645   -3.3724 O.co2   1  UNL1       -0.5760
     20 C          11.4137    4.0148   -2.9838 C.ar    1  UNL1        0.0174
     21 C          10.8762    2.7342   -2.9867 C.ar    1  UNL1       -0.0326
     22 C           9.5084    2.4686   -2.7115 C.ar    1  UNL1        0.0488
     23 N           9.1766    1.1169   -3.0063 N.pl3   1  UNL1       -0.3402
     24 C           7.8973    0.6723   -2.5875 C.3     1  UNL1        0.0323
     25 C           7.4515   -0.7629   -2.6568 C.3     1  UNL1        0.0596
     26 O           6.0249   -0.8952   -2.5850 O.3     1  UNL1       -0.3935
     27 H           0.2811   -0.4554    0.7075 H       1  UNL1        0.0233
     28 H           0.1691    0.2722   -0.8971 H       1  UNL1        0.0233
     29 H           0.1885    1.3213    0.5788 H       1  UNL1        0.0233
     30 H           2.4179    0.3997    1.1017 H       1  UNL1        0.0311
     31 H           1.7707   -1.0357   -1.6832 H       1  UNL1        0.0233
     32 H           1.9877   -1.6844   -0.0422 H       1  UNL1        0.0233
     33 H           3.1735   -0.6019   -1.0023 H       1  UNL1        0.0233
     34 H           2.6548    2.4761   -0.3363 H       1  UNL1        0.0467
     35 H           2.7317    1.4070   -1.7407 H       1  UNL1        0.0467
     36 H           5.7875    0.8615    1.0510 H       1  UNL1        0.0467
     37 H           6.2050    0.0322   -0.3628 H       1  UNL1        0.0467
     38 H           3.8669   -0.7234    1.2967 H       1  UNL1        0.0311
     39 H           5.1012   -2.8600   -0.7954 H       1  UNL1        0.0233
     40 H           4.1219   -1.7754   -1.4713 H       1  UNL1        0.0233
     41 H           3.5417   -2.7646   -0.0669 H       1  UNL1        0.0233
     42 H           6.0941   -2.5879    1.0622 H       1  UNL1        0.0233
     43 H           4.6542   -2.5901    2.0925 H       1  UNL1        0.0233
     44 H           5.9510   -1.4161    2.4123 H       1  UNL1        0.0233
     45 H           6.5011    1.7654   -1.7106 H       1  UNL1        0.0557
     46 H           6.9923    2.5658   -0.2378 H       1  UNL1        0.0557
     47 H           6.6751    4.0905   -2.7851 H       1  UNL1        0.1466
     48 H           8.6083    5.7321   -2.1052 H       1  UNL1        0.0704
     49 H          12.4679    4.1494   -3.2162 H       1  UNL1        0.0686
     50 H          11.5333    1.9127   -3.2699 H       1  UNL1        0.0639
     51 H           9.9260    0.4411   -2.9177 H       1  UNL1        0.1462
     52 H           7.1935    1.2248   -3.2223 H       1  UNL1        0.0484
     53 H           7.9153    0.8541   -1.5051 H       1  UNL1        0.0484
     54 H           7.8806   -1.3109   -1.8126 H       1  UNL1        0.0573
     55 H           7.7398   -1.1971   -3.6037 H       1  UNL1        0.0573
     56 H           5.5954   -0.1629   -2.1083 H       1  UNL1        0.2095
@<TRIPOS>UNITY_ATOM_ATTR
17 1
charge 1
19 1
charge -1
@<TRIPOS>BOND
     1     1     2    1
     2     2     3    1
     3     2     4    1
     4     4     5    1
     5     5     6    1
     6     6     7    1
     7     7     8    1
     8     7     9    1
     9     5    10   am
    10    10    11    2
    11    10    12    1
    12    12    13    1
    13    13    14    1
    14    14    15   ar
    15    15    16   ar
    16    16    17    1
    17    17    18    2
    18    17    19    1
    19    16    20   ar
    20    20    21   ar
    21    21    22   ar
    22    14    22   ar
    23    22    23    1
    24    23    24    1
    25    24    25    1
    26    25    26    1
    27     1    27    1
    28     1    28    1
    29     1    29    1
    30     2    30    1
    31     3    31    1
    32     3    32    1
    33     3    33    1
    34     4    34    1
    35     4    35    1
    36     6    36    1
    37     6    37    1
    38     7    38    1
    39     8    39    1
    40     8    40    1
    41     8    41    1
    42     9    42    1
    43     9    43    1
    44     9    44    1
    45    12    45    1
    46    12    46    1
    47    13    47    1
    48    15    48    1
    49    20    49    1
    50    21    50    1
    51    23    51    1
    52    24    52    1
    53    24    53    1
    54    25    54    1
    55    25    55    1
    56    26    56    1
