@<TRIPOS>MOLECULE
*****
 39 40 0 0 0
SMALL
GASTEIGER

@<TRIPOS>ATOM
      1 C           1.0919   -0.0190    0.0630 C.3     1  UNL1        0.0788
      2 O           2.5119    0.0014    0.0256 O.3     1  UNL1       -0.4951
      3 C           3.1427    0.7516    0.9768 C.ar    1  UNL1        0.1205
      4 C           2.7809    0.8758    2.3104 C.ar    1  UNL1       -0.0182
      5 C           3.6174    1.5744    3.2242 C.ar    1  UNL1       -0.0367
      6 C           4.8621    2.1319    2.8430 C.ar    1  UNL1        0.0379
      7 N           5.6593    2.7843    3.8727 N.am    1  UNL1       -0.2690
      8 C           7.0284    3.1116    3.8452 C.2     1  UNL1        0.3082
      9 O           7.8858    2.5441    3.1634 O.2     1  UNL1       -0.2521
     10 N           7.3342    4.2779    4.5737 N.am    1  UNL1       -0.2661
     11 C           8.4792    5.0574    4.1739 C.ar    1  UNL1        0.0768
     12 C           9.6290    5.0742    4.9926 C.ar    1  UNL1       -0.0369
     13 C          10.7537    5.8549    4.6620 C.ar    1  UNL1       -0.0598
     14 C          10.7660    6.5990    3.4887 C.ar    1  UNL1       -0.0582
     15 C           9.6441    6.5793    2.6627 C.ar    1  UNL1       -0.0181
     16 C           8.4921    5.8333    2.9929 C.ar    1  UNL1        0.1412
     17 O           7.4982    6.0238    2.0661 O.3     1  UNL1       -0.4933
     18 C           6.1759    5.6319    2.3673 C.3     1  UNL1        0.0789
     19 C           5.1709    2.0562    1.4637 C.ar    1  UNL1       -0.0258
     20 C           6.3311    2.7080    0.7776 C.3     1  UNL1       -0.0378
     21 C           4.3159    1.3633    0.5638 C.ar    1  UNL1       -0.0153
     22 H           0.7474   -0.7197   -0.7067 H       1  UNL1        0.0660
     23 H           0.6950    0.9703   -0.1838 H       1  UNL1        0.0660
     24 H           0.7016   -0.3738    1.0193 H       1  UNL1        0.0660
     25 H           1.8812    0.3937    2.6811 H       1  UNL1        0.0655
     26 H           3.2755    1.6224    4.2563 H       1  UNL1        0.0637
     27 H           5.1913    2.9569    4.7511 H       1  UNL1        0.1564
     28 H           7.1919    4.1957    5.5718 H       1  UNL1        0.1565
     29 H           9.7080    4.4231    5.8594 H       1  UNL1        0.0637
     30 H          11.6306    5.8713    5.3079 H       1  UNL1        0.0618
     31 H          11.6410    7.1832    3.2083 H       1  UNL1        0.0619
     32 H           9.6533    7.1715    1.7486 H       1  UNL1        0.0655
     33 H           5.5147    5.8899    1.5384 H       1  UNL1        0.0660
     34 H           5.8037    6.0201    3.3159 H       1  UNL1        0.0660
     35 H           6.0979    4.5703    2.3924 H       1  UNL1        0.0660
     36 H           6.9492    3.2558    1.4527 H       1  UNL1        0.0278
     37 H           5.9939    3.4600    0.0548 H       1  UNL1        0.0278
     38 H           6.9929    1.9711    0.3225 H       1  UNL1        0.0278
     39 H           4.5862    1.3050   -0.4919 H       1  UNL1        0.0657
@<TRIPOS>BOND
     1     1     2    1
     2     2     3    1
     3     3     4   ar
     4     4     5   ar
     5     5     6   ar
     6     6     7    1
     7     7     8   am
     8     8     9    2
     9     8    10   am
    10    10    11    1
    11    11    12   ar
    12    12    13   ar
    13    13    14   ar
    14    14    15   ar
    15    15    16   ar
    16    11    16   ar
    17    16    17    1
    18    17    18    1
    19     6    19   ar
    20    19    20    1
    21    19    21   ar
    22     3    21   ar
    23     1    22    1
    24     1    23    1
    25     1    24    1
    26     4    25    1
    27     5    26    1
    28     7    27    1
    29    10    28    1
    30    12    29    1
    31    13    30    1
    32    14    31    1
    33    15    32    1
    34    18    33    1
    35    18    34    1
    36    18    35    1
    37    20    36    1
    38    20    37    1
    39    20    38    1
    40    21    39    1
