@<TRIPOS>MOLECULE
*****
 47 47 0 0 0
SMALL
GASTEIGER

@<TRIPOS>ATOM
      1 C           1.1040   -0.0142   -0.0638 C.3     1  UNL1       -0.0416
      2 C           2.6267   -0.0023   -0.0674 C.3     1  UNL1        0.0455
      3 O           3.1132   -1.2730    0.3634 O.3     1  UNL1       -0.3708
      4 C           4.5444   -1.3705    0.3854 C.3     1  UNL1        0.1251
      5 C           5.0316   -2.7863    0.8228 C.2     1  UNL1        0.2549
      6 O           4.2515   -3.6811    1.1798 O.2     1  UNL1       -0.2718
      7 N           6.4025   -3.0244    0.7781 N.am    1  UNL1       -0.2313
      8 N           6.9004   -4.3556    1.0879 N.am    1  UNL1       -0.2181
      9 C           8.2152   -4.7228    0.7508 C.2     1  UNL1        0.3164
     10 O           8.9145   -4.0133    0.0182 O.2     1  UNL1       -0.2513
     11 N           8.7412   -5.7462    1.5485 N.am    1  UNL1       -0.2914
     12 C          10.1989   -5.9391    1.8510 C.3     1  UNL1        0.0501
     13 C          10.8513   -4.9327    2.8777 C.3     1  UNL1       -0.0280
     14 C          10.6971   -3.4417    2.5719 C.3     1  UNL1       -0.0447
     15 C           9.2639   -3.0014    2.8232 C.3     1  UNL1       -0.0626
     16 C          11.5008   -2.5476    3.5064 C.3     1  UNL1       -0.0626
     17 C          10.4212   -7.3691    2.3808 C.ar    1  UNL1       -0.0272
     18 C          10.6555   -8.4233    1.4879 C.ar    1  UNL1       -0.0568
     19 C          10.6521   -9.7498    1.9377 C.ar    1  UNL1       -0.0614
     20 C          10.5202  -10.0397    3.2951 C.ar    1  UNL1       -0.0617
     21 C          10.3778   -9.0047    4.2074 C.ar    1  UNL1       -0.0614
     22 C          10.3182   -7.6873    3.7525 C.ar    1  UNL1       -0.0568
     23 H           0.7043    0.9522   -0.3892 H       1  UNL1        0.0252
     24 H           0.7159   -0.2306    0.9372 H       1  UNL1        0.0252
     25 H           0.7163   -0.7918   -0.7306 H       1  UNL1        0.0252
     26 H           2.9832    0.7804    0.6105 H       1  UNL1        0.0557
     27 H           2.9832    0.2089   -1.0812 H       1  UNL1        0.0557
     28 H           4.9348   -0.6180    1.0810 H       1  UNL1        0.0657
     29 H           4.9250   -1.1641   -0.6215 H       1  UNL1        0.0657
     30 H           7.1028   -2.3041    0.6052 H       1  UNL1        0.1729
     31 H           6.2366   -4.9614    1.5653 H       1  UNL1        0.1744
     32 H           8.0991   -6.3364    2.0578 H       1  UNL1        0.1509
     33 H          10.7381   -5.8189    0.9016 H       1  UNL1        0.0549
     34 H          11.9243   -5.1770    2.9536 H       1  UNL1        0.0289
     35 H          10.4481   -5.0741    3.8853 H       1  UNL1        0.0289
     36 H          11.0232   -3.2782    1.5367 H       1  UNL1        0.0296
     37 H           9.0216   -2.8514    3.8761 H       1  UNL1        0.0232
     38 H           8.5805   -3.7898    2.6152 H       1  UNL1        0.0232
     39 H           9.0086   -2.1227    2.2287 H       1  UNL1        0.0232
     40 H          11.1184   -2.6396    4.5309 H       1  UNL1        0.0232
     41 H          11.3603   -1.5042    3.1987 H       1  UNL1        0.0232
     42 H          12.5656   -2.7774    3.5130 H       1  UNL1        0.0232
     43 H          10.8227   -8.2246    0.4315 H       1  UNL1        0.0621
     44 H          10.7274  -10.5644    1.2220 H       1  UNL1        0.0618
     45 H          10.5273  -11.0694    3.6419 H       1  UNL1        0.0618
     46 H          10.2781   -9.2142    5.2699 H       1  UNL1        0.0618
     47 H          10.1803   -6.9229    4.5107 H       1  UNL1        0.0621
@<TRIPOS>BOND
     1     1     2    1
     2     2     3    1
     3     3     4    1
     4     4     5    1
     5     5     6    2
     6     5     7   am
     7     7     8    1
     8     8     9   am
     9     9    10    2
    10     9    11   am
    11    11    12    1
    12    12    13    1
    13    13    14    1
    14    14    15    1
    15    14    16    1
    16    12    17    1
    17    17    18   ar
    18    18    19   ar
    19    19    20   ar
    20    20    21   ar
    21    21    22   ar
    22    17    22   ar
    23     1    23    1
    24     1    24    1
    25     1    25    1
    26     2    26    1
    27     2    27    1
    28     4    28    1
    29     4    29    1
    30     7    30    1
    31     8    31    1
    32    11    32    1
    33    12    33    1
    34    13    34    1
    35    13    35    1
    36    14    36    1
    37    15    37    1
    38    15    38    1
    39    15    39    1
    40    16    40    1
    41    16    41    1
    42    16    42    1
    43    18    43    1
    44    19    44    1
    45    20    45    1
    46    21    46    1
    47    22    47    1
