@<TRIPOS>MOLECULE
*****
 60 63 0 0 0
SMALL
GASTEIGER

@<TRIPOS>ATOM
      1 C           1.0635    0.0131   -0.1191 C.3     1  UNL1       -0.0621
      2 C           2.5992   -0.0212   -0.0076 C.3     1  UNL1       -0.0343
      3 C           3.0847   -1.2336    0.7909 C.3     1  UNL1       -0.0097
      4 C           2.4584   -1.2691    2.1884 C.3     1  UNL1       -0.0313
      5 N           2.7675    0.0309    2.9466 N.4     1  UNL1        0.2397
      6 C           2.0078    0.1314    4.2765 C.3     1  UNL1        0.0139
      7 C           2.4277    1.2083    5.2211 C.ar    1  UNL1        0.1234
      8 C           3.0701    1.1619    6.4770 C.ar    1  UNL1        0.1773
      9 C           3.5164    0.0767    7.4345 C.2     1  UNL1        0.2854
     10 O           4.1281    0.3990    8.4631 O.2     1  UNL1       -0.2666
     11 N           3.2318   -1.2775    7.1611 N.am    1  UNL1       -0.2019
     12 N           3.6366   -2.2996    8.0341 N.2     1  UNL1       -0.1921
     13 C           3.3277   -3.5266    7.7121 C.2     1  UNL1        0.0262
     14 C           3.8334   -4.7566    8.4986 C.3     1  UNL1       -0.0041
     15 C           2.9399   -6.0167    8.4209 C.3     1  UNL1       -0.0453
     16 C           2.8606   -6.6056    7.0116 C.3     1  UNL1       -0.0525
     17 C           4.2514   -6.9045    6.4607 C.3     1  UNL1       -0.0530
     18 C           5.1440   -5.6684    6.5258 C.3     1  UNL1       -0.0525
     19 C           5.2258   -5.1117    7.9517 C.3     1  UNL1       -0.0453
     20 N           3.3598    2.4728    6.8172 N.ar    1  UNL1       -0.1239
     21 N           2.9699    3.2940    5.8589 N.ar    1  UNL1       -0.0581
     22 N           2.2335    2.6071    4.9700 N.ar    1  UNL1       -0.1868
     23 C           1.4577    3.2722    3.9564 C.ar    1  UNL1        0.2404
     24 N           2.0232    4.1806    3.1484 N.ar    1  UNL1       -0.0272
     25 O           1.0707    4.3830    2.1353 O.2     1  UNL1       -0.2388
     26 N          -0.0609    3.5988    2.3527 N.ar    1  UNL1       -0.0319
     27 C           0.1820    2.9357    3.4811 C.ar    1  UNL1        0.2064
     28 N          -0.6241    2.0015    4.0234 N.pl3   1  UNL1       -0.3375
     29 C           2.5645    1.2610    2.0995 C.3     1  UNL1       -0.0313
     30 C           3.1435    1.1953    0.7146 C.3     1  UNL1       -0.0097
     31 H           0.6967   -0.8747   -0.6390 H       1  UNL1        0.0232
     32 H           0.7248    0.9109   -0.6440 H       1  UNL1        0.0232
     33 H           0.5550    0.0252    0.8510 H       1  UNL1        0.0232
     34 H           3.0219   -0.0381   -1.0185 H       1  UNL1        0.0302
     35 H           4.1793   -1.1917    0.8894 H       1  UNL1        0.0319
     36 H           2.8592   -2.1482    0.2337 H       1  UNL1        0.0319
     37 H           2.8638   -2.0998    2.7746 H       1  UNL1        0.0814
     38 H           1.3708   -1.3891    2.1426 H       1  UNL1        0.0814
     39 H           3.7701    0.0010    3.1735 H       1  UNL1        0.2037
     40 H           2.1701   -0.8365    4.7471 H       1  UNL1        0.0883
     41 H           0.9406    0.1571    4.0526 H       1  UNL1        0.0883
     42 H           2.7242   -1.5765    6.3533 H       1  UNL1        0.1776
     43 H           2.7807   -3.7398    6.7786 H       1  UNL1        0.0801
     44 H           3.9180   -4.4674    9.5536 H       1  UNL1        0.0358
     45 H           1.9308   -5.8199    8.7966 H       1  UNL1        0.0271
     46 H           3.3654   -6.7945    9.0767 H       1  UNL1        0.0271
     47 H           2.3465   -5.9001    6.3508 H       1  UNL1        0.0265
     48 H           2.2616   -7.5242    7.0151 H       1  UNL1        0.0265
     49 H           4.1693   -7.2546    5.4257 H       1  UNL1        0.0265
     50 H           4.7098   -7.7170    7.0388 H       1  UNL1        0.0265
     51 H           4.7421   -4.9016    5.8524 H       1  UNL1        0.0265
     52 H           6.1466   -5.9112    6.1600 H       1  UNL1        0.0265
     53 H           5.8695   -4.2260    7.9635 H       1  UNL1        0.0271
     54 H           5.7003   -5.8597    8.6018 H       1  UNL1        0.0271
     55 H          -1.6077    2.0713    3.7564 H       1  UNL1        0.1439
     56 H          -0.5418    1.7922    5.0148 H       1  UNL1        0.1439
     57 H           3.0886    2.0603    2.6070 H       1  UNL1        0.0814
     58 H           1.4908    1.4225    2.0376 H       1  UNL1        0.0814
     59 H           4.2373    1.1634    0.7907 H       1  UNL1        0.0319
     60 H           2.8954    2.1153    0.1705 H       1  UNL1        0.0319
@<TRIPOS>UNITY_ATOM_ATTR
5 1
charge 1
@<TRIPOS>BOND
     1     1     2    1
     2     2     3    1
     3     3     4    1
     4     4     5    1
     5     5     6    1
     6     6     7    1
     7     7     8   ar
     8     8     9    1
     9     9    10    2
    10     9    11   am
    11    11    12    1
    12    12    13    2
    13    13    14    1
    14    14    15    1
    15    15    16    1
    16    16    17    1
    17    17    18    1
    18    18    19    1
    19    14    19    1
    20     8    20   ar
    21    20    21   ar
    22    21    22   ar
    23     7    22   ar
    24    22    23    1
    25    23    24   ar
    26    24    25   ar
    27    25    26   ar
    28    26    27   ar
    29    23    27   ar
    30    27    28    1
    31     5    29    1
    32    29    30    1
    33     2    30    1
    34     1    31    1
    35     1    32    1
    36     1    33    1
    37     2    34    1
    38     3    35    1
    39     3    36    1
    40     4    37    1
    41     4    38    1
    42     5    39    1
    43     6    40    1
    44     6    41    1
    45    11    42    1
    46    13    43    1
    47    14    44    1
    48    15    45    1
    49    15    46    1
    50    16    47    1
    51    16    48    1
    52    17    49    1
    53    17    50    1
    54    18    51    1
    55    18    52    1
    56    19    53    1
    57    19    54    1
    58    28    55    1
    59    28    56    1
    60    29    57    1
    61    29    58    1
    62    30    59    1
    63    30    60    1
