REMARK  10 active torsions:
REMARK  status: ('A' for Active; 'I' for Inactive)
REMARK    1  A    between atoms: C_5  and  N_6 
REMARK       I    between atoms: N_6  and  C_7 
REMARK    2  A    between atoms: N_6  and  C_18 
REMARK    3  A    between atoms: C_7  and  C_9 
REMARK    4  A    between atoms: C_12  and  C_13 
REMARK       I    between atoms: C_13  and  N_14 
REMARK    5  A    between atoms: C_16  and  N_17 
REMARK    6  A    between atoms: C_18  and  C_19 
REMARK    7  A    between atoms: C_18  and  C_27 
REMARK       I    between atoms: C_19  and  N_21 
REMARK    8  A    between atoms: N_21  and  C_22 
REMARK    9  A    between atoms: C_22  and  C_23 
REMARK   10  A    between atoms: C_23  and  C_24 
ROOT
ATOM      1  N   UNL d   1      -2.574  -1.557  -0.065  0.00  0.00    -0.295 N 
ATOM      2  C   UNL d   1      -3.889  -0.752   0.161  0.00  0.00     0.269 C 
ATOM      3  O   UNL d   1      -4.744  -1.168   0.895  0.00  0.00    -0.266 OA
ENDROOT
BRANCH   1   4
ATOM      4  C   UNL d   1      -1.183  -0.941  -0.094  0.00  0.00     0.044 C 
ATOM      5  C   UNL d   1      -0.012  -1.641  -0.455  0.00  0.00     0.031 C 
ATOM      6  C   UNL d   1       1.294  -1.098  -0.253  0.00  0.00     0.009 C 
ATOM      7  C   UNL d   1       1.463   0.258  -0.049  0.00  0.00    -0.061 C 
ATOM      8  C   UNL d   1       2.733   1.026  -0.007  0.00  0.00     0.048 C 
ATOM      9  C   UNL d   1       0.339   0.998   0.114  0.00  0.00     0.015 C 
ATOM     10  C   UNL d   1      -0.891   0.376   0.289  0.00  0.00    -0.035 C 
ATOM     11  C   UNL d   1      -1.833   1.360   0.786  0.00  0.00     0.050 C 
ENDBRANCH   1   4
BRANCH   1  12
ATOM     12  C   UNL d   1      -2.554  -3.174   0.112  0.00  0.00     0.218 C 
BRANCH  12  13
ATOM     13  C   UNL d   1      -1.813  -3.765   1.432  0.00  0.00     0.245 C 
ATOM     14  O   UNL d   1      -2.359  -4.553   2.209  0.00  0.00    -0.271 OA
ATOM     15  N   UNL d   1      -0.462  -3.524   1.612  0.00  0.00    -0.359 N 
ATOM     16  H   UNL d   1      -0.001  -2.762   1.180  0.00  0.00     0.162 HD
BRANCH  15  17
ATOM     17  C   UNL d   1       0.288  -3.975   2.751  0.00  0.00     0.123 C 
BRANCH  17  18
ATOM     18  C   UNL d   1       1.729  -3.439   2.713  0.00  0.00     0.023 C 
BRANCH  18  19
ATOM     19  C   UNL d   1       2.523  -3.930   3.927  0.00  0.00    -0.021 C 
ATOM     20  C   UNL d   1       2.570  -5.457   3.948  0.00  0.00     0.009 C 
ATOM     21  C   UNL d   1       3.944  -3.371   3.921  0.00  0.00     0.009 C 
ENDBRANCH  18  19
ENDBRANCH  17  18
ENDBRANCH  15  17
ENDBRANCH  12  13
BRANCH  12  22
ATOM     22  C   UNL d   1      -3.899  -3.936  -0.114  0.00  0.00    -0.026 C 
ATOM     23  C   UNL d   1      -4.126  -5.316  -0.006  0.00  0.00     0.013 C 
ATOM     24  C   UNL d   1      -5.453  -5.812  -0.020  0.00  0.00     0.043 C 
ATOM     25  C   UNL d   1      -6.536  -4.934  -0.021  0.00  0.00     0.116 C 
ATOM     26  F   UNL d   1      -7.797  -5.380  -0.006  0.00  0.00    -0.206 F 
ATOM     27  C   UNL d   1      -6.315  -3.600  -0.196  0.00  0.00     0.043 C 
ATOM     28  C   UNL d   1      -5.020  -3.220  -0.484  0.00  0.00     0.013 C 
ENDBRANCH  12  22
ENDBRANCH   1  12
BRANCH   2  29
ATOM     29  C   UNL d   1      -4.158   0.620  -0.457  0.00  0.00     0.115 C 
ATOM     30  S   UNL d   1      -5.123   1.726   0.530  0.00  0.00     0.019 SA
ATOM     31  N   UNL d   1      -4.412   3.134  -0.018  0.00  0.00    -0.203 NA
ATOM     32  C   UNL d   1      -3.629   2.842  -1.067  0.00  0.00     0.155 C 
ATOM     33  C   UNL d   1      -3.560   1.400  -1.430  0.00  0.00     0.065 C 
BRANCH  32  34
ATOM     34  C   UNL d   1      -2.628   3.838  -1.552  0.00  0.00     0.270 C 
ATOM     35  N   UNL d   1      -2.739   5.132  -1.110  0.00  0.00    -0.365 N 
ATOM     36  H   UNL d   1      -3.441   5.415  -0.442  0.00  0.00     0.159 HD
ATOM     37  H   UNL d   1      -2.108   5.812  -1.512  0.00  0.00     0.159 HD
ATOM     38  O   UNL d   1      -1.665   3.529  -2.245  0.00  0.00    -0.266 OA
ENDBRANCH  32  34
BRANCH  33  39
ATOM     39  N   UNL d   1      -2.628   0.899  -2.292  0.00  0.00    -0.299 NA
ATOM     40  H   UNL d   1      -1.828   1.523  -2.471  0.00  0.00     0.124 HD
ATOM     41  H   UNL d   1      -2.248  -0.021  -2.082  0.00  0.00     0.124 HD
ENDBRANCH  33  39
ENDBRANCH   2  29
TORSDOF 10
