REMARK  7 active torsions:
REMARK  status: ('A' for Active; 'I' for Inactive)
REMARK    1  A    between atoms: C_4  and  O_5 
REMARK    2  A    between atoms: O_5  and  C_6 
REMARK    3  A    between atoms: C_6  and  C_7 
REMARK       I    between atoms: C_7  and  N_9 
REMARK    4  A    between atoms: N_9  and  C_10 
REMARK    5  A    between atoms: C_10  and  C_11 
REMARK    6  A    between atoms: C_14  and  S_15 
REMARK    7  A    between atoms: S_15  and  N_16 
ROOT
ATOM      1  C   UNL d   1       5.599  -4.809   0.102  0.00  0.00     0.242 C 
ATOM      2  O   UNL d   1       6.812  -4.615   0.095  0.00  0.00    -0.271 OA
ATOM      3  N   UNL d   1       5.076  -6.086   0.122  0.00  0.00    -0.355 N 
ATOM      4  H   UNL d   1       4.078  -6.180   0.199  0.00  0.00     0.162 HD
ENDROOT
BRANCH   1   5
ATOM      5  C   UNL d   1       4.534  -3.680   0.087  0.00  0.00     0.278 C 
BRANCH   5   6
ATOM      6  O   UNL d   1       5.181  -2.420   0.082  0.00  0.00    -0.341 OA
BRANCH   6   7
ATOM      7  C   UNL d   1       4.524  -1.230   0.069  0.00  0.00     0.083 A 
ATOM      8  C   UNL d   1       3.131  -1.158   0.061  0.00  0.00     0.044 A 
ATOM      9  C   UNL d   1       2.470   0.075   0.059  0.00  0.00    -0.057 A 
ATOM     10  C   UNL d   1       0.974   0.107   0.059  0.00  0.00     0.048 C 
ATOM     11  C   UNL d   1       3.216   1.255   0.061  0.00  0.00     0.045 A 
ATOM     12  C   UNL d   1       4.611   1.181   0.063  0.00  0.00     0.093 A 
ATOM     13  O   UNL d   1       5.288   2.423   0.064  0.00  0.00    -0.275 OA
ATOM     14  C   UNL d   1       5.299  -0.044   0.066  0.00  0.00     0.037 A 
ATOM     15  C   UNL d   1       6.669   2.493   0.068  0.00  0.00     0.288 A 
ATOM     16  C   UNL d   1       7.383   1.212   0.068  0.00  0.00     0.090 A 
ATOM     17  O   UNL d   1       7.283   3.554   0.069  0.00  0.00    -0.260 OA
ATOM     18  C   UNL d   1       6.778   0.013   0.067  0.00  0.00    -0.040 A 
ATOM     19  C   UNL d   1       7.659  -1.201   0.064  0.00  0.00     0.049 C 
ENDBRANCH   6   7
ENDBRANCH   5   6
ENDBRANCH   1   5
BRANCH   3  20
ATOM     20  C   UNL d   1       5.925  -7.276   0.144  0.00  0.00     0.161 C 
BRANCH  20  21
ATOM     21  C   UNL d   1       5.170  -8.598   0.133  0.00  0.00    -0.040 C 
ATOM     22  C   UNL d   1       5.854  -9.814   0.349  0.00  0.00     0.010 C 
ATOM     23  C   UNL d   1       5.211 -11.050   0.154  0.00  0.00     0.026 C 
ATOM     24  C   UNL d   1       3.848 -11.075  -0.146  0.00  0.00     0.079 C 
ATOM     25  C   UNL d   1       3.127  -9.889  -0.219  0.00  0.00     0.026 C 
ATOM     26  C   UNL d   1       3.799  -8.670  -0.153  0.00  0.00     0.010 C 
BRANCH  24  27
ATOM     27  S   UNL d   1       3.015 -12.607  -0.476  0.00  0.00     0.256 S 
ATOM     28  O   UNL d   1       3.324 -13.520   0.603  0.00  0.00    -0.201 OA
ATOM     29  O   UNL d   1       1.667 -12.309  -0.892  0.00  0.00    -0.201 OA
BRANCH  27  30
ATOM     30  N   UNL d   1       3.818 -13.143  -1.837  0.00  0.00    -0.324 N 
ATOM     31  H   UNL d   1       4.732 -13.560  -1.692  0.00  0.00     0.169 HD
ATOM     32  H   UNL d   1       3.604 -12.662  -2.706  0.00  0.00     0.169 HD
ENDBRANCH  27  30
ENDBRANCH  24  27
ENDBRANCH  20  21
ENDBRANCH   3  20
TORSDOF 7
