REMARK  7 active torsions:
REMARK  status: ('A' for Active; 'I' for Inactive)
REMARK    1  A    between atoms: C_2  and  C_3 
REMARK    2  A    between atoms: C_2  and  O_10 
REMARK    3  A    between atoms: C_4  and  C_5 
REMARK    4  A    between atoms: O_10  and  C_11 
REMARK    5  A    between atoms: C_14  and  C_15 
REMARK    6  A    between atoms: N_26  and  C_27 
REMARK    7  A    between atoms: C_27  and  C_28 
ROOT
ATOM      1  C   UNL d   1       8.762   0.924  -1.059  0.00  0.00     0.219 C 
ATOM      2  N   UNL d   1       9.286   0.378  -2.275  0.00  0.00    -0.332 N 
ATOM      3  C   UNL d   1      10.631   0.418  -2.447  0.00  0.00     0.256 C 
ATOM      4  O   UNL d   1      11.188   0.699  -3.511  0.00  0.00    -0.267 OA
ATOM      5  C   UNL d   1      11.343  -0.043  -1.274  0.00  0.00     0.073 C 
ATOM      6  C   UNL d   1      10.670  -0.144  -0.073  0.00  0.00     0.088 C 
ATOM      7  S   UNL d   1      11.705  -0.671   1.173  0.00  0.00    -0.074 SA
ATOM      8  C   UNL d   1      13.029  -0.828   0.091  0.00  0.00     0.018 C 
ATOM      9  C   UNL d   1      12.680  -0.530  -1.209  0.00  0.00    -0.023 C 
ATOM     10  C   UNL d   1      13.658  -0.479  -2.350  0.00  0.00     0.068 C 
ATOM     11  C   UNL d   1      15.126  -0.735  -1.989  0.00  0.00     0.240 C 
ATOM     12  N   UNL d   1      15.489  -0.862  -0.507  0.00  0.00    -0.062 N 
ATOM     13  C   UNL d   1      14.409  -1.128   0.549  0.00  0.00     0.282 C 
ATOM     14  N   UNL d   1       9.347   0.144   0.024  0.00  0.00    -0.358 N 
ATOM     15  H   UNL d   1       8.698   0.198  -3.074  0.00  0.00     0.165 HD
ATOM     16  H   UNL d   1      16.066  -1.711  -0.480  0.00  0.00     0.280 HD
ATOM     17  H   UNL d   1       8.805   0.037   0.875  0.00  0.00     0.162 HD
ENDROOT
BRANCH   1  18
ATOM     18  C   UNL d   1       7.256   0.936  -1.046  0.00  0.00    -0.016 C 
ATOM     19  C   UNL d   1       6.546   2.153  -0.950  0.00  0.00     0.014 C 
ATOM     20  C   UNL d   1       5.158   2.160  -0.785  0.00  0.00     0.038 C 
ATOM     21  C   UNL d   1       4.475   0.950  -0.840  0.00  0.00     0.079 C 
ATOM     22  C   UNL d   1       5.145  -0.240  -1.112  0.00  0.00     0.038 C 
ATOM     23  C   UNL d   1       6.533  -0.257  -1.151  0.00  0.00     0.014 C 
BRANCH  21  24
ATOM     24  O   UNL d   1       3.071   0.968  -0.651  0.00  0.00    -0.276 OA
BRANCH  24  25
ATOM     25  C   UNL d   1       2.281   0.020   0.020  0.00  0.00     0.288 C 
ATOM     26  O   UNL d   1       1.060   0.027  -0.074  0.00  0.00    -0.260 OA
BRANCH  25  27
ATOM     27  C   UNL d   1       3.007  -0.941   0.880  0.00  0.00     0.085 C 
ATOM     28  C   UNL d   1       2.365  -1.918   1.535  0.00  0.00     0.043 C 
BRANCH  28  29
ATOM     29  C   UNL d   1       3.086  -2.853   2.332  0.00  0.00     0.075 A 
ATOM     30  C   UNL d   1       4.226  -2.683   3.115  0.00  0.00     0.039 A 
ATOM     31  C   UNL d   1       4.504  -3.911   3.759  0.00  0.00     0.027 A 
ATOM     32  C   UNL d   1       3.551  -4.789   3.313  0.00  0.00     0.142 A 
ATOM     33  O   UNL d   1       2.698  -4.168   2.462  0.00  0.00    -0.323 OA
ENDBRANCH  28  29
ENDBRANCH  25  27
ENDBRANCH  24  25
ENDBRANCH  21  24
ENDBRANCH   1  18
BRANCH  12  34
ATOM     34  C   UNL d   1      16.407   0.276  -0.062  0.00  0.00     0.273 C 
BRANCH  34  35
ATOM     35  C   UNL d   1      15.798   1.662  -0.069  0.00  0.00    -0.033 C 
ATOM     36  C   UNL d   1      14.578   1.948  -0.678  0.00  0.00     0.009 C 
ATOM     37  C   UNL d   1      14.069   3.185  -1.004  0.00  0.00     0.001 C 
ATOM     38  C   UNL d   1      14.728   4.260  -0.491  0.00  0.00     0.000 C 
ATOM     39  C   UNL d   1      15.896   4.046   0.255  0.00  0.00     0.001 C 
ATOM     40  C   UNL d   1      16.448   2.763   0.445  0.00  0.00     0.009 C 
ENDBRANCH  34  35
ENDBRANCH  12  34
TORSDOF 7
