@<TRIPOS>MOLECULE
*****
 44 46 0 0 0
SMALL
GASTEIGER

@<TRIPOS>ATOM
      1 C           2.4946   -0.0042   -0.0131 C.3     1  UNL1       -0.0396
      2 C           0.9957    0.0019    0.0023 C.ar    1  UNL1       -0.0470
      3 C           0.2691   -1.1925    0.0041 C.ar    1  UNL1       -0.0586
      4 C          -1.1236   -1.1581   -0.0004 C.ar    1  UNL1       -0.0581
      5 C          -1.7921    0.0714   -0.0055 C.ar    1  UNL1       -0.0199
      6 C          -1.0776    1.2764    0.0025 C.ar    1  UNL1        0.1215
      7 O          -1.8301    2.4186    0.0055 O.3     1  UNL1       -0.4827
      8 C          -1.1613    3.6866    0.0267 C.3     1  UNL1        0.1666
      9 C          -2.2201    4.8113    0.0414 C.2     1  UNL1        0.2667
     10 O          -3.4359    4.6107    0.0353 O.2     1  UNL1       -0.2705
     11 N          -1.7433    6.1007    0.0703 N.am    1  UNL1       -0.2316
     12 N          -2.6747    7.2081    0.1180 N.am    1  UNL1       -0.2340
     13 C          -2.0826    8.4398    0.0420 C.2     1  UNL1        0.2335
     14 O          -0.8580    8.3618   -0.0823 O.2     1  UNL1       -0.2739
     15 C          -2.8930    9.7430    0.0886 C.3     1  UNL1        0.0525
     16 C          -2.1102   11.0739    0.1158 C.ar    1  UNL1       -0.0136
     17 C          -2.7092   12.3337    0.0753 C.ar    1  UNL1        0.0064
     18 N          -1.7372   13.3043    0.1386 N.ar    1  UNL1       -0.3603
     19 C          -0.4912   12.7284    0.1694 C.ar    1  UNL1        0.0481
     20 C           0.7916   13.3201    0.1978 C.ar    1  UNL1       -0.0194
     21 C           1.9168   12.4874    0.1885 C.ar    1  UNL1        0.0430
     22 CL          3.5080   13.1326    0.1835 Cl      1  UNL1       -0.0835
     23 C           1.7795   11.1246    0.1838 C.ar    1  UNL1       -0.0427
     24 C           0.5079   10.5799    0.1995 C.ar    1  UNL1       -0.0509
     25 C          -0.6809   11.3423    0.1649 C.ar    1  UNL1        0.0034
     26 C           0.3145    1.2310    0.0047 C.ar    1  UNL1       -0.0170
     27 H           2.8946   -1.0227    0.0002 H       1  UNL1        0.0278
     28 H           2.8797    0.5236    0.8651 H       1  UNL1        0.0278
     29 H           2.8570    0.4913   -0.9196 H       1  UNL1        0.0278
     30 H           0.7811   -2.1526    0.0053 H       1  UNL1        0.0620
     31 H          -1.6862   -2.0891   -0.0019 H       1  UNL1        0.0619
     32 H          -2.8800    0.0820   -0.0165 H       1  UNL1        0.0654
     33 H          -0.5367    3.7969   -0.8691 H       1  UNL1        0.0795
     34 H          -0.5431    3.7712    0.9302 H       1  UNL1        0.0795
     35 H          -0.7552    6.3777    0.0524 H       1  UNL1        0.1729
     36 H          -3.6654    6.9887    0.0670 H       1  UNL1        0.1728
     37 H          -3.5449    9.7218    0.9735 H       1  UNL1        0.0408
     38 H          -3.5503    9.7595   -0.7921 H       1  UNL1        0.0408
     39 H          -3.7485   12.6373    0.0085 H       1  UNL1        0.0810
     40 H          -1.9028   14.3030    0.1376 H       1  UNL1        0.1653
     41 H           0.9155   14.3960    0.2111 H       1  UNL1        0.0653
     42 H           2.6216   10.4391    0.1703 H       1  UNL1        0.0632
     43 H           0.5610    9.5108    0.2303 H       1  UNL1        0.0625
     44 H           0.9043    2.1403    0.0045 H       1  UNL1        0.0657
@<TRIPOS>BOND
     1     1     2    1
     2     2     3   ar
     3     3     4   ar
     4     4     5   ar
     5     5     6   ar
     6     6     7    1
     7     7     8    1
     8     8     9    1
     9     9    10    2
    10     9    11   am
    11    11    12    1
    12    12    13   am
    13    13    14    2
    14    13    15    1
    15    15    16    1
    16    16    17   ar
    17    17    18   ar
    18    18    19   ar
    19    19    20   ar
    20    20    21   ar
    21    21    22    1
    22    21    23   ar
    23    23    24   ar
    24    24    25   ar
    25    16    25   ar
    26    19    25   ar
    27     6    26   ar
    28     2    26   ar
    29     1    27    1
    30     1    28    1
    31     1    29    1
    32     3    30    1
    33     4    31    1
    34     5    32    1
    35     8    33    1
    36     8    34    1
    37    11    35    1
    38    12    36    1
    39    15    37    1
    40    15    38    1
    41    17    39    1
    42    18    40    1
    43    20    41    1
    44    23    42    1
    45    24    43    1
    46    26    44    1
