REMARK  5 active torsions:
REMARK  status: ('A' for Active; 'I' for Inactive)
REMARK       I    between atoms: N_2  and  C_3 
REMARK       I    between atoms: C_3  and  N_5 
REMARK       I    between atoms: N_5  and  C_6 
REMARK    1  A    between atoms: C_6  and  C_8 
REMARK    2  A    between atoms: C_8  and  N_9 
REMARK    3  A    between atoms: N_9  and  C_10 
REMARK    4  A    between atoms: C_13  and  C_14 
REMARK       I    between atoms: C_14  and  N_16 
REMARK    5  A    between atoms: N_16  and  C_17 
ROOT
ATOM      1  C   UNL d   1       8.804   2.388  -3.349  0.00  0.00     0.028 A 
ATOM      2  C   UNL d   1       9.369   3.611  -3.741  0.00  0.00     0.030 A 
ATOM      3  C   UNL d   1      10.727   3.716  -4.100  0.00  0.00     0.019 A 
ATOM      4  C   UNL d   1      11.578   2.603  -4.025  0.00  0.00     0.032 A 
ATOM      5  C   UNL d   1      11.019   1.380  -3.649  0.00  0.00     0.019 A 
ATOM      6  C   UNL d   1       9.656   1.284  -3.311  0.00  0.00     0.030 A 
ENDROOT
BRANCH   1   7
ATOM      7  N   UNL d   1       7.468   2.329  -2.998  0.00  0.00    -0.381 N 
ATOM      8  H   UNL d   1       6.800   2.728  -3.666  0.00  0.00     0.160 HD
BRANCH   7   9
ATOM      9  C   UNL d   1       6.870   1.405  -2.014  0.00  0.00     0.223 C 
BRANCH   9  10
ATOM     10  C   UNL d   1       5.316   1.456  -2.092  0.00  0.00     0.243 C 
ATOM     11  N   UNL d   1       4.592   0.732  -1.138  0.00  0.00    -0.278 N 
ATOM     12  C   UNL d   1       3.208   0.721  -1.121  0.00  0.00     0.322 C 
ATOM     13  H   UNL d   1       5.082   0.212  -0.428  0.00  0.00     0.173 HD
ATOM     14  N   UNL d   1       2.616  -0.029  -0.123  0.00  0.00    -0.347 N 
ATOM     15  O   UNL d   1       2.495   1.321  -1.925  0.00  0.00    -0.247 OA
ATOM     16  C   UNL d   1       1.159  -0.079  -0.054  0.00  0.00     0.151 C 
ATOM     17  H   UNL d   1       3.139  -0.542   0.570  0.00  0.00     0.163 HD
ATOM     18  O   UNL d   1       4.795   2.115  -2.998  0.00  0.00    -0.271 OA
ENDBRANCH   9  10
ENDBRANCH   7   9
ENDBRANCH   1   7
BRANCH   4  19
ATOM     19  C   UNL d   1      13.043   2.792  -4.297  0.00  0.00     0.251 C 
ATOM     20  O   UNL d   1      13.448   3.902  -4.645  0.00  0.00    -0.268 OA
ATOM     21  N   UNL d   1      13.898   1.717  -4.104  0.00  0.00    -0.353 N 
ATOM     22  H   UNL d   1      13.536   0.816  -3.837  0.00  0.00     0.163 HD
BRANCH  21  23
ATOM     23  C   UNL d   1      15.348   1.830  -4.272  0.00  0.00     0.076 C 
ATOM     24  C   UNL d   1      15.953   2.818  -3.274  0.00  0.00     0.032 C 
ATOM     25  C   UNL d   1      16.030   0.470  -4.094  0.00  0.00     0.032 C 
ENDBRANCH  21  23
ENDBRANCH   4  19
TORSDOF 5
