@<TRIPOS>MOLECULE
*****
 25 26 0 0 0
SMALL
GASTEIGER

@<TRIPOS>ATOM
      1 O           1.0787    0.1636   -0.1047 O.2     1  UNL1       -0.2653
      2 C           2.3164    0.1210   -0.0823 C.2     1  UNL1        0.2954
      3 N           3.0738    1.2827    0.0558 N.am    1  UNL1       -0.2299
      4 N           2.3942    2.4930    0.2621 N.pl3   1  UNL1       -0.2642
      5 C           3.0793    3.7111    0.3258 C.ar    1  UNL1        0.0446
      6 C           4.1934    3.9993   -0.4736 C.ar    1  UNL1       -0.0367
      7 C           4.8757    5.2188   -0.3526 C.ar    1  UNL1       -0.0247
      8 C           4.4629    6.1515    0.5894 C.ar    1  UNL1        0.1235
      9 F           5.1259    7.3095    0.7132 F       1  UNL1       -0.2055
     10 C           3.3701    5.8936    1.4031 C.ar    1  UNL1       -0.0247
     11 C           2.6800    4.6805    1.2660 C.ar    1  UNL1       -0.0367
     12 C           3.0447   -1.1232   -0.2711 C.ar    1  UNL1        0.1926
     13 C           2.7679   -2.1876   -1.1130 C.ar    1  UNL1       -0.0097
     14 C           3.7376   -3.1856   -0.8616 C.ar    1  UNL1       -0.0038
     15 C           4.5379   -2.6980    0.1478 C.ar    1  UNL1        0.1949
     16 CL          5.8487   -3.5346    0.8852 Cl      1  UNL1       -0.0431
     17 O           4.1455   -1.4301    0.4911 O.2     1  UNL1       -0.4390
     18 H           4.0849    1.2709    0.1345 H       1  UNL1        0.1731
     19 H           1.3759    2.4601    0.3358 H       1  UNL1        0.1700
     20 H           4.5097    3.2982   -1.2401 H       1  UNL1        0.0637
     21 H           5.7232    5.4477   -0.9910 H       1  UNL1        0.0647
     22 H           3.0670    6.6315    2.1403 H       1  UNL1        0.0647
     23 H           1.8350    4.4890    1.9240 H       1  UNL1        0.0637
     24 H           1.9564   -2.2258   -1.8271 H       1  UNL1        0.0657
     25 H           3.8306   -4.1508   -1.3434 H       1  UNL1        0.0665
@<TRIPOS>BOND
     1     1     2    2
     2     2     3   am
     3     3     4    1
     4     4     5    1
     5     5     6   ar
     6     6     7   ar
     7     7     8   ar
     8     8     9    1
     9     8    10   ar
    10    10    11   ar
    11     5    11   ar
    12     2    12    1
    13    12    13   ar
    14    13    14   ar
    15    14    15   ar
    16    15    16    1
    17    15    17   ar
    18    12    17   ar
    19     3    18    1
    20     4    19    1
    21     6    20    1
    22     7    21    1
    23    10    22    1
    24    11    23    1
    25    13    24    1
    26    14    25    1
