@<TRIPOS>MOLECULE
*****
 59 61 0 0 0
SMALL
GASTEIGER

@<TRIPOS>ATOM
      1 C           0.9732    0.0457    0.0835 C.3     1  UNL1       -0.0416
      2 C           2.4884    0.0529    0.0739 C.3     1  UNL1        0.0450
      3 O           2.9716   -0.7742    1.1332 O.3     1  UNL1       -0.3767
      4 C           4.4013   -0.7779    1.1636 C.3     1  UNL1        0.0817
      5 C           4.9033   -1.6575    2.3099 C.3     1  UNL1        0.1128
      6 O           6.3278   -1.5620    2.3662 O.3     1  UNL1       -0.4897
      7 C           6.9873   -2.4061    3.2158 C.ar    1  UNL1        0.1207
      8 C           8.1958   -1.9276    3.7103 C.ar    1  UNL1       -0.0192
      9 C           9.0380   -2.7734    4.4474 C.ar    1  UNL1       -0.0462
     10 C           8.6604   -4.0958    4.7873 C.ar    1  UNL1        0.0373
     11 C           9.5887   -4.8751    5.6880 C.2     1  UNL1        0.2495
     12 O          10.6120   -4.2714    6.0069 O.2     1  UNL1       -0.2698
     13 N           9.2800   -6.1850    6.1475 N.am    1  UNL1       -0.2627
     14 C          10.0640   -6.9700    7.0327 C.2     1  UNL1        0.1533
     15 S          11.5319   -6.4916    7.7194 S.2     1  UNL1       -0.0170
     16 N           9.5491   -8.2459    7.3373 N.am    1  UNL1       -0.2453
     17 N          10.2979   -9.1066    8.2452 N.am    1  UNL1       -0.2311
     18 C           9.8910  -10.4043    8.5278 C.2     1  UNL1        0.2601
     19 O           8.8701  -10.8963    8.0539 O.2     1  UNL1       -0.2687
     20 C          10.7304  -11.2150    9.4851 C.ar    1  UNL1        0.0383
     21 C          10.8275  -12.6129    9.3442 C.ar    1  UNL1       -0.0478
     22 C          11.4136  -13.4192   10.3523 C.ar    1  UNL1       -0.0398
     23 C          11.9833  -12.8306   11.4873 C.ar    1  UNL1        0.0334
     24 N          12.6582  -13.6302   12.4536 N.am    1  UNL1       -0.2853
     25 C          13.3491  -13.1395   13.5526 C.2     1  UNL1        0.2203
     26 O          13.4405  -11.9619   13.8946 O.2     1  UNL1       -0.2752
     27 C          14.0643  -14.1108   14.4231 C.3     1  UNL1        0.0359
     28 C          14.3870  -15.5397   14.0980 C.3     1  UNL1       -0.0412
     29 C          15.4765  -14.5062   14.0369 C.3     1  UNL1       -0.0412
     30 C          11.8826  -11.4409   11.6082 C.ar    1  UNL1       -0.0398
     31 C          11.2796  -10.6381   10.6266 C.ar    1  UNL1       -0.0478
     32 C           7.4418   -4.5593    4.2944 C.ar    1  UNL1       -0.0462
     33 C           6.6138   -3.7183    3.5150 C.ar    1  UNL1       -0.0192
     34 H           0.5809    0.6729   -0.7225 H       1  UNL1        0.0252
     35 H           0.5897    0.4186    1.0387 H       1  UNL1        0.0252
     36 H           0.5893   -0.9717   -0.0426 H       1  UNL1        0.0252
     37 H           2.8520    1.0770    0.2124 H       1  UNL1        0.0557
     38 H           2.8525   -0.3312   -0.8852 H       1  UNL1        0.0557
     39 H           4.7738    0.2458    1.2863 H       1  UNL1        0.0594
     40 H           4.7857   -1.1597    0.2093 H       1  UNL1        0.0594
     41 H           4.5529   -2.6789    2.1315 H       1  UNL1        0.0720
     42 H           4.4826   -1.3045    3.2578 H       1  UNL1        0.0720
     43 H           8.4900   -0.8949    3.5254 H       1  UNL1        0.0654
     44 H          10.0104   -2.3798    4.7491 H       1  UNL1        0.0626
     45 H           8.4105   -6.5878    5.8366 H       1  UNL1        0.1569
     46 H           8.6769   -8.6472    6.9974 H       1  UNL1        0.1718
     47 H          11.1837   -8.7212    8.5736 H       1  UNL1        0.1731
     48 H          10.4357  -13.0883    8.4462 H       1  UNL1        0.0626
     49 H          11.3900  -14.5017   10.2320 H       1  UNL1        0.0636
     50 H          12.7014  -14.6262   12.2789 H       1  UNL1        0.1548
     51 H          13.9211  -13.8748   15.4768 H       1  UNL1        0.0394
     52 H          14.0443  -15.9722   13.1701 H       1  UNL1        0.0273
     53 H          14.3952  -16.2423   14.9258 H       1  UNL1        0.0273
     54 H          15.8465  -14.1995   13.0640 H       1  UNL1        0.0273
     55 H          16.2413  -14.4974   14.8070 H       1  UNL1        0.0273
     56 H          12.2408  -10.9252   12.4915 H       1  UNL1        0.0636
     57 H          11.2177   -9.5722   10.8212 H       1  UNL1        0.0626
     58 H           7.1089   -5.5738    4.4709 H       1  UNL1        0.0626
     59 H           5.6884   -4.1327    3.1301 H       1  UNL1        0.0654
@<TRIPOS>BOND
     1     1     2    1
     2     2     3    1
     3     3     4    1
     4     4     5    1
     5     5     6    1
     6     6     7    1
     7     7     8   ar
     8     8     9   ar
     9     9    10   ar
    10    10    11    1
    11    11    12    2
    12    11    13   am
    13    13    14    1
    14    14    15    2
    15    14    16    1
    16    16    17    1
    17    17    18   am
    18    18    19    2
    19    18    20    1
    20    20    21   ar
    21    21    22   ar
    22    22    23   ar
    23    23    24    1
    24    24    25   am
    25    25    26    2
    26    25    27    1
    27    27    28    1
    28    28    29    1
    29    27    29    1
    30    23    30   ar
    31    30    31   ar
    32    20    31   ar
    33    10    32   ar
    34    32    33   ar
    35     7    33   ar
    36     1    34    1
    37     1    35    1
    38     1    36    1
    39     2    37    1
    40     2    38    1
    41     4    39    1
    42     4    40    1
    43     5    41    1
    44     5    42    1
    45     8    43    1
    46     9    44    1
    47    13    45    1
    48    16    46    1
    49    17    47    1
    50    21    48    1
    51    22    49    1
    52    24    50    1
    53    27    51    1
    54    28    52    1
    55    28    53    1
    56    29    54    1
    57    29    55    1
    58    30    56    1
    59    31    57    1
    60    32    58    1
    61    33    59    1
