@<TRIPOS>MOLECULE
*****
 53 55 0 0 0
SMALL
GASTEIGER

@<TRIPOS>ATOM
      1 C           1.0448    0.0203    0.0774 C.3     1  UNL1        0.0230
      2 C           2.5416    0.0556    0.0537 C.ar    1  UNL1        0.2053
      3 C           3.2271    1.2571    0.0129 C.ar    1  UNL1        0.0105
      4 C           4.6065    1.2306   -0.0516 C.ar    1  UNL1       -0.0102
      5 C           5.2699    0.0246   -0.1982 C.ar    1  UNL1        0.1861
      6 N           6.6331   -0.0167   -0.4510 N.pl3   1  UNL1       -0.3230
      7 C           7.4525    1.1945   -0.6012 C.3     1  UNL1        0.0262
      8 C           8.9327    0.9303   -0.9401 C.3     1  UNL1        0.0272
      9 N           9.7515    2.1491   -1.0397 N.am    1  UNL1       -0.3125
     10 C          11.1076    2.0721   -1.3359 C.2     1  UNL1        0.2303
     11 O          11.6642    0.9891   -1.5196 O.2     1  UNL1       -0.2741
     12 C          11.8810    3.4127   -1.4192 C.3     1  UNL1        0.0884
     13 N          13.2883    3.2123   -1.7816 N.am    1  UNL1       -0.3028
     14 C          14.1906    4.2561   -1.8676 C.2     1  UNL1        0.2445
     15 O          13.8715    5.4274   -1.6526 O.2     1  UNL1       -0.2702
     16 C          15.6127    3.9112   -2.1845 C.ar    1  UNL1        0.0367
     17 C          15.9383    2.9419   -3.1389 C.ar    1  UNL1       -0.0491
     18 C          17.2718    2.5294   -3.3045 C.ar    1  UNL1       -0.0533
     19 C          18.3146    3.1335   -2.5872 C.ar    1  UNL1       -0.0178
     20 C          19.7012    2.6374   -2.6685 C.ar    1  UNL1       -0.0179
     21 C          20.3952    2.2711   -1.5002 C.ar    1  UNL1       -0.0540
     22 C          21.7552    1.9531   -1.5367 C.ar    1  UNL1       -0.0612
     23 C          22.4160    1.8795   -2.7583 C.ar    1  UNL1       -0.0617
     24 C          21.7106    2.0994   -3.9391 C.ar    1  UNL1       -0.0612
     25 C          20.3767    2.5196   -3.8921 C.ar    1  UNL1       -0.0540
     26 C          17.9888    4.2221   -1.7594 C.ar    1  UNL1       -0.0533
     27 C          16.6516    4.5806   -1.5256 C.ar    1  UNL1       -0.0491
     28 N           4.5766   -1.1307   -0.1041 N.ar    1  UNL1        0.0159
     29 N           3.2475   -1.0909    0.0718 N.ar    1  UNL1       -0.1009
     30 H           0.6310    1.0341    0.0079 H       1  UNL1        0.0337
     31 H           0.6768   -0.4279    1.0035 H       1  UNL1        0.0337
     32 H           0.6627   -0.5432   -0.7796 H       1  UNL1        0.0337
     33 H           2.7034    2.2093    0.0200 H       1  UNL1        0.0681
     34 H           5.1416    2.1731   -0.0277 H       1  UNL1        0.0656
     35 H           7.0523   -0.9237   -0.6359 H       1  UNL1        0.1477
     36 H           7.4132    1.7570    0.3390 H       1  UNL1        0.0477
     37 H           7.0279    1.8289   -1.3895 H       1  UNL1        0.0477
     38 H           9.0085    0.3986   -1.8960 H       1  UNL1        0.0477
     39 H           9.3814    0.2867   -0.1750 H       1  UNL1        0.0477
     40 H           9.3321    3.0597   -0.8885 H       1  UNL1        0.1488
     41 H          11.8352    3.9240   -0.4511 H       1  UNL1        0.0558
     42 H          11.4263    4.0529   -2.1820 H       1  UNL1        0.0558
     43 H          13.6126    2.2509   -1.8407 H       1  UNL1        0.1495
     44 H          15.1689    2.5043   -3.7676 H       1  UNL1        0.0625
     45 H          17.4940    1.7111   -3.9870 H       1  UNL1        0.0624
     46 H          19.8755    2.2369   -0.5443 H       1  UNL1        0.0624
     47 H          22.2957    1.7638   -0.6126 H       1  UNL1        0.0618
     48 H          23.4768    1.6439   -2.7906 H       1  UNL1        0.0618
     49 H          22.2047    1.9634   -4.8977 H       1  UNL1        0.0618
     50 H          19.8738    2.7737   -4.8220 H       1  UNL1        0.0624
     51 H          18.7847    4.7924   -1.2793 H       1  UNL1        0.0624
     52 H          16.4318    5.3728   -0.8127 H       1  UNL1        0.0625
     53 H           2.7565   -1.9769    0.2167 H       1  UNL1        0.4893
@<TRIPOS>UNITY_ATOM_ATTR
29 1
charge 1
@<TRIPOS>BOND
     1     1     2    1
     2     2     3   ar
     3     3     4   ar
     4     4     5   ar
     5     5     6    1
     6     6     7    1
     7     7     8    1
     8     8     9    1
     9     9    10   am
    10    10    11    2
    11    10    12    1
    12    12    13    1
    13    13    14   am
    14    14    15    2
    15    14    16    1
    16    16    17   ar
    17    17    18   ar
    18    18    19   ar
    19    19    20    1
    20    20    21   ar
    21    21    22   ar
    22    22    23   ar
    23    23    24   ar
    24    24    25   ar
    25    20    25   ar
    26    19    26   ar
    27    26    27   ar
    28    16    27   ar
    29     5    28   ar
    30    28    29   ar
    31     2    29   ar
    32     1    30    1
    33     1    31    1
    34     1    32    1
    35     3    33    1
    36     4    34    1
    37     6    35    1
    38     7    36    1
    39     7    37    1
    40     8    38    1
    41     8    39    1
    42     9    40    1
    43    12    41    1
    44    12    42    1
    45    13    43    1
    46    17    44    1
    47    18    45    1
    48    21    46    1
    49    22    47    1
    50    23    48    1
    51    24    49    1
    52    25    50    1
    53    26    51    1
    54    27    52    1
    55    29    53    1
