REMARK  8 active torsions:
REMARK  status: ('A' for Active; 'I' for Inactive)
REMARK    1  A    between atoms: C_2  and  N_3 
REMARK    2  A    between atoms: N_3  and  S_4 
REMARK    3  A    between atoms: S_4  and  C_7 
REMARK    4  A    between atoms: C_10  and  N_11 
REMARK    5  A    between atoms: N_11  and  C_12 
REMARK    6  A    between atoms: C_12  and  N_14 
REMARK    7  A    between atoms: N_14  and  N_15 
REMARK       I    between atoms: N_15  and  C_16 
REMARK    8  A    between atoms: C_16  and  C_18 
ROOT
ATOM      1  C   UNL d   1       6.846  -0.034   7.940  0.00  0.00     0.191 C 
ATOM      2  S   UNL d   1       6.954   1.633   7.632  0.00  0.00    -0.039 SA
ENDROOT
BRANCH   1   3
ATOM      3  N   UNL d   1       6.402  -1.067   7.074  0.00  0.00    -0.332 N 
ATOM      4  H   UNL d   1       6.466  -2.018   7.425  0.00  0.00     0.168 HD
BRANCH   3   5
ATOM      5  C   UNL d   1       5.970  -0.960   5.688  0.00  0.00     0.034 A 
ATOM      6  C   UNL d   1       5.675  -2.086   4.889  0.00  0.00     0.031 A 
ATOM      7  C   UNL d   1       5.367  -1.946   3.498  0.00  0.00     0.027 A 
ATOM      8  C   UNL d   1       5.256  -0.674   2.924  0.00  0.00     0.074 A 
ATOM      9  C   UNL d   1       5.534   0.430   3.695  0.00  0.00     0.027 A 
ATOM     10  C   UNL d   1       5.849   0.268   5.039  0.00  0.00     0.031 A 
BRANCH   8  11
ATOM     11  S   UNL d   1       4.806  -0.389   1.232  0.00  0.00     0.241 S 
ATOM     12  O   UNL d   1       5.193  -1.541   0.461  0.00  0.00    -0.206 OA
ATOM     13  O   UNL d   1       5.232   0.952   0.865  0.00  0.00    -0.206 OA
BRANCH  11  14
ATOM     14  N   UNL d   1       3.095  -0.368   1.278  0.00  0.00    -0.216 NA
ATOM     15  H   UNL d   1       2.749  -1.244   1.669  0.00  0.00     0.139 HD
BRANCH  14  16
ATOM     16  C   UNL d   1       2.512  -0.081  -0.060  0.00  0.00     0.100 C 
ATOM     17  C   UNL d   1       0.994  -0.083  -0.015  0.00  0.00     0.021 C 
ENDBRANCH  14  16
ENDBRANCH  11  14
ENDBRANCH   8  11
ENDBRANCH   3   5
ENDBRANCH   1   3
BRANCH   1  18
ATOM     18  N   UNL d   1       7.260  -0.453   9.219  0.00  0.00    -0.273 N 
ATOM     19  H   UNL d   1       7.282  -1.403   9.579  0.00  0.00     0.189 HD
BRANCH  18  20
ATOM     20  N   UNL d   1       7.740   0.580  10.114  0.00  0.00    -0.264 N 
ATOM     21  C   UNL d   1       8.136   0.354  11.411  0.00  0.00     0.271 C 
ATOM     22  O   UNL d   1       8.247  -0.772  11.888  0.00  0.00    -0.266 OA
ATOM     23  H   UNL d   1       7.597   1.529   9.762  0.00  0.00     0.190 HD
BRANCH  21  24
ATOM     24  C   UNL d   1       8.433   1.562  12.265  0.00  0.00     0.057 A 
ATOM     25  C   UNL d   1       9.458   1.442  13.225  0.00  0.00     0.042 A 
ATOM     26  C   UNL d   1       9.599   2.396  14.241  0.00  0.00     0.035 A 
ATOM     27 CL   UNL d   1      10.676   2.111  15.554  0.00  0.00    -0.084 Cl
ATOM     28  C   UNL d   1       8.802   3.535  14.261  0.00  0.00     0.025 A 
ATOM     29  C   UNL d   1       7.827   3.700  13.279  0.00  0.00     0.026 A 
ATOM     30  C   UNL d   1       7.637   2.722  12.287  0.00  0.00     0.050 A 
ATOM     31 CL   UNL d   1       6.356   3.030  11.173  0.00  0.00    -0.083 Cl
ENDBRANCH  21  24
ENDBRANCH  18  20
ENDBRANCH   1  18
TORSDOF 8
