@<TRIPOS>MOLECULE
*****
 58 60 0 0 0
SMALL
GASTEIGER

@<TRIPOS>ATOM
      1 C           0.9437   -0.0629   -0.0835 C.3     1  UNL1       -0.0647
      2 C           2.4554   -0.0120   -0.1264 C.3     1  UNL1       -0.0493
      3 C           3.0668    0.5322   -1.4583 C.3     1  UNL1       -0.0189
      4 C           2.5753    1.9553   -1.7149 C.3     1  UNL1       -0.0584
      5 C           4.6021    0.5343   -1.4433 C.ar    1  UNL1       -0.0426
      6 C           5.2198    0.3770   -0.1977 C.ar    1  UNL1       -0.0548
      7 C           6.5720    0.3024   -0.0975 C.ar    1  UNL1       -0.0181
      8 C           7.3196    0.2624   -1.2535 C.ar    1  UNL1        0.1380
      9 O           8.4947   -0.3645   -0.9720 O.3     1  UNL1       -0.5049
     10 C           6.8461    0.5524   -2.5424 C.ar    1  UNL1        0.0749
     11 N           7.7241    0.6399   -3.7255 N.am    1  UNL1       -0.2937
     12 C           9.1659    0.7043   -3.7452 C.2     1  UNL1        0.1412
     13 S          10.1785    1.0121   -2.4180 S.2     1  UNL1       -0.0182
     14 N           9.7581    0.6820   -5.0428 N.am    1  UNL1       -0.2635
     15 C          11.1243    0.8910   -5.2673 C.2     1  UNL1        0.2515
     16 O          12.0432    0.7566   -4.4350 O.2     1  UNL1       -0.2697
     17 C          11.6660    1.2594   -6.5716 C.ar    1  UNL1        0.0644
     18 C          12.8541    0.5591   -6.8925 C.ar    1  UNL1        0.0295
     19 C          13.6455    0.9737   -7.9450 C.ar    1  UNL1        0.2740
     20 N          14.9847    0.3964   -8.1346 N.pl3   1  UNL1        0.0796
     21 O          15.3530   -0.4816   -7.3234 O.2     1  UNL1        0.0414
     22 O          15.6692    0.8182   -9.0613 O.co2   1  UNL1       -0.5760
     23 C          13.1990    2.0160   -8.7600 C.ar    1  UNL1        0.0174
     24 C          12.0081    2.7047   -8.4343 C.ar    1  UNL1       -0.0335
     25 C          11.2320    2.3770   -7.3046 C.ar    1  UNL1        0.0425
     26 N          10.1488    3.1453   -6.9399 N.pl3   1  UNL1       -0.3249
     27 C          10.0988    3.9564   -5.7051 C.3     1  UNL1        0.0357
     28 C           8.7786    3.6874   -4.9654 C.3     1  UNL1        0.0634
     29 O           7.6049    3.6938   -5.7937 O.3     1  UNL1       -0.3767
     30 C           7.7356    2.8831   -6.9749 C.3     1  UNL1        0.0634
     31 C           8.9726    3.2773   -7.7983 C.3     1  UNL1        0.0357
     32 C           5.4274    0.6868   -2.6177 C.ar    1  UNL1       -0.0335
     33 H           0.6166   -0.4657    0.8812 H       1  UNL1        0.0230
     34 H           0.5574   -0.6978   -0.8821 H       1  UNL1        0.0230
     35 H           0.5159    0.9382   -0.1723 H       1  UNL1        0.0230
     36 H           2.8415   -1.0223    0.0744 H       1  UNL1        0.0268
     37 H           2.7568    0.6221    0.7189 H       1  UNL1        0.0268
     38 H           2.7312   -0.1322   -2.2653 H       1  UNL1        0.0346
     39 H           2.9039    2.6267   -0.9128 H       1  UNL1        0.0236
     40 H           1.4844    2.0031   -1.7696 H       1  UNL1        0.0236
     41 H           2.9611    2.3432   -2.6611 H       1  UNL1        0.0236
     42 H           4.6925    0.2101    0.7329 H       1  UNL1        0.0622
     43 H           7.0422    0.0952    0.8568 H       1  UNL1        0.0655
     44 H           9.0501    0.3315   -0.5642 H       1  UNL1        0.2922
     45 H           7.2209    0.8644   -4.5808 H       1  UNL1        0.1539
     46 H           9.1795    0.8843   -5.8456 H       1  UNL1        0.1568
     47 H          13.1847   -0.2496   -6.2340 H       1  UNL1        0.0693
     48 H          13.7835    2.3287   -9.6216 H       1  UNL1        0.0686
     49 H          11.7414    3.5681   -9.0423 H       1  UNL1        0.0638
     50 H          10.1214    5.0187   -5.9717 H       1  UNL1        0.0486
     51 H          10.9543    3.7644   -5.0455 H       1  UNL1        0.0486
     52 H           8.6349    4.3550   -4.1111 H       1  UNL1        0.0575
     53 H           8.8259    2.7208   -4.5220 H       1  UNL1        0.0575
     54 H           6.8267    3.0170   -7.5662 H       1  UNL1        0.0575
     55 H           7.7559    1.8227   -6.7015 H       1  UNL1        0.0575
     56 H           8.8708    4.3226   -8.1083 H       1  UNL1        0.0486
     57 H           9.0478    2.6500   -8.6920 H       1  UNL1        0.0486
     58 H           4.9194    0.8517   -3.5688 H       1  UNL1        0.0640
@<TRIPOS>UNITY_ATOM_ATTR
20 1
charge 1
22 1
charge -1
@<TRIPOS>BOND
     1     1     2    1
     2     2     3    1
     3     3     4    1
     4     3     5    1
     5     5     6   ar
     6     6     7   ar
     7     7     8   ar
     8     8     9    1
     9     8    10   ar
    10    10    11    1
    11    11    12    1
    12    12    13    2
    13    12    14    1
    14    14    15   am
    15    15    16    2
    16    15    17    1
    17    17    18   ar
    18    18    19   ar
    19    19    20    1
    20    20    21    2
    21    20    22    1
    22    19    23   ar
    23    23    24   ar
    24    24    25   ar
    25    17    25   ar
    26    25    26    1
    27    26    27    1
    28    27    28    1
    29    28    29    1
    30    29    30    1
    31    30    31    1
    32    26    31    1
    33    10    32   ar
    34     5    32   ar
    35     1    33    1
    36     1    34    1
    37     1    35    1
    38     2    36    1
    39     2    37    1
    40     3    38    1
    41     4    39    1
    42     4    40    1
    43     4    41    1
    44     6    42    1
    45     7    43    1
    46     9    44    1
    47    11    45    1
    48    14    46    1
    49    18    47    1
    50    23    48    1
    51    24    49    1
    52    27    50    1
    53    27    51    1
    54    28    52    1
    55    28    53    1
    56    30    54    1
    57    30    55    1
    58    31    56    1
    59    31    57    1
    60    32    58    1
