REMARK  3 active torsions:
REMARK  status: ('A' for Active; 'I' for Inactive)
REMARK       I    between atoms: C_2  and  N_4 
REMARK    1  A    between atoms: N_4  and  C_5 
REMARK    2  A    between atoms: C_8  and  N_9 
REMARK       I    between atoms: N_9  and  C_10 
REMARK    3  A    between atoms: C_10  and  C_12 
ROOT
ATOM      1  C   UNL d   1       4.736   0.229   1.228  0.00  0.00     0.036 A 
ATOM      2  C   UNL d   1       5.550   0.865   0.297  0.00  0.00     0.032 A 
ATOM      3  C   UNL d   1       6.958   0.815   0.414  0.00  0.00     0.033 A 
ATOM      4  C   UNL d   1       7.598   0.083   1.447  0.00  0.00     0.057 A 
ATOM      5  C   UNL d   1       6.735  -0.578   2.359  0.00  0.00     0.062 A 
ATOM      6 CL   UNL d   1       7.117  -1.652   3.656  0.00  0.00    -0.082 Cl
ATOM      7  C   UNL d   1       5.337  -0.458   2.264  0.00  0.00     0.055 A 
ENDROOT
BRANCH   4   8
ATOM      8  N   UNL d   1       9.042   0.098   1.440  0.00  0.00    -0.321 N 
ATOM      9  C   UNL d   1       9.885  -0.549   2.327  0.00  0.00     0.256 C 
ATOM     10  O   UNL d   1       9.592  -1.217   3.312  0.00  0.00    -0.267 OA
ATOM     11  H   UNL d   1       9.482   0.618   0.685  0.00  0.00     0.169 HD
BRANCH   9  12
ATOM     12  C   UNL d   1      11.343  -0.489   2.161  0.00  0.00     0.032 A 
ATOM     13  C   UNL d   1      12.024   0.720   2.052  0.00  0.00     0.018 A 
ATOM     14  C   UNL d   1      13.422   0.714   2.114  0.00  0.00     0.025 A 
ATOM     15  C   UNL d   1      14.122  -0.486   2.300  0.00  0.00     0.034 A 
ATOM     16 CL   UNL d   1      15.841  -0.478   2.330  0.00  0.00    -0.084 Cl
ATOM     17  C   UNL d   1      13.441  -1.687   2.466  0.00  0.00     0.025 A 
ATOM     18  C   UNL d   1      12.053  -1.685   2.402  0.00  0.00     0.018 A 
ENDBRANCH   9  12
ENDBRANCH   4   8
BRANCH   1  19
ATOM     19  N   UNL d   1       3.326   0.235   1.161  0.00  0.00    -0.327 N 
ATOM     20  C   UNL d   1       2.654   0.016  -0.030  0.00  0.00     0.218 C 
ATOM     21  C   UNL d   1       1.152  -0.013   0.093  0.00  0.00     0.117 C 
ATOM     22  O   UNL d   1       3.197  -0.178  -1.115  0.00  0.00    -0.274 OA
ATOM     23  H   UNL d   1       2.821   0.058   2.022  0.00  0.00     0.169 HD
ENDBRANCH   1  19
TORSDOF 3
