REMARK  6 active torsions:
REMARK  status: ('A' for Active; 'I' for Inactive)
REMARK    1  A    between atoms: C_4  and  C_2 
REMARK    2  A    between atoms: C_4  and  C_9 
REMARK    3  A    between atoms: C_4  and  N_5 
REMARK       I    between atoms: N_5  and  C_6 
REMARK       I    between atoms: C_6  and  N_7 
REMARK       I    between atoms: C_9  and  N_11 
REMARK    4  A    between atoms: N_11  and  C_12 
REMARK    5  A    between atoms: C_15  and  O_16 
REMARK    6  A    between atoms: O_16  and  C_17 
ROOT
ATOM      1  C   UNL d   1      11.683  -1.736   1.253  0.00  0.00     0.076 A 
ATOM      2  C   UNL d   1      12.671  -0.975   0.624  0.00  0.00     0.039 A 
ATOM      3  C   UNL d   1      13.513  -0.152   1.390  0.00  0.00     0.025 A 
ATOM      4  C   UNL d   1      13.291   0.009   2.763  0.00  0.00     0.044 A 
ATOM      5  C   UNL d   1      14.054   0.953   3.519  0.00  0.00     0.099 C 
ATOM      6  N   UNL d   1      14.651   1.747   4.137  0.00  0.00    -0.191 NA
ATOM      7  C   UNL d   1      12.284  -0.733   3.384  0.00  0.00     0.025 A 
ATOM      8  C   UNL d   1      11.512  -1.626   2.637  0.00  0.00     0.039 A 
ENDROOT
BRANCH   1   9
ATOM      9  O   UNL d   1      10.973  -2.662   0.508  0.00  0.00    -0.311 OA
BRANCH   9  10
ATOM     10  C   UNL d   1       9.592  -2.666   0.574  0.00  0.00     0.076 A 
ATOM     11  C   UNL d   1       8.899  -3.696  -0.083  0.00  0.00     0.039 A 
ATOM     12  C   UNL d   1       7.493  -3.657  -0.194  0.00  0.00     0.032 A 
ATOM     13  C   UNL d   1       6.787  -2.638   0.447  0.00  0.00     0.035 A 
ATOM     14  C   UNL d   1       7.487  -1.651   1.130  0.00  0.00     0.032 A 
ATOM     15  C   UNL d   1       8.863  -1.653   1.183  0.00  0.00     0.039 A 
BRANCH  13  16
ATOM     16  N   UNL d   1       5.377  -2.566   0.478  0.00  0.00    -0.325 N 
ATOM     17  C   UNL d   1       4.759  -1.342   0.249  0.00  0.00     0.245 C 
ATOM     18  O   UNL d   1       5.439  -0.332   0.058  0.00  0.00    -0.271 OA
ATOM     19  H   UNL d   1       4.859  -3.433   0.446  0.00  0.00     0.169 HD
BRANCH  17  20
ATOM     20  C   UNL d   1       3.220  -1.286   0.122  0.00  0.00     0.182 C 
BRANCH  20  21
ATOM     21  N   UNL d   1       2.645   0.106   0.117  0.00  0.00    -0.330 N 
ATOM     22  C   UNL d   1       2.980   1.312  -0.398  0.00  0.00     0.314 C 
ATOM     23  N   UNL d   1       4.244   1.602  -0.713  0.00  0.00    -0.352 N 
ATOM     24  O   UNL d   1       2.110   2.169  -0.533  0.00  0.00    -0.248 OA
ATOM     25  H   UNL d   1       5.009   0.982  -0.464  0.00  0.00     0.160 HD
ATOM     26  H   UNL d   1       4.497   2.564  -0.889  0.00  0.00     0.160 HD
ATOM     27  H   UNL d   1       1.639   0.121   0.226  0.00  0.00     0.165 HD
ENDBRANCH  20  21
BRANCH  20  28
ATOM     28  C   UNL d   1       2.629  -2.219  -0.989  0.00  0.00     0.009 C 
ATOM     29  C   UNL d   1       3.681  -2.893  -1.875  0.00  0.00     0.012 C 
ATOM     30  C   UNL d   1       1.661  -1.475  -1.908  0.00  0.00     0.012 C 
ENDBRANCH  20  28
ENDBRANCH  17  20
ENDBRANCH  13  16
ENDBRANCH   9  10
ENDBRANCH   1   9
TORSDOF 6
