@<TRIPOS>MOLECULE
*****
 35 36 0 0 0
SMALL
GASTEIGER

@<TRIPOS>ATOM
      1 C           2.4954   -0.0094   -0.0051 C.3     1  UNL1       -0.0397
      2 C           0.9971   -0.0070    0.0157 C.ar    1  UNL1       -0.0487
      3 C           0.2662   -1.1955    0.0260 C.ar    1  UNL1       -0.0587
      4 C          -1.1259   -1.1516    0.0126 C.ar    1  UNL1       -0.0597
      5 C          -1.7908    0.0821   -0.0442 C.ar    1  UNL1       -0.0394
      6 C          -1.0764    1.2951   -0.0724 C.ar    1  UNL1        0.0447
      7 N          -1.7704    2.5157   -0.3446 N.pl3   1  UNL1       -0.2642
      8 N          -1.0929    3.7089    0.1145 N.am    1  UNL1       -0.2324
      9 C          -1.8176    4.8995    0.0824 C.2     1  UNL1        0.2636
     10 O          -1.4147    5.8510   -0.5941 O.2     1  UNL1       -0.2685
     11 C          -3.0070    5.0700    0.9810 C.ar    1  UNL1        0.0795
     12 C          -3.6984    6.2988    0.9678 C.ar    1  UNL1       -0.0458
     13 C          -4.7692    6.5272    1.8454 C.ar    1  UNL1       -0.0579
     14 C          -5.1718    5.5312    2.7404 C.ar    1  UNL1       -0.0470
     15 C          -6.3002    5.7398    3.7034 C.3     1  UNL1       -0.0396
     16 C          -4.4914    4.3132    2.7558 C.ar    1  UNL1       -0.0165
     17 C          -3.4129    4.0971    1.9045 C.ar    1  UNL1        0.1292
     18 O          -2.7571    2.9077    2.0188 O.3     1  UNL1       -0.5060
     19 C           0.3198    1.2222   -0.0252 C.ar    1  UNL1       -0.0365
     20 H           2.8978   -1.0264    0.0054 H       1  UNL1        0.0278
     21 H           2.8836    0.5223    0.8692 H       1  UNL1        0.0278
     22 H           2.8519    0.4859   -0.9147 H       1  UNL1        0.0278
     23 H           0.7755   -2.1567    0.0246 H       1  UNL1        0.0620
     24 H          -1.6904   -2.0816    0.0104 H       1  UNL1        0.0618
     25 H          -2.8773    0.0773   -0.0881 H       1  UNL1        0.0636
     26 H          -2.7035    2.4567    0.0735 H       1  UNL1        0.1700
     27 H          -0.2002    3.8200   -0.3514 H       1  UNL1        0.1730
     28 H          -3.3943    7.1021    0.2956 H       1  UNL1        0.0626
     29 H          -5.2772    7.4907    1.8345 H       1  UNL1        0.0620
     30 H          -6.7369    6.7369    3.6035 H       1  UNL1        0.0278
     31 H          -5.9367    5.6283    4.7308 H       1  UNL1        0.0278
     32 H          -7.0863    4.9999    3.5207 H       1  UNL1        0.0278
     33 H          -4.7919    3.5374    3.4536 H       1  UNL1        0.0657
     34 H          -3.1632    2.3243    2.6754 H       1  UNL1        0.2922
     35 H           0.9165    2.1268   -0.0459 H       1  UNL1        0.0639
@<TRIPOS>BOND
     1     1     2    1
     2     2     3   ar
     3     3     4   ar
     4     4     5   ar
     5     5     6   ar
     6     6     7    1
     7     7     8    1
     8     8     9   am
     9     9    10    2
    10     9    11    1
    11    11    12   ar
    12    12    13   ar
    13    13    14   ar
    14    14    15    1
    15    14    16   ar
    16    16    17   ar
    17    11    17   ar
    18    17    18    1
    19     6    19   ar
    20     2    19   ar
    21     1    20    1
    22     1    21    1
    23     1    22    1
    24     3    23    1
    25     4    24    1
    26     5    25    1
    27     7    26    1
    28     8    27    1
    29    12    28    1
    30    13    29    1
    31    15    30    1
    32    15    31    1
    33    15    32    1
    34    16    33    1
    35    18    34    1
    36    19    35    1
