REMARK  8 active torsions:
REMARK  status: ('A' for Active; 'I' for Inactive)
REMARK    1  A    between atoms: C_2  and  C_3 
REMARK    2  A    between atoms: C_3  and  C_4 
REMARK    3  A    between atoms: C_4  and  N_5 
REMARK       I    between atoms: N_5  and  C_6 
REMARK       I    between atoms: C_6  and  N_8 
REMARK    4  A    between atoms: N_8  and  N_9 
REMARK       I    between atoms: N_9  and  C_10 
REMARK    5  A    between atoms: C_12  and  C_10 
REMARK    6  A    between atoms: C_12  and  O_14 
REMARK    7  A    between atoms: O_14  and  C_15 
REMARK    8  A    between atoms: C_18  and  O_19 
ROOT
ATOM      1  N   UNL d   1       9.984  -3.912  -3.803  0.00  0.00    -0.264 N 
ATOM      2  C   UNL d   1      10.936  -3.310  -4.602  0.00  0.00     0.265 C 
ATOM      3  O   UNL d   1      12.125  -3.456  -4.295  0.00  0.00    -0.269 OA
ATOM      4  H   UNL d   1       9.046  -3.534  -3.670  0.00  0.00     0.190 HD
ENDROOT
BRANCH   2   5
ATOM      5  C   UNL d   1      10.447  -2.479  -5.874  0.00  0.00     0.218 C 
ATOM      6  C   UNL d   1       8.927  -2.256  -5.753  0.00  0.00     0.050 C 
BRANCH   5   7
ATOM      7  O   UNL d   1      10.655  -2.875  -7.247  0.00  0.00    -0.337 OA
BRANCH   7   8
ATOM      8  C   UNL d   1      11.929  -3.063  -7.714  0.00  0.00     0.070 A 
ATOM      9  C   UNL d   1      12.265  -2.706  -9.023  0.00  0.00     0.039 A 
ATOM     10  C   UNL d   1      13.539  -3.034  -9.551  0.00  0.00     0.039 A 
ATOM     11  C   UNL d   1      14.518  -3.632  -8.748  0.00  0.00     0.068 A 
ATOM     12  C   UNL d   1      14.167  -3.996  -7.464  0.00  0.00     0.039 A 
ATOM     13  C   UNL d   1      12.878  -3.769  -7.001  0.00  0.00     0.039 A 
BRANCH  11  14
ATOM     14  O   UNL d   1      15.758  -3.854  -9.285  0.00  0.00    -0.356 OA
ATOM     15  C   UNL d   1      16.741  -4.353  -8.369  0.00  0.00     0.210 C 
ENDBRANCH  11  14
ENDBRANCH   7   8
ENDBRANCH   5   7
ENDBRANCH   2   5
BRANCH   1  16
ATOM     16  N   UNL d   1      10.435  -4.717  -2.735  0.00  0.00    -0.249 N 
ATOM     17  C   UNL d   1       9.539  -5.051  -1.753  0.00  0.00     0.334 C 
ATOM     18  N   UNL d   1      10.016  -5.932  -0.820  0.00  0.00    -0.342 N 
ATOM     19  O   UNL d   1       8.393  -4.593  -1.740  0.00  0.00    -0.246 OA
ATOM     20  H   UNL d   1      10.958  -6.287  -0.898  0.00  0.00     0.164 HD
ATOM     21  H   UNL d   1      11.400  -5.033  -2.781  0.00  0.00     0.192 HD
BRANCH  18  22
ATOM     22  C   UNL d   1       9.156  -6.382   0.261  0.00  0.00     0.124 C 
BRANCH  22  23
ATOM     23  C   UNL d   1       9.837  -7.370   1.204  0.00  0.00     0.019 C 
BRANCH  23  24
ATOM     24  C   UNL d   1       8.895  -7.807   2.331  0.00  0.00    -0.003 C 
ATOM     25  C   UNL d   1       9.577  -8.790   3.270  0.00  0.00     0.005 C 
ENDBRANCH  23  24
ENDBRANCH  22  23
ENDBRANCH  18  22
ENDBRANCH   1  16
TORSDOF 8
