REMARK  9 active torsions:
REMARK  status: ('A' for Active; 'I' for Inactive)
REMARK    1  A    between atoms: C_3  and  N_4 
REMARK       I    between atoms: N_4  and  C_5 
REMARK    2  A    between atoms: C_5  and  C_7 
REMARK    3  A    between atoms: C_7  and  C_8 
REMARK    4  A    between atoms: C_8  and  N_9 
REMARK       I    between atoms: N_9  and  C_10 
REMARK       I    between atoms: C_10  and  N_12 
REMARK    5  A    between atoms: N_12  and  C_13 
REMARK    6  A    between atoms: C_13  and  C_14 
REMARK    7  A    between atoms: C_14  and  N_15 
REMARK    8  A    between atoms: N_15  and  C_16 
REMARK    9  A    between atoms: C_19  and  N_20 
ROOT
ATOM      1  C   UNL d   1       0.960  -0.070  -0.059  0.00  0.00     0.014 C 
ATOM      2  C   UNL d   1       2.264  -0.070  -0.059  0.00  0.00    -0.098 C 
ATOM      3  C   UNL d   1       3.784  -0.070  -0.059  0.00  0.00     0.216 C 
ENDROOT
BRANCH   3   4
ATOM      4  N   UNL d   1       4.341   0.710  -1.182  0.00  0.00    -0.351 N 
ATOM      5  C   UNL d   1       5.715   0.832  -1.358  0.00  0.00     0.219 C 
ATOM      6  O   UNL d   1       6.502   0.294  -0.583  0.00  0.00    -0.274 OA
ATOM      7  H   UNL d   1       3.698   1.155  -1.823  0.00  0.00     0.163 HD
BRANCH   5   8
ATOM      8  C   UNL d   1       6.202   1.670  -2.564  0.00  0.00     0.122 C 
BRANCH   8   9
ATOM      9  C   UNL d   1       7.749   1.726  -2.644  0.00  0.00     0.133 C 
BRANCH   9  10
ATOM     10  N   UNL d   1       8.325   2.504  -3.762  0.00  0.00    -0.343 N 
ATOM     11  C   UNL d   1       9.695   2.608  -3.914  0.00  0.00     0.316 C 
ATOM     12  O   UNL d   1      10.498   2.077  -3.150  0.00  0.00    -0.247 OA
ATOM     13  N   UNL d   1      10.102   3.360  -4.995  0.00  0.00    -0.342 N 
ATOM     14  H   UNL d   1       9.415   3.773  -5.605  0.00  0.00     0.164 HD
ATOM     15  H   UNL d   1       7.714   2.958  -4.422  0.00  0.00     0.164 HD
BRANCH  13  16
ATOM     16  C   UNL d   1      11.537   3.547  -5.289  0.00  0.00     0.144 C 
BRANCH  16  17
ATOM     17  C   UNL d   1      11.828   4.408  -6.535  0.00  0.00     0.139 C 
BRANCH  17  18
ATOM     18  N   UNL d   1      13.252   4.495  -6.878  0.00  0.00    -0.388 N 
ATOM     19  H   UNL d   1      13.948   4.127  -6.234  0.00  0.00     0.159 HD
BRANCH  18  20
ATOM     20  C   UNL d   1      13.700   5.352  -7.876  0.00  0.00     0.028 A 
ATOM     21  C   UNL d   1      14.734   4.954  -8.739  0.00  0.00     0.031 A 
ATOM     22  C   UNL d   1      15.167   5.778  -9.793  0.00  0.00     0.038 A 
ATOM     23  C   UNL d   1      14.522   6.998 -10.021  0.00  0.00     0.103 A 
ATOM     24  C   UNL d   1      13.519   7.431  -9.153  0.00  0.00     0.038 A 
ATOM     25  C   UNL d   1      13.123   6.609  -8.092  0.00  0.00     0.031 A 
BRANCH  23  26
ATOM     26  N   UNL d   1      14.843   7.798 -11.211  0.00  0.00    -0.116 N 
ATOM     27  O   UNL d   1      15.713   7.367 -11.980  0.00  0.00    -0.532 OA
ATOM     28  O   UNL d   1      14.202   8.844 -11.392  0.00  0.00    -0.532 OA
ENDBRANCH  23  26
ENDBRANCH  18  20
ENDBRANCH  17  18
ENDBRANCH  16  17
ENDBRANCH  13  16
ENDBRANCH   9  10
ENDBRANCH   8   9
ENDBRANCH   5   8
ENDBRANCH   3   4
TORSDOF 9
