REMARK  7 active torsions:
REMARK  status: ('A' for Active; 'I' for Inactive)
REMARK    1  A    between atoms: O_2  and  C_3 
REMARK    2  A    between atoms: C_8  and  N_9 
REMARK       I    between atoms: N_9  and  C_10 
REMARK       I    between atoms: C_10  and  N_11 
REMARK       I    between atoms: C_10  and  N_23 
REMARK       I    between atoms: N_11  and  C_12 
REMARK    3  A    between atoms: C_12  and  C_14 
REMARK    4  A    between atoms: C_18  and  N_19 
REMARK    5  A    between atoms: N_23  and  C_24 
REMARK    6  A    between atoms: C_24  and  C_25 
REMARK    7  A    between atoms: C_25  and  C_26 
ROOT
ATOM      1  N   UNL d   1       1.863   0.483  -2.657  0.00  0.00    -0.324 N 
ATOM      2  C   UNL d   1       1.265   1.618  -1.798  0.00  0.00     0.205 C 
ATOM      3  N   UNL d   1       1.616   2.182  -0.562  0.00  0.00    -0.175 NA
ATOM      4  C   UNL d   1       2.306   1.254   0.201  0.00  0.00     0.280 C 
ATOM      5  O   UNL d   1       2.065   0.344  -0.344  0.00  0.00    -0.265 OA
ATOM      6  N   UNL d   1      -0.106   1.843  -2.101  0.00  0.00    -0.360 N 
ATOM      7  H   UNL d   1       1.420   0.282  -3.557  0.00  0.00     0.169 HD
ATOM      8  H   UNL d   1      -0.508   1.698  -3.024  0.00  0.00     0.162 HD
ENDROOT
BRANCH   1   9
ATOM      9  C   UNL d   1       2.838  -0.688  -2.334  0.00  0.00     0.068 C 
ATOM     10  C   UNL d   1       3.617  -1.242  -3.375  0.00  0.00     0.032 C 
ATOM     11  C   UNL d   1       4.722  -2.099  -3.057  0.00  0.00     0.002 C 
ATOM     12  C   UNL d   1       5.199  -2.286  -1.744  0.00  0.00     0.003 C 
ATOM     13  C   UNL d   1       4.427  -1.846  -0.695  0.00  0.00     0.039 C 
ATOM     14  C   UNL d   1       3.165  -1.304  -1.014  0.00  0.00     0.095 C 
BRANCH  14  15
ATOM     15  O   UNL d   1       2.236  -1.654   0.092  0.00  0.00    -0.354 OA
ATOM     16  C   UNL d   1       0.769  -1.268   0.196  0.00  0.00     0.210 C 
ENDBRANCH  14  15
ENDBRANCH   1   9
BRANCH   6  17
ATOM     17  C   UNL d   1      -0.992   2.322  -1.024  0.00  0.00     0.127 C 
BRANCH  17  18
ATOM     18  C   UNL d   1      -2.184   3.063  -1.565  0.00  0.00     0.056 C 
BRANCH  18  19
ATOM     19  C   UNL d   1      -3.068   3.770  -0.581  0.00  0.00    -0.048 A 
ATOM     20  C   UNL d   1      -4.087   4.491  -1.046  0.00  0.00    -0.006 A 
ATOM     21  C   UNL d   1      -4.500   4.713  -2.382  0.00  0.00     0.014 C 
ATOM     22  C   UNL d   1      -4.736   5.120   0.102  0.00  0.00     0.038 A 
ATOM     23  C   UNL d   1      -5.441   5.629  -2.608  0.00  0.00     0.001 C 
ATOM     24  C   UNL d   1      -6.152   6.254  -1.506  0.00  0.00     0.002 C 
ATOM     25  C   UNL d   1      -5.853   6.048  -0.203  0.00  0.00     0.030 C 
ATOM     26  N   UNL d   1      -4.199   4.739   1.202  0.00  0.00    -0.385 N 
ATOM     27  C   UNL d   1      -3.009   3.850   0.920  0.00  0.00     0.155 A 
ATOM     28  H   UNL d   1      -4.582   5.019   2.106  0.00  0.00     0.160 HD
ENDBRANCH  18  19
ENDBRANCH  17  18
ENDBRANCH   6  17
BRANCH   4  29
ATOM     29  C   UNL d   1       2.725   0.770   1.695  0.00  0.00     0.036 C 
ATOM     30  C   UNL d   1       4.051   0.354   1.955  0.00  0.00     0.017 C 
ATOM     31  C   UNL d   1       4.427  -0.289   3.178  0.00  0.00     0.003 C 
ATOM     32  C   UNL d   1       3.492  -0.611   4.172  0.00  0.00     0.029 C 
ATOM     33  C   UNL d   1       2.138  -0.523   3.894  0.00  0.00     0.030 C 
ATOM     34  C   UNL d   1       1.839   0.141   2.661  0.00  0.00     0.046 C 
BRANCH  33  35
ATOM     35  N   UNL d   1       1.136  -1.053   4.713  0.00  0.00    -0.390 N 
ATOM     36  C   UNL d   1       1.407  -1.389   6.115  0.00  0.00     0.149 C 
ATOM     37  C   UNL d   1      -0.292  -1.131   4.352  0.00  0.00     0.149 C 
ENDBRANCH  33  35
ENDBRANCH   4  29
TORSDOF 7
