@<TRIPOS>MOLECULE
*****
 49 50 0 0 0
SMALL
GASTEIGER

@<TRIPOS>ATOM
      1 C           2.4638   -0.0041   -0.0126 C.3     1  UNL1       -0.0397
      2 C           0.9606   -0.0022    0.0023 C.ar    1  UNL1       -0.0504
      3 C           0.2243   -1.1901    0.0039 C.ar    1  UNL1       -0.0581
      4 C          -1.1839   -1.1586   -0.0026 C.ar    1  UNL1       -0.0493
      5 C          -1.8899    0.0613   -0.0115 C.ar    1  UNL1        0.0382
      6 C          -3.4050    0.0513   -0.0406 C.2     1  UNL1        0.2601
      7 O          -4.0139   -1.0229   -0.0538 O.2     1  UNL1       -0.2687
      8 N          -4.0740    1.2725   -0.0569 N.am    1  UNL1       -0.2304
      9 N          -5.4996    1.3293   -0.0891 N.am    1  UNL1       -0.2341
     10 C          -6.1129    2.5790   -0.1012 C.2     1  UNL1        0.2295
     11 O          -5.4545    3.6212   -0.0887 O.2     1  UNL1       -0.2743
     12 C          -7.6418    2.5804   -0.1315 C.3     1  UNL1        0.0336
     13 C          -8.2608    4.0061   -0.1385 C.3     1  UNL1        0.0326
     14 C          -9.7904    3.9493   -0.1487 C.2     1  UNL1        0.2177
     15 O         -10.3627    2.8594   -0.1631 O.2     1  UNL1       -0.2755
     16 N         -10.4580    5.1778   -0.1833 N.am    1  UNL1       -0.2855
     17 C         -11.8828    5.2531   -0.2065 C.ar    1  UNL1        0.0336
     18 C         -12.6409    4.4081    0.6044 C.ar    1  UNL1       -0.0402
     19 C         -14.0364    4.4230    0.5614 C.ar    1  UNL1       -0.0568
     20 C         -14.7203    5.2790   -0.3083 C.ar    1  UNL1       -0.0474
     21 C         -16.2240    5.2165   -0.3548 C.3     1  UNL1       -0.0395
     22 C         -13.9769    6.1592   -1.1207 C.ar    1  UNL1       -0.0458
     23 C         -14.6606    7.0783   -2.1026 C.3     1  UNL1       -0.0394
     24 C         -12.5579    6.1594   -1.0390 C.ar    1  UNL1       -0.0373
     25 C          -1.1393    1.2440   -0.0005 C.ar    1  UNL1       -0.0493
     26 C           0.2653    1.2110    0.0047 C.ar    1  UNL1       -0.0581
     27 H           2.8710   -1.0206    0.0007 H       1  UNL1        0.0278
     28 H           2.8551    0.5235    0.8641 H       1  UNL1        0.0278
     29 H           2.8333    0.4911   -0.9174 H       1  UNL1        0.0278
     30 H           0.7398   -2.1501    0.0057 H       1  UNL1        0.0620
     31 H          -1.7212   -2.1064   -0.0045 H       1  UNL1        0.0625
     32 H          -3.6159    2.1792   -0.0509 H       1  UNL1        0.1731
     33 H          -5.9905    0.4356   -0.1007 H       1  UNL1        0.1728
     34 H          -8.0068    2.0292    0.7442 H       1  UNL1        0.0363
     35 H          -7.9719    2.0357   -1.0251 H       1  UNL1        0.0363
     36 H          -7.9184    4.5551   -1.0232 H       1  UNL1        0.0363
     37 H          -7.9369    4.5566    0.7521 H       1  UNL1        0.0363
     38 H          -9.9427    6.0138   -0.4309 H       1  UNL1        0.1548
     39 H         -12.1524    3.7293    1.2981 H       1  UNL1        0.0636
     40 H         -14.5830    3.7414    1.2091 H       1  UNL1        0.0621
     41 H         -16.6241    4.4920    0.3624 H       1  UNL1        0.0278
     42 H         -16.5606    4.9100   -1.3511 H       1  UNL1        0.0278
     43 H         -16.6536    6.1922   -0.1053 H       1  UNL1        0.0278
     44 H         -15.7519    6.9957   -2.0745 H       1  UNL1        0.0278
     45 H         -14.3549    6.8367   -3.1255 H       1  UNL1        0.0278
     46 H         -14.4166    8.1203   -1.8784 H       1  UNL1        0.0278
     47 H         -11.9990    6.8233   -1.6948 H       1  UNL1        0.0639
     48 H          -1.6091    2.2196    0.0010 H       1  UNL1        0.0625
     49 H           0.8171    2.1497    0.0060 H       1  UNL1        0.0620
@<TRIPOS>BOND
     1     1     2    1
     2     2     3   ar
     3     3     4   ar
     4     4     5   ar
     5     5     6    1
     6     6     7    2
     7     6     8   am
     8     8     9    1
     9     9    10   am
    10    10    11    2
    11    10    12    1
    12    12    13    1
    13    13    14    1
    14    14    15    2
    15    14    16   am
    16    16    17    1
    17    17    18   ar
    18    18    19   ar
    19    19    20   ar
    20    20    21    1
    21    20    22   ar
    22    22    23    1
    23    22    24   ar
    24    17    24   ar
    25     5    25   ar
    26    25    26   ar
    27     2    26   ar
    28     1    27    1
    29     1    28    1
    30     1    29    1
    31     3    30    1
    32     4    31    1
    33     8    32    1
    34     9    33    1
    35    12    34    1
    36    12    35    1
    37    13    36    1
    38    13    37    1
    39    16    38    1
    40    18    39    1
    41    19    40    1
    42    21    41    1
    43    21    42    1
    44    21    43    1
    45    23    44    1
    46    23    45    1
    47    23    46    1
    48    24    47    1
    49    25    48    1
    50    26    49    1
