@<TRIPOS>MOLECULE
*****
 54 57 0 0 0
SMALL
GASTEIGER

@<TRIPOS>ATOM
      1 O           1.1532    0.3922    0.8235 O.2     1  UNL1       -0.2885
      2 C           2.3342    0.2236    0.5380 C.2     1  UNL1        0.2038
      3 C           3.0375   -1.0670    1.0366 C.3     1  UNL1        0.1550
      4 O           2.2156   -1.9743    1.7761 O.3     1  UNL1       -0.4531
      5 C           2.7017   -3.2342    1.8761 C.2     1  UNL1        0.3414
      6 O           3.9000   -3.5363    1.7188 O.2     1  UNL1       -0.2449
      7 C           1.6259   -4.2213    2.1503 C.ar    1  UNL1        0.0798
      8 C           1.8114   -4.9551    3.3361 C.ar    1  UNL1       -0.0460
      9 C           0.9847   -6.0354    3.6398 C.ar    1  UNL1       -0.0609
     10 C          -0.0875   -6.3426    2.8132 C.ar    1  UNL1       -0.0600
     11 C          -0.3020   -5.6033    1.6528 C.ar    1  UNL1       -0.0401
     12 C           0.5413   -4.5394    1.2767 C.ar    1  UNL1        0.0413
     13 N           0.2950   -4.0558   -0.0256 N.pl3   1  UNL1       -0.3410
     14 C           0.9416   -2.8451   -0.4094 C.3     1  UNL1        0.0323
     15 C           0.5951   -2.2897   -1.7641 C.3     1  UNL1        0.0596
     16 O           1.6777   -1.4396   -2.1681 O.3     1  UNL1       -0.3935
     17 C           3.0403    1.2228   -0.3447 C.2     1  UNL1        0.0836
     18 C           4.3687    1.1145   -0.4996 C.ar    1  UNL1        0.0590
     19 C           5.3315    0.1696   -0.0291 C.ar    1  UNL1       -0.0477
     20 C           6.6154    0.4737    0.1030 C.ar    1  UNL1       -0.0608
     21 C           7.1088    1.6867   -0.4802 C.ar    1  UNL1       -0.0555
     22 C           6.3115    2.5767   -1.1272 C.ar    1  UNL1        0.0099
     23 C           4.8097    2.3115   -1.2377 C.ar    1  UNL1        0.2095
     24 N           3.8072    2.9429   -1.7749 N.2     1  UNL1       -0.2297
     25 C           2.4453    2.4240   -1.1417 C.3     1  UNL1        0.2084
     26 C           0.8515    2.4014   -1.4010 C.ar    1  UNL1        0.0246
     27 C          -0.0428    3.4372   -1.0143 C.ar    1  UNL1       -0.0519
     28 C          -1.4166    3.1957   -0.6460 C.ar    1  UNL1       -0.0613
     29 C          -1.9531    1.9158   -0.5953 C.ar    1  UNL1       -0.0617
     30 C          -1.1311    0.8929   -0.9859 C.ar    1  UNL1       -0.0613
     31 C           0.1701    1.1771   -1.4870 C.ar    1  UNL1       -0.0519
     32 H           3.8370   -0.7657    1.7099 H       1  UNL1        0.0782
     33 H           3.3872   -1.5916    0.1289 H       1  UNL1        0.0782
     34 H           2.6263   -4.7068    4.0138 H       1  UNL1        0.0626
     35 H           1.1917   -6.6576    4.5066 H       1  UNL1        0.0618
     36 H          -0.7467   -7.1735    3.0512 H       1  UNL1        0.0618
     37 H          -1.1208   -5.8993    0.9986 H       1  UNL1        0.0636
     38 H          -0.6742   -4.1344   -0.3227 H       1  UNL1        0.1462
     39 H           2.0146   -3.0413   -0.4410 H       1  UNL1        0.0484
     40 H           0.6681   -2.0648    0.3046 H       1  UNL1        0.0484
     41 H          -0.3288   -1.7138   -1.6836 H       1  UNL1        0.0573
     42 H           0.4816   -3.0497   -2.5264 H       1  UNL1        0.0573
     43 H           1.8818   -0.9249   -1.3763 H       1  UNL1        0.2095
     44 H           5.1222   -0.8528    0.2228 H       1  UNL1        0.0626
     45 H           7.2659   -0.2598    0.5824 H       1  UNL1        0.0618
     46 H           8.1977    1.7588   -0.4271 H       1  UNL1        0.0620
     47 H           6.7928    3.4521   -1.5487 H       1  UNL1        0.0683
     48 H           3.9804    3.8598   -2.2025 H       1  UNL1        0.4466
     49 H           2.3415    3.3774   -0.6410 H       1  UNL1        0.1174
     50 H           0.2734    4.4756   -0.9611 H       1  UNL1        0.0623
     51 H          -2.0770    4.0135   -0.3568 H       1  UNL1        0.0618
     52 H          -2.9811    1.7049   -0.2955 H       1  UNL1        0.0618
     53 H          -1.4783   -0.1342   -0.8595 H       1  UNL1        0.0618
     54 H           0.6985    0.3385   -1.8544 H       1  UNL1        0.0623
@<TRIPOS>UNITY_ATOM_ATTR
24 1
charge 1
@<TRIPOS>BOND
     1     1     2    2
     2     2     3    1
     3     3     4    1
     4     4     5    1
     5     5     6    2
     6     5     7    1
     7     7     8   ar
     8     8     9   ar
     9     9    10   ar
    10    10    11   ar
    11    11    12   ar
    12     7    12   ar
    13    12    13    1
    14    13    14    1
    15    14    15    1
    16    15    16    1
    17     2    17    1
    18    17    18    2
    19    18    19   ar
    20    19    20   ar
    21    20    21   ar
    22    21    22   ar
    23    22    23   ar
    24    18    23   ar
    25    23    24    2
    26    24    25    1
    27    17    25    1
    28    25    26    1
    29    26    27   ar
    30    27    28   ar
    31    28    29   ar
    32    29    30   ar
    33    30    31   ar
    34    26    31   ar
    35     3    32    1
    36     3    33    1
    37     8    34    1
    38     9    35    1
    39    10    36    1
    40    11    37    1
    41    13    38    1
    42    14    39    1
    43    14    40    1
    44    15    41    1
    45    15    42    1
    46    16    43    1
    47    19    44    1
    48    20    45    1
    49    21    46    1
    50    22    47    1
    51    24    48    1
    52    25    49    1
    53    27    50    1
    54    28    51    1
    55    29    52    1
    56    30    53    1
    57    31    54    1
