REMARK  5 active torsions:
REMARK  status: ('A' for Active; 'I' for Inactive)
REMARK    1  A    between atoms: C_2  and  C_4 
REMARK    2  A    between atoms: C_4  and  N_5 
REMARK       I    between atoms: N_5  and  C_6 
REMARK       I    between atoms: C_6  and  N_8 
REMARK    3  A    between atoms: N_8  and  N_9 
REMARK       I    between atoms: N_9  and  C_10 
REMARK    4  A    between atoms: C_12  and  C_10 
REMARK    5  A    between atoms: C_14  and  C_15 
ROOT
ATOM      1  N   UNL d   1      12.137  -0.310   6.059  0.00  0.00    -0.264 N 
ATOM      2  C   UNL d   1      11.285  -0.597   5.005  0.00  0.00     0.268 C 
ATOM      3  O   UNL d   1      11.701  -0.695   3.846  0.00  0.00    -0.269 OA
ATOM      4  H   UNL d   1      11.843  -0.274   7.033  0.00  0.00     0.190 HD
ENDROOT
BRANCH   2   5
ATOM      5  C   UNL d   1       9.786  -0.802   5.343  0.00  0.00     0.253 C 
ATOM      6  C   UNL d   1       9.189   0.145   6.368  0.00  0.00     0.107 C 
ATOM      7  C   UNL d   1       8.881  -0.832   7.447  0.00  0.00     0.075 C 
ATOM      8  N   UNL d   1       9.073  -2.073   7.147  0.00  0.00    -0.137 NA
ATOM      9  O   UNL d   1       9.538  -2.127   5.814  0.00  0.00    -0.241 OA
BRANCH   7  10
ATOM     10  C   UNL d   1       8.424  -0.408   8.783  0.00  0.00    -0.006 A 
ATOM     11  C   UNL d   1       7.285   0.389   8.942  0.00  0.00     0.014 A 
ATOM     12  C   UNL d   1       6.841   0.716  10.230  0.00  0.00     0.004 A 
ATOM     13  C   UNL d   1       7.545   0.264  11.348  0.00  0.00     0.042 A 
ATOM     14  C   UNL d   1       8.680  -0.521  11.172  0.00  0.00     0.117 A 
ATOM     15  F   UNL d   1       9.351  -0.952  12.247  0.00  0.00    -0.206 F 
ATOM     16  C   UNL d   1       9.122  -0.870   9.901  0.00  0.00     0.055 A 
ENDBRANCH   7  10
ENDBRANCH   2   5
BRANCH   1  17
ATOM     17  N   UNL d   1      13.526  -0.079   5.831  0.00  0.00    -0.249 N 
ATOM     18  C   UNL d   1      14.332   0.217   6.916  0.00  0.00     0.334 C 
ATOM     19  N   UNL d   1      15.663   0.406   6.617  0.00  0.00    -0.341 N 
ATOM     20  O   UNL d   1      13.874   0.317   8.056  0.00  0.00    -0.246 OA
ATOM     21  H   UNL d   1      15.976   0.292   5.665  0.00  0.00     0.164 HD
ATOM     22  H   UNL d   1      13.864  -0.221   4.883  0.00  0.00     0.192 HD
BRANCH  19  23
ATOM     23  C   UNL d   1      16.651   0.706   7.659  0.00  0.00     0.128 C 
BRANCH  23  24
ATOM     24  C   UNL d   1      18.103   0.840   7.149  0.00  0.00    -0.005 C 
ATOM     25  C   UNL d   1      19.063   1.207   8.292  0.00  0.00     0.011 C 
ATOM     26  C   UNL d   1      18.585  -0.460   6.504  0.00  0.00     0.011 C 
ENDBRANCH  23  24
ENDBRANCH  19  23
ENDBRANCH   1  17
TORSDOF 5
