@<TRIPOS>MOLECULE
*****
 72 75 0 0 0
SMALL
GASTEIGER

@<TRIPOS>ATOM
      1 C           0.8278    0.0518   -0.0197 C.3     1  UNL1       -0.0395
      2 C           2.3186    0.0545   -0.0197 C.ar    1  UNL1       -0.0435
      3 C           2.9360   -1.1842   -0.0276 C.ar    1  UNL1       -0.0155
      4 C           4.3068   -1.2949   -0.0112 C.ar    1  UNL1        0.1428
      5 O           4.8725   -2.6104   -0.0749 O.3     1  UNL1       -0.4251
      6 C           4.2174   -3.8359   -0.0122 C.2     1  UNL1        0.3123
      7 O           3.0018   -3.9790    0.0215 O.2     1  UNL1       -0.2504
      8 C           5.1704   -5.0153    0.0118 C.3     1  UNL1        0.0454
      9 C           4.2601   -6.2523    0.0198 C.3     1  UNL1       -0.0429
     10 C           4.9830   -7.5837    0.0340 C.3     1  UNL1       -0.0511
     11 C           3.9648   -8.7378    0.0361 C.3     1  UNL1       -0.0373
     12 C           4.6761  -10.0889    0.0489 C.3     1  UNL1        0.0147
     13 N           3.7817  -11.2333    0.0523 N.am    1  UNL1       -0.2811
     14 C           4.2825  -12.5194    0.0709 C.2     1  UNL1        0.4006
     15 O           5.4653  -12.7918    0.0726 O.2     1  UNL1       -0.2265
     16 O           3.2735  -13.4378    0.0900 O.3     1  UNL1       -0.4456
     17 C           3.7124  -14.8215    0.1073 C.3     1  UNL1        0.1191
     18 C           2.5440  -15.8008    0.0949 C.ar    1  UNL1       -0.0103
     19 C           2.7586  -17.1905    0.1931 C.ar    1  UNL1       -0.0554
     20 C           1.7036  -18.0948   -0.0001 C.ar    1  UNL1       -0.0614
     21 C           0.4057  -17.6244   -0.1802 C.ar    1  UNL1       -0.0617
     22 C           0.1628  -16.2550   -0.1525 C.ar    1  UNL1       -0.0614
     23 C           1.2273  -15.3542   -0.0704 C.ar    1  UNL1       -0.0554
     24 C           5.1119   -0.1314    0.0453 C.ar    1  UNL1        0.0631
     25 C           6.5680   -0.1253    0.1245 C.ar    1  UNL1       -0.0260
     26 C           7.1776   -1.4632    0.1984 C.3     1  UNL1       -0.0384
     27 C           7.3224    0.9985    0.0278 C.ar    1  UNL1        0.0449
     28 C           8.8732    1.0932   -0.0682 C.3     1  UNL1        0.0046
     29 C           9.6664   -0.2241   -0.1990 C.ar    1  UNL1       -0.0428
     30 C           9.4669   -1.0651   -1.3139 C.ar    1  UNL1       -0.0583
     31 C           9.6121   -2.4618   -1.1640 C.ar    1  UNL1       -0.0615
     32 C          10.1976   -2.9911   -0.0178 C.ar    1  UNL1       -0.0617
     33 C          10.6674   -2.1230    0.9658 C.ar    1  UNL1       -0.0615
     34 C          10.3485   -0.7561    0.9113 C.ar    1  UNL1       -0.0583
     35 C           6.6259    2.3227   -0.0111 C.ar    1  UNL1        0.3410
     36 O           7.2457    3.3819   -0.0328 O.2     1  UNL1       -0.2449
     37 O           5.2300    2.3057   -0.0042 O.2     1  UNL1       -0.4218
     38 C           4.4806    1.1098    0.0108 C.ar    1  UNL1        0.1431
     39 C           3.0896    1.2172   -0.0161 C.ar    1  UNL1       -0.0155
     40 H           0.4424   -0.9775   -0.0187 H       1  UNL1        0.0278
     41 H           0.4593    0.5391   -0.9222 H       1  UNL1        0.0278
     42 H           0.4617    0.5374    0.8851 H       1  UNL1        0.0278
     43 H           2.3026   -2.0562   -0.0457 H       1  UNL1        0.0657
     44 H           5.7958   -4.9958    0.9121 H       1  UNL1        0.0378
     45 H           5.8117   -5.0159   -0.8762 H       1  UNL1        0.0378
     46 H           3.6080   -6.2115   -0.8639 H       1  UNL1        0.0270
     47 H           3.6007   -6.1981    0.8977 H       1  UNL1        0.0270
     48 H           5.6191   -7.6412    0.9240 H       1  UNL1        0.0266
     49 H           5.6296   -7.6536   -0.8473 H       1  UNL1        0.0266
     50 H           3.3176   -8.6606   -0.8473 H       1  UNL1        0.0280
     51 H           3.3079   -8.6490    0.9113 H       1  UNL1        0.0280
     52 H           5.3142  -10.1601    0.9368 H       1  UNL1        0.0463
     53 H           5.3242  -10.1723   -0.8306 H       1  UNL1        0.0463
     54 H           2.7793  -11.1129    0.0501 H       1  UNL1        0.1520
     55 H           4.3144  -14.9978    1.0063 H       1  UNL1        0.0749
     56 H           4.3157  -15.0125   -0.7900 H       1  UNL1        0.0749
     57 H           3.7485  -17.5910    0.4049 H       1  UNL1        0.0621
     58 H           1.8892  -19.1672   -0.0114 H       1  UNL1        0.0618
     59 H          -0.4158  -18.3194   -0.3359 H       1  UNL1        0.0618
     60 H          -0.8550  -15.8804   -0.2125 H       1  UNL1        0.0618
     61 H           1.0171  -14.2912   -0.1451 H       1  UNL1        0.0621
     62 H           6.6963   -2.3639    0.5316 H       1  UNL1        0.0278
     63 H           7.9629   -1.4458    0.9414 H       1  UNL1        0.0278
     64 H           7.3670   -1.6900   -0.8479 H       1  UNL1        0.0278
     65 H           9.2271    1.6254    0.8259 H       1  UNL1        0.0364
     66 H           9.1506    1.7135   -0.9302 H       1  UNL1        0.0364
     67 H           8.8877   -0.7000   -2.1636 H       1  UNL1        0.0620
     68 H           9.0891   -3.1325   -1.8496 H       1  UNL1        0.0618
     69 H          10.2330   -4.0685    0.1344 H       1  UNL1        0.0618
     70 H          11.1919   -2.5262    1.8275 H       1  UNL1        0.0618
     71 H          10.5182   -0.1486    1.7977 H       1  UNL1        0.0620
     72 H           2.6104    2.1908   -0.0262 H       1  UNL1        0.0657
@<TRIPOS>BOND
     1     1     2    1
     2     2     3   ar
     3     3     4   ar
     4     4     5    1
     5     5     6    1
     6     6     7    2
     7     6     8    1
     8     8     9    1
     9     9    10    1
    10    10    11    1
    11    11    12    1
    12    12    13    1
    13    13    14   am
    14    14    15    2
    15    14    16    1
    16    16    17    1
    17    17    18    1
    18    18    19   ar
    19    19    20   ar
    20    20    21   ar
    21    21    22   ar
    22    22    23   ar
    23    18    23   ar
    24     4    24   ar
    25    24    25   ar
    26    25    26    1
    27    25    27   ar
    28    27    28    1
    29    28    29    1
    30    29    30   ar
    31    30    31   ar
    32    31    32   ar
    33    32    33   ar
    34    33    34   ar
    35    29    34   ar
    36    27    35   ar
    37    35    36    2
    38    35    37   ar
    39    37    38   ar
    40    24    38   ar
    41    38    39   ar
    42     2    39   ar
    43     1    40    1
    44     1    41    1
    45     1    42    1
    46     3    43    1
    47     8    44    1
    48     8    45    1
    49     9    46    1
    50     9    47    1
    51    10    48    1
    52    10    49    1
    53    11    50    1
    54    11    51    1
    55    12    52    1
    56    12    53    1
    57    13    54    1
    58    17    55    1
    59    17    56    1
    60    19    57    1
    61    20    58    1
    62    21    59    1
    63    22    60    1
    64    23    61    1
    65    26    62    1
    66    26    63    1
    67    26    64    1
    68    28    65    1
    69    28    66    1
    70    30    67    1
    71    31    68    1
    72    32    69    1
    73    33    70    1
    74    34    71    1
    75    39    72    1
