REMARK  7 active torsions:
REMARK  status: ('A' for Active; 'I' for Inactive)
REMARK    1  A    between atoms: O_2  and  C_3 
REMARK    2  A    between atoms: C_5  and  O_6 
REMARK    3  A    between atoms: C_9  and  C_10 
REMARK       I    between atoms: C_10  and  N_12 
REMARK       I    between atoms: C_13  and  N_14 
REMARK       I    between atoms: C_13  and  N_26 
REMARK    4  A    between atoms: N_14  and  C_15 
REMARK    5  A    between atoms: C_15  and  C_16 
REMARK    6  A    between atoms: C_16  and  C_17 
REMARK    7  A    between atoms: N_26  and  C_27 
ROOT
ATOM      1  C   UNL d   1       3.076   1.008   4.758  0.00  0.00     0.294 C 
ATOM      2  O   UNL d   1       3.816   1.396   5.649  0.00  0.00    -0.265 OA
ATOM      3  N   UNL d   1       1.851   0.406   4.935  0.00  0.00    -0.023 NA
ATOM      4  C   UNL d   1       1.363   0.313   6.135  0.00  0.00     0.704 C 
ATOM      5  N   UNL d   1       0.081  -0.143   6.282  0.00  0.00    -0.224 N 
ATOM      6  N   UNL d   1       1.968   0.719   7.294  0.00  0.00    -0.190 N 
ATOM      7  H   UNL d   1      -0.288  -0.117   7.226  0.00  0.00     0.177 HD
ATOM      8  H   UNL d   1       2.913   1.091   7.154  0.00  0.00     0.184 HD
ENDROOT
BRANCH   5   9
ATOM      9  C   UNL d   1      -0.634  -0.871   5.261  0.00  0.00     0.142 C 
BRANCH   9  10
ATOM     10  C   UNL d   1      -1.855  -1.587   5.827  0.00  0.00     0.057 C 
BRANCH  10  11
ATOM     11  C   UNL d   1      -2.805  -2.144   4.811  0.00  0.00    -0.048 A 
ATOM     12  C   UNL d   1      -3.897  -2.816   5.176  0.00  0.00    -0.006 A 
ATOM     13  C   UNL d   1      -4.393  -3.177   6.455  0.00  0.00     0.014 A 
ATOM     14  C   UNL d   1      -4.565  -3.219   3.933  0.00  0.00     0.038 A 
ATOM     15  C   UNL d   1      -5.429  -4.020   6.512  0.00  0.00     0.001 A 
ATOM     16  C   UNL d   1      -6.132  -4.435   5.307  0.00  0.00     0.002 A 
ATOM     17  C   UNL d   1      -5.767  -4.069   4.060  0.00  0.00     0.030 A 
ATOM     18  N   UNL d   1      -3.960  -2.761   2.903  0.00  0.00    -0.385 N 
ATOM     19  C   UNL d   1      -2.700  -2.075   3.313  0.00  0.00     0.155 A 
ATOM     20  H   UNL d   1      -4.327  -2.872   1.958  0.00  0.00     0.160 HD
ENDBRANCH  10  11
ENDBRANCH   9  10
ENDBRANCH   5   9
BRANCH   6  21
ATOM     21  C   UNL d   1       1.736   0.371   8.639  0.00  0.00     0.055 A 
ATOM     22  C   UNL d   1       1.958   1.374   9.605  0.00  0.00     0.031 A 
ATOM     23  C   UNL d   1       1.736   1.140  10.964  0.00  0.00     0.009 A 
ATOM     24  C   UNL d   1       1.208  -0.080  11.379  0.00  0.00    -0.061 A 
ATOM     25  C   UNL d   1       0.803  -0.311  12.803  0.00  0.00     0.048 C 
ATOM     26  C   UNL d   1       1.018  -1.093  10.436  0.00  0.00     0.015 A 
ATOM     27  C   UNL d   1       1.307  -0.899   9.075  0.00  0.00    -0.034 A 
ATOM     28  C   UNL d   1       1.192  -2.098   8.176  0.00  0.00     0.050 C 
ENDBRANCH   6  21
BRANCH   1  29
ATOM     29  C   UNL d   1       3.488   1.192   3.338  0.00  0.00     0.040 A 
ATOM     30  C   UNL d   1       4.714   1.803   3.078  0.00  0.00     0.054 A 
ATOM     31  C   UNL d   1       5.198   1.877   1.775  0.00  0.00     0.071 A 
ATOM     32  C   UNL d   1       4.391   1.431   0.720  0.00  0.00     0.073 A 
ATOM     33  C   UNL d   1       3.158   0.815   0.974  0.00  0.00     0.071 A 
ATOM     34  C   UNL d   1       2.710   0.701   2.287  0.00  0.00     0.054 A 
BRANCH  31  35
ATOM     35  O   UNL d   1       6.455   2.319   1.452  0.00  0.00    -0.356 OA
ATOM     36  C   UNL d   1       7.338   2.541   2.557  0.00  0.00     0.210 C 
ENDBRANCH  31  35
BRANCH  33  37
ATOM     37  O   UNL d   1       2.525   0.245  -0.099  0.00  0.00    -0.356 OA
ATOM     38  C   UNL d   1       1.109   0.130  -0.019  0.00  0.00     0.210 C 
ENDBRANCH  33  37
ENDBRANCH   1  29
TORSDOF 7
