REMARK  4 active torsions:
REMARK  status: ('A' for Active; 'I' for Inactive)
REMARK       I    between atoms: C_2  and  N_4 
REMARK    1  A    between atoms: N_4  and  C_5 
REMARK    2  A    between atoms: C_11  and  N_12 
REMARK    3  A    between atoms: N_12  and  C_13 
REMARK    4  A    between atoms: C_13  and  C_14 
ROOT
ATOM      1  C   UNL d   1       2.887   4.833   1.269  0.00  0.00    -0.020 A 
ATOM      2  C   UNL d   1       1.917   4.846   2.285  0.00  0.00     0.010 A 
ATOM      3  C   UNL d   1       1.544   6.053   2.861  0.00  0.00     0.001 A 
ATOM      4  C   UNL d   1       2.096   7.244   2.390  0.00  0.00     0.002 A 
ATOM      5  C   UNL d   1       3.004   7.240   1.331  0.00  0.00     0.023 A 
ATOM      6  C   UNL d   1       3.402   6.039   0.760  0.00  0.00     0.052 A 
ATOM      7  C   UNL d   1       4.384   6.053  -0.296  0.00  0.00     0.100 C 
ATOM      8  N   UNL d   1       5.222   6.006  -1.090  0.00  0.00    -0.191 NA
ENDROOT
BRANCH   1   9
ATOM      9  C   UNL d   1       3.320   3.528   0.688  0.00  0.00     0.160 C 
BRANCH   9  10
ATOM     10  N   UNL d   1       4.752   3.364   0.693  0.00  0.00    -0.384 N 
ATOM     11  H   UNL d   1       5.333   4.160   0.937  0.00  0.00     0.160 HD
BRANCH  10  12
ATOM     12  C   UNL d   1       5.395   2.320   0.033  0.00  0.00     0.055 A 
ATOM     13  C   UNL d   1       6.811   2.351   0.017  0.00  0.00     0.033 A 
ATOM     14  C   UNL d   1       7.559   1.277  -0.474  0.00  0.00     0.026 A 
ATOM     15  C   UNL d   1       6.900   0.151  -0.944  0.00  0.00     0.036 A 
ATOM     16  C   UNL d   1       5.512   0.095  -0.946  0.00  0.00     0.055 A 
ATOM     17 CL   UNL d   1       7.792  -1.192  -1.540  0.00  0.00    -0.084 Cl
ATOM     18  C   UNL d   1       4.749   1.162  -0.469  0.00  0.00     0.062 A 
BRANCH  18  19
ATOM     19  N   UNL d   1       3.336   1.026  -0.545  0.00  0.00    -0.325 N 
ATOM     20  C   UNL d   1       2.659  -0.063  -0.030  0.00  0.00     0.218 C 
ATOM     21  C   UNL d   1       1.153   0.077  -0.032  0.00  0.00     0.117 C 
ATOM     22  O   UNL d   1       3.194  -1.059   0.446  0.00  0.00    -0.274 OA
ATOM     23  H   UNL d   1       2.797   1.831  -0.806  0.00  0.00     0.169 HD
ENDBRANCH  18  19
ENDBRANCH  10  12
ENDBRANCH   9  10
ENDBRANCH   1   9
TORSDOF 4
