REMARK  5 active torsions:
REMARK  status: ('A' for Active; 'I' for Inactive)
REMARK    1  A    between atoms: C_2  and  C_3 
REMARK    2  A    between atoms: C_2  and  C_9 
REMARK    3  A    between atoms: C_15  and  N_16 
REMARK       I    between atoms: N_16  and  C_17 
REMARK    4  A    between atoms: C_17  and  C_19 
REMARK    5  A    between atoms: C_22  and  N_23 
ROOT
ATOM      1  N   UNL d   1       1.378   0.349  -2.807  0.00  0.00    -0.322 N 
ATOM      2  C   UNL d   1       0.724   1.297  -1.990  0.00  0.00     0.264 C 
ATOM      3  O   UNL d   1       1.412   1.801  -1.073  0.00  0.00    -0.267 OA
ATOM      4  H   UNL d   1       1.107   0.301  -3.781  0.00  0.00     0.169 HD
ENDROOT
BRANCH   1   5
ATOM      5  C   UNL d   1       2.567  -0.437  -2.414  0.00  0.00     0.049 A 
ATOM      6  C   UNL d   1       3.327  -1.099  -3.408  0.00  0.00     0.032 A 
ATOM      7  C   UNL d   1       4.464  -1.902  -3.099  0.00  0.00     0.026 A 
ATOM      8  C   UNL d   1       4.880  -2.063  -1.785  0.00  0.00     0.035 A 
ATOM      9  C   UNL d   1       4.130  -1.494  -0.778  0.00  0.00     0.041 A 
ATOM     10 CL   UNL d   1       6.329  -2.911  -1.400  0.00  0.00    -0.084 Cl
ATOM     11  C   UNL d   1       3.019  -0.665  -1.091  0.00  0.00     0.043 A 
BRANCH  11  12
ATOM     12  C   UNL d   1       2.324  -0.187   0.107  0.00  0.00     0.194 C 
ATOM     13  O   UNL d   1       1.206  -0.645   0.331  0.00  0.00    -0.287 OA
BRANCH  12  14
ATOM     14  C   UNL d   1       3.066   0.653   1.096  0.00  0.00     0.015 C 
ATOM     15  C   UNL d   1       4.242   1.366   0.803  0.00  0.00     0.015 C 
ATOM     16  C   UNL d   1       5.052   1.810   1.852  0.00  0.00     0.001 C 
ATOM     17  C   UNL d   1       4.638   1.632   3.174  0.00  0.00     0.000 C 
ATOM     18  C   UNL d   1       3.415   1.023   3.451  0.00  0.00     0.001 C 
ATOM     19  C   UNL d   1       2.626   0.546   2.412  0.00  0.00     0.015 C 
ENDBRANCH  12  14
ENDBRANCH  11  12
ENDBRANCH   1   5
BRANCH   2  20
ATOM     20  C   UNL d   1      -0.665   1.837  -2.157  0.00  0.00     0.096 C 
ATOM     21  S   UNL d   1      -1.328   2.350  -0.645  0.00  0.00    -0.080 SA
ATOM     22  C   UNL d   1      -2.321   3.538  -1.384  0.00  0.00     0.051 C 
ATOM     23  C   UNL d   1      -2.759   4.755  -0.812  0.00  0.00     0.120 C 
ATOM     24  C   UNL d   1      -2.823   3.002  -2.568  0.00  0.00     0.007 C 
ATOM     25  C   UNL d   1      -4.005   5.281  -1.156  0.00  0.00     0.037 C 
ATOM     26  C   UNL d   1      -4.726   4.646  -2.154  0.00  0.00     0.003 C 
ATOM     27  C   UNL d   1      -4.143   3.550  -2.900  0.00  0.00     0.014 C 
ATOM     28  C   UNL d   1      -1.662   2.111  -3.115  0.00  0.00     0.068 C 
ATOM     29 CL   UNL d   1      -1.407   1.682  -4.764  0.00  0.00    -0.082 Cl
BRANCH  23  30
ATOM     30  N   UNL d   1      -1.858   5.549   0.029  0.00  0.00    -0.114 N 
ATOM     31  O   UNL d   1      -2.276   6.628   0.467  0.00  0.00    -0.532 OA
ATOM     32  O   UNL d   1      -0.699   5.144   0.173  0.00  0.00    -0.532 OA
ENDBRANCH  23  30
ENDBRANCH   2  20
TORSDOF 5
