REMARK  3 active torsions:
REMARK  status: ('A' for Active; 'I' for Inactive)
REMARK    1  A    between atoms: C_7  and  C_8 
REMARK    2  A    between atoms: N_14  and  C_15 
REMARK    3  A    between atoms: C_15  and  C_16 
ROOT
ATOM      1  C   UNL d   1       0.939   2.397  -0.152  0.00  0.00     0.100 A 
ATOM      2  N   UNL d   1       1.780   2.746  -1.137  0.00  0.00    -0.173 NA
ATOM      3  N   UNL d   1       2.303   3.914  -0.742  0.00  0.00    -0.281 N 
ATOM      4  C   UNL d   1       1.820   4.311   0.457  0.00  0.00     0.040 A 
ATOM      5  C   UNL d   1       0.907   3.369   0.860  0.00  0.00     0.023 A 
ATOM      6  C   UNL d   1       0.108   3.404   2.084  0.00  0.00     0.278 A 
ATOM      7  N   UNL d   1       0.285   4.668   2.890  0.00  0.00    -0.063 N 
ATOM      8  C   UNL d   1       1.337   5.652   2.429  0.00  0.00     0.241 A 
ATOM      9  C   UNL d   1       2.167   5.524   1.163  0.00  0.00     0.087 A 
ATOM     10  H   UNL d   1       2.981   4.384  -1.348  0.00  0.00     0.189 HD
ATOM     11  H   UNL d   1       0.566   4.361   3.829  0.00  0.00     0.280 HD
ENDROOT
BRANCH   7  12
ATOM     12  C   UNL d   1      -1.067   5.378   3.053  0.00  0.00     0.273 C 
BRANCH  12  13
ATOM     13  C   UNL d   1      -1.038   6.659   3.858  0.00  0.00    -0.030 C 
ATOM     14  C   UNL d   1      -1.751   6.748   5.053  0.00  0.00     0.012 C 
ATOM     15  C   UNL d   1      -1.714   7.930   5.806  0.00  0.00     0.040 C 
ATOM     16  C   UNL d   1      -0.927   9.011   5.402  0.00  0.00     0.102 C 
ATOM     17  C   UNL d   1      -0.196   8.922   4.236  0.00  0.00     0.102 C 
ATOM     18  O   UNL d   1      -0.921  10.145   6.164  0.00  0.00    -0.346 OA
ATOM     19  C   UNL d   1      -0.335   7.809   3.442  0.00  0.00     0.048 C 
ATOM     20  O   UNL d   1       0.664   9.868   3.755  0.00  0.00    -0.346 OA
ATOM     21  C   UNL d   1       0.932  10.865   4.740  0.00  0.00     0.202 C 
ATOM     22  C   UNL d   1      -0.364  11.255   5.435  0.00  0.00     0.202 C 
ENDBRANCH  12  13
ENDBRANCH   7  12
BRANCH   1  23
ATOM     23  C   UNL d   1       0.182   1.166  -0.144  0.00  0.00     0.034 A 
ATOM     24  C   UNL d   1      -1.220   1.195  -0.088  0.00  0.00     0.017 A 
ATOM     25  C   UNL d   1      -1.937   0.002  -0.019  0.00  0.00     0.001 A 
ATOM     26  C   UNL d   1      -1.256  -1.216  -0.003  0.00  0.00     0.003 A 
ATOM     27  C   UNL d   1       0.139  -1.243  -0.018  0.00  0.00     0.043 A 
ATOM     28  C   UNL d   1       0.852  -0.053  -0.080  0.00  0.00     0.129 A 
ATOM     29  F   UNL d   1       2.190  -0.095  -0.010  0.00  0.00    -0.205 F 
ENDBRANCH   1  23
TORSDOF 3
