@<TRIPOS>MOLECULE
*****
 61 65 0 0 0
SMALL
GASTEIGER

@<TRIPOS>ATOM
      1 C           1.0831    0.0233    0.0202 C.3     1  UNL1       -0.0358
      2 C           2.6144    0.0469    0.0817 C.3     1  UNL1        0.0684
      3 C           3.0427    0.2016    1.5498 C.3     1  UNL1       -0.0358
      4 C           3.1021   -1.2744   -0.4641 C.3     1  UNL1        0.0025
      5 C           4.5817   -1.3245   -0.7099 C.ar    1  UNL1       -0.0158
      6 C           5.3180   -0.1214   -0.8195 C.ar    1  UNL1        0.0697
      7 C           6.7115   -0.1632   -1.0213 C.ar    1  UNL1        0.2785
      8 N           7.4919    0.9719   -1.1267 N.pl3   1  UNL1       -0.2733
      9 C           7.5106    2.1195   -0.1683 C.3     1  UNL1        0.0408
     10 C           7.3611    3.4795   -0.8931 C.3     1  UNL1        0.0636
     11 O           8.3291    3.6045   -1.9429 O.3     1  UNL1       -0.3767
     12 C           8.1543    2.5633   -2.9110 C.3     1  UNL1        0.0636
     13 C           8.3926    1.1779   -2.2764 C.3     1  UNL1        0.0408
     14 N           7.2920   -1.3888   -1.1506 N.ar    1  UNL1       -0.1851
     15 C           6.5747   -2.5667   -1.0567 C.ar    1  UNL1        0.2566
     16 S           7.1971   -4.1802   -1.1681 S.2     1  UNL1       -0.0133
     17 C           5.6415   -4.9114   -0.9317 C.ar    1  UNL1        0.1012
     18 C           5.3031   -6.3555   -0.9038 C.2     1  UNL1        0.2530
     19 O           4.1372   -6.7470   -0.7235 O.2     1  UNL1       -0.2696
     20 N           6.2854   -7.2845   -1.0847 N.am    1  UNL1       -0.3068
     21 C           6.0145   -8.7302   -1.0699 C.3     1  UNL1        0.0372
     22 C           7.2454   -9.5947   -1.2501 C.ar    1  UNL1       -0.0303
     23 C           8.5236   -9.0394   -1.3869 C.ar    1  UNL1       -0.0571
     24 C           9.6648   -9.8234   -1.2874 C.ar    1  UNL1       -0.0615
     25 C           9.5538  -11.2028   -1.3407 C.ar    1  UNL1       -0.0617
     26 C           8.2926  -11.7923   -1.3576 C.ar    1  UNL1       -0.0615
     27 C           7.1464  -10.9977   -1.2247 C.ar    1  UNL1       -0.0571
     28 C           4.6956   -3.9155   -0.7816 C.ar    1  UNL1        0.0581
     29 N           3.3946   -4.2182   -0.5822 N.pl3   1  UNL1       -0.3563
     30 C           5.2131   -2.5774   -0.8431 C.ar    1  UNL1        0.0793
     31 C           4.5588    1.1916   -0.6973 C.3     1  UNL1        0.0812
     32 O           3.1319    1.0724   -0.7666 O.3     1  UNL1       -0.3687
     33 H           0.6854   -0.7895    0.6426 H       1  UNL1        0.0257
     34 H           0.7185   -0.1345   -1.0015 H       1  UNL1        0.0257
     35 H           0.6622    0.9669    0.3748 H       1  UNL1        0.0257
     36 H           2.6273   -0.6028    2.1662 H       1  UNL1        0.0257
     37 H           2.7139    1.1665    1.9408 H       1  UNL1        0.0257
     38 H           4.1292    0.1560    1.6783 H       1  UNL1        0.0257
     39 H           2.6130   -1.5234   -1.4160 H       1  UNL1        0.0341
     40 H           2.8429   -2.0145    0.2954 H       1  UNL1        0.0341
     41 H           8.4928    2.1122    0.3204 H       1  UNL1        0.0488
     42 H           6.7708    2.0356    0.6304 H       1  UNL1        0.0488
     43 H           7.5251    4.3076   -0.1934 H       1  UNL1        0.0575
     44 H           6.3605    3.6127   -1.3195 H       1  UNL1        0.0575
     45 H           8.8760    2.7334   -3.7156 H       1  UNL1        0.0575
     46 H           7.1473    2.6407   -3.3386 H       1  UNL1        0.0575
     47 H           9.4207    1.1255   -1.9008 H       1  UNL1        0.0488
     48 H           8.2551    0.4040   -3.0366 H       1  UNL1        0.0488
     49 H           8.2969   -1.4272   -1.2832 H       1  UNL1        0.4554
     50 H           7.2272   -6.9479   -1.1483 H       1  UNL1        0.1494
     51 H           5.2752   -8.9581   -1.8492 H       1  UNL1        0.0512
     52 H           5.5533   -8.9751   -0.1018 H       1  UNL1        0.0512
     53 H           8.6809   -7.9860   -1.5681 H       1  UNL1        0.0621
     54 H          10.6334   -9.3444   -1.1834 H       1  UNL1        0.0618
     55 H          10.4525  -11.8110   -1.3816 H       1  UNL1        0.0618
     56 H           8.2101  -12.8736   -1.4419 H       1  UNL1        0.0618
     57 H           6.1834  -11.4932   -1.1063 H       1  UNL1        0.0621
     58 H           3.0799   -5.1963   -0.5460 H       1  UNL1        0.1424
     59 H           2.6044   -3.5914   -0.6363 H       1  UNL1        0.1424
     60 H           4.8588    1.8730   -1.4969 H       1  UNL1        0.0613
     61 H           4.7885    1.6675    0.2589 H       1  UNL1        0.0613
@<TRIPOS>UNITY_ATOM_ATTR
14 1
charge 1
@<TRIPOS>BOND
     1     1     2    1
     2     2     3    1
     3     2     4    1
     4     4     5    1
     5     5     6   ar
     6     6     7   ar
     7     7     8    1
     8     8     9    1
     9     9    10    1
    10    10    11    1
    11    11    12    1
    12    12    13    1
    13     8    13    1
    14     7    14   ar
    15    14    15   ar
    16    15    16   ar
    17    16    17   ar
    18    17    18    1
    19    18    19    2
    20    18    20   am
    21    20    21    1
    22    21    22    1
    23    22    23   ar
    24    23    24   ar
    25    24    25   ar
    26    25    26   ar
    27    26    27   ar
    28    22    27   ar
    29    17    28   ar
    30    28    29    1
    31    28    30   ar
    32     5    30   ar
    33    15    30   ar
    34     6    31    1
    35    31    32    1
    36     2    32    1
    37     1    33    1
    38     1    34    1
    39     1    35    1
    40     3    36    1
    41     3    37    1
    42     3    38    1
    43     4    39    1
    44     4    40    1
    45     9    41    1
    46     9    42    1
    47    10    43    1
    48    10    44    1
    49    12    45    1
    50    12    46    1
    51    13    47    1
    52    13    48    1
    53    14    49    1
    54    20    50    1
    55    21    51    1
    56    21    52    1
    57    23    53    1
    58    24    54    1
    59    25    55    1
    60    26    56    1
    61    27    57    1
    62    29    58    1
    63    29    59    1
    64    31    60    1
    65    31    61    1
