@<TRIPOS>MOLECULE
*****
 53 55 0 0 0
SMALL
GASTEIGER

@<TRIPOS>ATOM
      1 C           0.8139   -0.0502   -0.0650 C.3     1  UNL1       -0.0494
      2 C           2.3056   -0.0397   -0.1943 C.3     1  UNL1        0.0116
      3 N           2.7970    0.0804   -1.5770 N.am    1  UNL1       -0.2839
      4 C           4.1672    0.0860   -1.6992 C.2     1  UNL1        0.3987
      5 O           4.6770   -0.0126   -0.5834 O.2     1  UNL1       -0.2303
      6 N           4.7884    0.1871   -2.9371 N.am    1  UNL1        0.0146
      7 C           6.1028    0.2140   -3.1197 C.2     1  UNL1        0.3876
      8 N           7.1364    0.2067   -2.1852 N.pl3   1  UNL1       -0.2766
      9 C           6.9392    0.0151   -0.7783 C.3     1  UNL1        0.0685
     10 C           8.0595   -0.0725    0.2146 C.3     1  UNL1        0.0050
     11 C           7.4636   -0.1890    1.6124 C.ar    1  UNL1       -0.0193
     12 C           7.0196    0.8550    2.4072 C.ar    1  UNL1        0.0060
     13 N           6.5737    0.3445    3.5976 N.ar    1  UNL1       -0.3604
     14 C           6.6781   -1.0261    3.5955 C.ar    1  UNL1        0.0469
     15 C           6.3769   -1.9543    4.6034 C.ar    1  UNL1       -0.0351
     16 C           6.5564   -3.3067    4.3057 C.ar    1  UNL1       -0.0245
     17 C           6.9935   -3.6969    3.0464 C.ar    1  UNL1        0.1241
     18 F           7.1434   -5.0031    2.7849 F       1  UNL1       -0.2055
     19 C           7.3000   -2.7668    2.0523 C.ar    1  UNL1       -0.0170
     20 C           7.1706   -1.3939    2.3392 C.ar    1  UNL1        0.0056
     21 N           6.6209    0.3597   -4.4136 N.pl3   1  UNL1       -0.2126
     22 C           7.9713    0.3466   -4.8168 C.ar    1  UNL1        0.2923
     23 N           8.8070   -0.4944   -4.1746 N.ar    1  UNL1       -0.2035
     24 C          10.1167   -0.4985   -4.4923 C.ar    1  UNL1        0.0451
     25 C          10.9696   -1.5034   -3.7814 C.3     1  UNL1       -0.0221
     26 C          10.6529    0.3839   -5.3987 C.ar    1  UNL1       -0.0193
     27 C           9.7554    1.2272   -6.0258 C.ar    1  UNL1        0.0451
     28 C          10.2756    2.2485   -7.0074 C.3     1  UNL1       -0.0221
     29 N           8.4115    1.1874   -5.7787 N.ar    1  UNL1       -0.2035
     30 H           0.5282   -0.1396    0.9897 H       1  UNL1        0.0245
     31 H           0.4032   -0.8992   -0.6131 H       1  UNL1        0.0245
     32 H           0.4035    0.8791   -0.4623 H       1  UNL1        0.0245
     33 H           2.7153   -0.9604    0.2543 H       1  UNL1        0.0460
     34 H           2.7154    0.7914    0.4040 H       1  UNL1        0.0460
     35 H           2.2017    0.1400   -2.3855 H       1  UNL1        0.1517
     36 H           8.0684    0.0069   -2.5372 H       1  UNL1        0.2577
     37 H           6.4279   -0.9499   -0.6766 H       1  UNL1        0.0658
     38 H           6.4094    0.9228   -0.4683 H       1  UNL1        0.0658
     39 H           8.6756    0.8264    0.1476 H       1  UNL1        0.0344
     40 H           8.6769   -0.9447   -0.0105 H       1  UNL1        0.0344
     41 H           6.9803    1.9209    2.2252 H       1  UNL1        0.0810
     42 H           6.2211    0.8903    4.3722 H       1  UNL1        0.1653
     43 H           6.0291   -1.6413    5.5830 H       1  UNL1        0.0639
     44 H           6.3526   -4.0650    5.0560 H       1  UNL1        0.0647
     45 H           7.6411   -3.1075    1.0818 H       1  UNL1        0.0653
     46 H           5.9921    0.5846   -5.1664 H       1  UNL1        0.2677
     47 H          10.3489   -2.1353   -3.1365 H       1  UNL1        0.0293
     48 H          11.7097   -1.0004   -3.1530 H       1  UNL1        0.0293
     49 H          11.4791   -2.1557   -4.4977 H       1  UNL1        0.0293
     50 H          11.7171    0.4114   -5.6042 H       1  UNL1        0.0653
     51 H          11.3653    2.1810   -7.1297 H       1  UNL1        0.0293
     52 H          10.0520    3.2628   -6.6614 H       1  UNL1        0.0293
     53 H           9.8247    2.0942   -7.9912 H       1  UNL1        0.0293
@<TRIPOS>BOND
     1     1     2    1
     2     2     3    1
     3     3     4   am
     4     4     5    2
     5     4     6    1
     6     6     7    2
     7     7     8    1
     8     8     9    1
     9     9    10    1
    10    10    11    1
    11    11    12   ar
    12    12    13   ar
    13    13    14   ar
    14    14    15   ar
    15    15    16   ar
    16    16    17   ar
    17    17    18    1
    18    17    19   ar
    19    19    20   ar
    20    11    20   ar
    21    14    20   ar
    22     7    21    1
    23    21    22    1
    24    22    23   ar
    25    23    24   ar
    26    24    25    1
    27    24    26   ar
    28    26    27   ar
    29    27    28    1
    30    27    29   ar
    31    22    29   ar
    32     1    30    1
    33     1    31    1
    34     1    32    1
    35     2    33    1
    36     2    34    1
    37     3    35    1
    38     8    36    1
    39     9    37    1
    40     9    38    1
    41    10    39    1
    42    10    40    1
    43    12    41    1
    44    13    42    1
    45    15    43    1
    46    16    44    1
    47    19    45    1
    48    21    46    1
    49    25    47    1
    50    25    48    1
    51    25    49    1
    52    26    50    1
    53    28    51    1
    54    28    52    1
    55    28    53    1
