REMARK  6 active torsions:
REMARK  status: ('A' for Active; 'I' for Inactive)
REMARK    1  A    between atoms: C_7  and  N_8 
REMARK    2  A    between atoms: N_8  and  C_9 
REMARK    3  A    between atoms: C_9  and  C_10 
REMARK    4  A    between atoms: C_10  and  C_11 
REMARK       I    between atoms: C_11  and  N_13 
REMARK    5  A    between atoms: N_13  and  N_14 
REMARK       I    between atoms: N_14  and  C_15 
REMARK    6  A    between atoms: C_15  and  C_17 
ROOT
ATOM      1  C   UNL d   1       2.342  -6.264  -0.017  0.00  0.00     0.237 C 
ATOM      2  O   UNL d   1       3.432  -5.689  -0.009  0.00  0.00    -0.272 OA
ATOM      3  N   UNL d   1       2.260  -7.649  -0.026  0.00  0.00    -0.267 N 
ATOM      4  H   UNL d   1       1.390  -8.181  -0.030  0.00  0.00     0.190 HD
ENDROOT
BRANCH   1   5
ATOM      5  C   UNL d   1       1.007  -5.510  -0.017  0.00  0.00     0.124 C 
BRANCH   5   6
ATOM      6  C   UNL d   1       1.249  -3.993  -0.009  0.00  0.00     0.129 C 
BRANCH   6   7
ATOM      7  N   UNL d   1       0.013  -3.207   0.001  0.00  0.00    -0.389 N 
ATOM      8  H   UNL d   1      -0.884  -3.675  -0.017  0.00  0.00     0.159 HD
BRANCH   7   9
ATOM      9  C   UNL d   1       0.025  -1.815  -0.002  0.00  0.00     0.028 A 
ATOM     10  C   UNL d   1      -1.181  -1.097  -0.004  0.00  0.00     0.036 A 
ATOM     11  C   UNL d   1      -1.211   0.313  -0.005  0.00  0.00    -0.059 A 
ATOM     12  C   UNL d   1      -0.006   1.023  -0.007  0.00  0.00     0.013 A 
ATOM     13  C   UNL d   1      -2.528   1.034  -0.005  0.00  0.00     0.048 C 
ATOM     14  C   UNL d   1       1.211   0.339  -0.001  0.00  0.00    -0.059 A 
ATOM     15  C   UNL d   1       2.521   1.070   0.008  0.00  0.00     0.048 C 
ATOM     16  C   UNL d   1       1.209  -1.066   0.003  0.00  0.00     0.036 A 
ENDBRANCH   7   9
ENDBRANCH   6   7
ENDBRANCH   5   6
ENDBRANCH   1   5
BRANCH   3  17
ATOM     17  N   UNL d   1       3.467  -8.410  -0.006  0.00  0.00    -0.263 N 
ATOM     18  C   UNL d   1       3.416  -9.794  -0.083  0.00  0.00     0.270 C 
ATOM     19  O   UNL d   1       2.353 -10.417  -0.156  0.00  0.00    -0.266 OA
ATOM     20  H   UNL d   1       4.334  -7.875  -0.040  0.00  0.00     0.190 HD
BRANCH  18  21
ATOM     21  C   UNL d   1       4.715 -10.542  -0.055  0.00  0.00     0.033 A 
ATOM     22  C   UNL d   1       4.871 -11.708  -0.826  0.00  0.00     0.017 A 
ATOM     23  C   UNL d   1       6.016 -12.508  -0.689  0.00  0.00     0.001 A 
ATOM     24  C   UNL d   1       7.037 -12.124   0.177  0.00  0.00     0.000 A 
ATOM     25  C   UNL d   1       6.897 -10.961   0.935  0.00  0.00     0.001 A 
ATOM     26  C   UNL d   1       5.740 -10.176   0.827  0.00  0.00     0.017 A 
ENDBRANCH  18  21
ENDBRANCH   3  17
TORSDOF 6
