@<TRIPOS>MOLECULE
*****
 34 35 0 0 0
SMALL
GASTEIGER

@<TRIPOS>ATOM
      1 C           1.0680    0.2624   -0.5343 C.3     1  UNL1       -0.0024
      2 N           2.4340    0.0921   -0.0387 N.pl3   1  UNL1       -0.3463
      3 C           3.1320    1.0847    0.6561 C.ar    1  UNL1        0.0391
      4 C           4.3328    1.6057    0.1100 C.ar    1  UNL1       -0.0401
      5 C           5.1488    2.5025    0.8232 C.ar    1  UNL1       -0.0600
      6 C           4.7355    2.9796    2.0575 C.ar    1  UNL1       -0.0609
      7 C           3.5341    2.5228    2.5923 C.ar    1  UNL1       -0.0478
      8 C           2.7349    1.5731    1.9180 C.ar    1  UNL1        0.0578
      9 C           1.5082    1.1366    2.6638 C.2     1  UNL1        0.2500
     10 O           1.0918    1.8363    3.5719 O.2     1  UNL1       -0.2698
     11 N           0.9245   -0.0640    2.2819 N.am    1  UNL1       -0.2814
     12 C          -0.4542   -0.3581    2.4044 C.ar    1  UNL1        0.0342
     13 C          -0.9138   -1.6326    2.0611 C.ar    1  UNL1       -0.0404
     14 C          -2.2582   -1.9681    2.2477 C.ar    1  UNL1       -0.0595
     15 C          -3.1412   -1.0328    2.7847 C.ar    1  UNL1       -0.0500
     16 C          -2.7253    0.2875    2.9900 C.ar    1  UNL1        0.0566
     17 C          -3.6925    1.3291    3.4817 C.3     1  UNL1        0.4175
     18 F          -4.7954    1.4258    2.6871 F       1  UNL1       -0.1659
     19 F          -4.1551    1.0523    4.7313 F       1  UNL1       -0.1659
     20 F          -3.1707    2.5853    3.5414 F       1  UNL1       -0.1659
     21 C          -1.3858    0.6184    2.7613 C.ar    1  UNL1       -0.0288
     22 H           0.7447   -0.6934   -0.9632 H       1  UNL1        0.0425
     23 H           0.9439    1.0858   -1.2351 H       1  UNL1        0.0425
     24 H           0.3327    0.4766    0.2327 H       1  UNL1        0.0425
     25 H           3.0205   -0.5459   -0.5708 H       1  UNL1        0.1458
     26 H           4.6644    1.3191   -0.8871 H       1  UNL1        0.0636
     27 H           6.1110    2.8226    0.4246 H       1  UNL1        0.0618
     28 H           5.3370    3.6990    2.6090 H       1  UNL1        0.0618
     29 H           3.2285    2.8860    3.5720 H       1  UNL1        0.0626
     30 H           1.4775   -0.6522    1.6634 H       1  UNL1        0.1551
     31 H          -0.2312   -2.3878    1.6822 H       1  UNL1        0.0636
     32 H          -2.6142   -2.9667    2.0058 H       1  UNL1        0.0618
     33 H          -4.1566   -1.3299    3.0415 H       1  UNL1        0.0623
     34 H          -1.0855    1.6606    2.8589 H       1  UNL1        0.0642
@<TRIPOS>BOND
     1     1     2    1
     2     2     3    1
     3     3     4   ar
     4     4     5   ar
     5     5     6   ar
     6     6     7   ar
     7     7     8   ar
     8     3     8   ar
     9     8     9    1
    10     9    10    2
    11     9    11   am
    12    11    12    1
    13    12    13   ar
    14    13    14   ar
    15    14    15   ar
    16    15    16   ar
    17    16    17    1
    18    17    18    1
    19    17    19    1
    20    17    20    1
    21    16    21   ar
    22    12    21   ar
    23     1    22    1
    24     1    23    1
    25     1    24    1
    26     2    25    1
    27     4    26    1
    28     5    27    1
    29     6    28    1
    30     7    29    1
    31    11    30    1
    32    13    31    1
    33    14    32    1
    34    15    33    1
    35    21    34    1
