@<TRIPOS>MOLECULE
*****
 63 65 0 0 0
SMALL
GASTEIGER

@<TRIPOS>ATOM
      1 O          -0.6530    1.1930    0.9003 O.2     1  UNL1        0.0416
      2 N           0.4664    0.7124    1.1052 N.pl3   1  UNL1        0.0835
      3 O           1.1235    0.1065    0.2487 O.co2   1  UNL1       -0.5759
      4 C           1.0711    0.9252    2.3957 C.ar    1  UNL1        0.3161
      5 C           2.3027    1.5838    2.2436 C.ar    1  UNL1        0.0457
      6 C           2.9923    1.9333    3.3662 C.ar    1  UNL1        0.1121
      7 S           4.7143    2.3766    3.2428 S.O2    1  UNL1        0.0611
      8 O           5.3339    1.3081    2.5002 O.2     1  UNL1       -0.1528
      9 O           4.7094    3.7434    2.7478 O.2     1  UNL1       -0.1528
     10 N           5.3657    2.3627    4.8212 N.3     1  UNL1       -0.1766
     11 C           5.5804    1.0674    5.5229 C.3     1  UNL1        0.0205
     12 C           4.3903    0.9632    6.4496 C.3     1  UNL1       -0.0373
     13 C           4.1998    2.4224    6.9148 C.3     1  UNL1       -0.0373
     14 C           4.8089    3.3154    5.8079 C.3     1  UNL1        0.0205
     15 C           2.3167    1.8175    4.5575 C.ar    1  UNL1       -0.0315
     16 C           1.2273    1.0005    4.7639 C.ar    1  UNL1       -0.0113
     17 C           0.5316    0.5728    3.6696 C.ar    1  UNL1        0.1977
     18 O          -0.6030   -0.0505    4.1350 O.3     1  UNL1       -0.4828
     19 C          -1.5066   -0.3190    3.1179 C.3     1  UNL1        0.1207
     20 C          -2.7716   -1.0680    3.4494 C.3     1  UNL1        0.1285
     21 O          -3.5989   -0.2442    4.2792 O.3     1  UNL1       -0.3831
     22 C          -3.5676   -1.3631    2.1568 C.3     1  UNL1       -0.0016
     23 N          -2.9277   -2.2952    1.1248 N.4     1  UNL1        0.2420
     24 C          -1.6268   -1.8444    0.5239 C.3     1  UNL1       -0.0078
     25 C          -0.5043   -2.7857    0.9766 C.3     1  UNL1        0.0841
     26 O           0.7959   -2.3443    0.6758 O.3     1  UNL1       -0.3898
     27 C          -3.8358   -2.5889   -0.0496 C.3     1  UNL1       -0.0058
     28 C          -5.0714   -3.2831    0.3917 C.ar    1  UNL1       -0.0029
     29 C          -6.1560   -2.5385    0.8755 C.ar    1  UNL1       -0.0535
     30 C          -7.1859   -3.1832    1.5409 C.ar    1  UNL1       -0.0613
     31 C          -7.2017   -4.5745    1.5983 C.ar    1  UNL1       -0.0617
     32 C          -6.1513   -5.3216    1.0658 C.ar    1  UNL1       -0.0613
     33 C          -5.0698   -4.6774    0.4857 C.ar    1  UNL1       -0.0535
     34 H           2.6883    1.8603    1.2636 H       1  UNL1        0.0706
     35 H           6.4900    1.1181    6.1309 H       1  UNL1        0.0444
     36 H           5.6730    0.2214    4.8387 H       1  UNL1        0.0444
     37 H           4.4693    0.2664    7.2831 H       1  UNL1        0.0278
     38 H           3.5939    0.5177    5.8538 H       1  UNL1        0.0278
     39 H           4.7212    2.5814    7.8571 H       1  UNL1        0.0278
     40 H           3.1590    2.7030    7.1336 H       1  UNL1        0.0278
     41 H           5.5992    3.9498    6.2173 H       1  UNL1        0.0444
     42 H           4.0787    3.9883    5.3407 H       1  UNL1        0.0444
     43 H           2.6390    2.3476    5.4085 H       1  UNL1        0.0638
     44 H           0.9141    0.7554    5.7803 H       1  UNL1        0.0657
     45 H          -0.9185   -0.9605    2.4970 H       1  UNL1        0.0725
     46 H          -1.8133    0.6296    2.6811 H       1  UNL1        0.0725
     47 H          -2.5603   -1.9893    4.0009 H       1  UNL1        0.0681
     48 H          -3.6611    0.6528    3.8973 H       1  UNL1        0.2102
     49 H          -3.8420   -0.4385    1.6333 H       1  UNL1        0.0841
     50 H          -4.4862   -1.8384    2.5035 H       1  UNL1        0.0841
     51 H          -2.7984   -3.1946    1.6118 H       1  UNL1        0.2039
     52 H          -1.6779   -1.7792   -0.5678 H       1  UNL1        0.0837
     53 H          -1.5451   -0.8040    0.7821 H       1  UNL1        0.0837
     54 H          -0.6495   -3.7643    0.5201 H       1  UNL1        0.0610
     55 H          -0.5297   -2.9343    2.0627 H       1  UNL1        0.0610
     56 H           0.8377   -1.8569   -0.1720 H       1  UNL1        0.2096
     57 H          -3.2643   -3.2393   -0.7262 H       1  UNL1        0.0867
     58 H          -4.0340   -1.6417   -0.5635 H       1  UNL1        0.0867
     59 H          -6.1654   -1.4505    0.8140 H       1  UNL1        0.0622
     60 H          -7.9682   -2.6047    2.0264 H       1  UNL1        0.0618
     61 H          -8.0454   -5.0816    2.0579 H       1  UNL1        0.0618
     62 H          -6.1679   -6.4068    1.1228 H       1  UNL1        0.0618
     63 H          -4.2309   -5.2667    0.1184 H       1  UNL1        0.0622
@<TRIPOS>UNITY_ATOM_ATTR
2 1
charge 1
3 1
charge -1
23 1
charge 1
@<TRIPOS>BOND
     1     1     2    2
     2     2     3    1
     3     2     4    1
     4     4     5   ar
     5     5     6   ar
     6     6     7    1
     7     7     8    2
     8     7     9    2
     9     7    10    1
    10    10    11    1
    11    11    12    1
    12    12    13    1
    13    13    14    1
    14    10    14    1
    15     6    15   ar
    16    15    16   ar
    17    16    17   ar
    18     4    17   ar
    19    17    18    1
    20    18    19    1
    21    19    20    1
    22    20    21    1
    23    20    22    1
    24    24    25    1
    25    25    26    1
    26    23    27    1
    27    27    28    1
    28    28    29   ar
    29    29    30   ar
    30    30    31   ar
    31    31    32   ar
    32    32    33   ar
    33    28    33   ar
    34    23    24    1
    35    23    22    1
    36     5    34    1
    37    11    35    1
    38    11    36    1
    39    12    37    1
    40    12    38    1
    41    13    39    1
    42    13    40    1
    43    14    41    1
    44    14    42    1
    45    15    43    1
    46    16    44    1
    47    19    45    1
    48    19    46    1
    49    20    47    1
    50    21    48    1
    51    22    49    1
    52    22    50    1
    53    23    51    1
    54    24    52    1
    55    24    53    1
    56    25    54    1
    57    25    55    1
    58    26    56    1
    59    27    57    1
    60    27    58    1
    61    29    59    1
    62    30    60    1
    63    31    61    1
    64    32    62    1
    65    33    63    1
