@<TRIPOS>MOLECULE
*****
 52 53 0 0 0
SMALL
GASTEIGER

@<TRIPOS>ATOM
      1 C           1.4041   -0.4980    0.2419 C.2     1  UNL1       -0.0995
      2 C           2.7236   -0.4663    0.1083 C.2     1  UNL1       -0.0542
      3 C           3.2947    0.2027   -1.1007 C.3     1  UNL1        0.1076
      4 O           4.6578    0.4233   -0.8021 O.3     1  UNL1       -0.4873
      5 C           5.3722    1.1171   -1.7286 C.ar    1  UNL1        0.1296
      6 C           6.5135    0.4156   -2.1667 C.ar    1  UNL1       -0.0193
      7 C           7.4502    1.0208   -2.9943 C.ar    1  UNL1       -0.0583
      8 C           7.2018    2.3062   -3.4607 C.ar    1  UNL1       -0.0609
      9 C           6.0540    3.0092   -3.0404 C.ar    1  UNL1       -0.0496
     10 C           5.1380    2.4439   -2.1305 C.ar    1  UNL1        0.0362
     11 C           3.9415    3.2733   -1.7015 C.2     1  UNL1        0.0563
     12 N           3.2307    2.9928   -0.6505 N.2     1  UNL1       -0.1863
     13 N           1.9681    3.5377   -0.4567 N.am    1  UNL1       -0.1898
     14 C           1.1370    3.0105    0.5482 C.2     1  UNL1        0.3328
     15 O           1.4496    2.0855    1.3199 O.2     1  UNL1       -0.2497
     16 N          -0.1235    3.6206    0.6496 N.am    1  UNL1       -0.2331
     17 N          -0.8537    3.5162    1.9072 N.3     1  UNL1       -0.2349
     18 C          -2.3038    3.7552    1.8016 C.3     1  UNL1        0.0422
     19 C          -3.2162    2.8559    2.6369 C.ar    1  UNL1        0.0096
     20 C          -4.1224    3.5477    3.4850 C.ar    1  UNL1       -0.0538
     21 C          -4.8764    2.8933    4.4589 C.ar    1  UNL1       -0.0612
     22 C          -4.8211    1.5121    4.5460 C.ar    1  UNL1       -0.0583
     23 C          -4.0352    0.7961    3.6389 C.ar    1  UNL1       -0.0196
     24 C          -3.2701    1.4415    2.6447 C.ar    1  UNL1        0.1254
     25 O          -2.7121    0.5340    1.7590 O.3     1  UNL1       -0.4877
     26 C          -1.9859    1.0968    0.6848 C.3     1  UNL1        0.1076
     27 C          -1.5466    0.1872   -0.4040 C.2     1  UNL1       -0.0542
     28 C          -0.9183    0.7040   -1.4809 C.2     1  UNL1       -0.0995
     29 H           0.8421   -0.7652    1.1227 H       1  UNL1        0.0533
     30 H           0.9208    0.0632   -0.5257 H       1  UNL1        0.0533
     31 H           3.3242   -0.6723    0.9834 H       1  UNL1        0.0600
     32 H           2.7187    1.1026   -1.2877 H       1  UNL1        0.0742
     33 H           3.1579   -0.3728   -2.0225 H       1  UNL1        0.0742
     34 H           6.6732   -0.6123   -1.8413 H       1  UNL1        0.0654
     35 H           8.3672    0.4961   -3.2578 H       1  UNL1        0.0619
     36 H           7.9132    2.7626   -4.1472 H       1  UNL1        0.0618
     37 H           5.9154    4.0186   -3.4166 H       1  UNL1        0.0625
     38 H           3.6683    4.0984   -2.3820 H       1  UNL1        0.0852
     39 H           1.6308    4.2375   -1.1019 H       1  UNL1        0.1789
     40 H          -0.3162    4.4258    0.0702 H       1  UNL1        0.1706
     41 H          -0.6360    2.6210    2.3696 H       1  UNL1        0.1446
     42 H          -2.6871    3.8117    0.7766 H       1  UNL1        0.0491
     43 H          -2.3942    4.7741    2.1921 H       1  UNL1        0.0491
     44 H          -4.2383    4.6284    3.3987 H       1  UNL1        0.0622
     45 H          -5.4773    3.4653    5.1625 H       1  UNL1        0.0618
     46 H          -5.4075    0.9911    5.2988 H       1  UNL1        0.0619
     47 H          -4.0134   -0.2900    3.7124 H       1  UNL1        0.0654
     48 H          -1.0351    1.3680    1.1129 H       1  UNL1        0.0742
     49 H          -2.5558    1.8919    0.2042 H       1  UNL1        0.0742
     50 H          -1.4652   -0.8679   -0.1695 H       1  UNL1        0.0600
     51 H          -0.7166    1.7726   -1.5576 H       1  UNL1        0.0533
     52 H          -0.3447    0.0621   -2.1461 H       1  UNL1        0.0533
@<TRIPOS>BOND
     1     1     2    2
     2     2     3    1
     3     3     4    1
     4     4     5    1
     5     5     6   ar
     6     6     7   ar
     7     7     8   ar
     8     8     9   ar
     9     9    10   ar
    10     5    10   ar
    11    10    11    1
    12    11    12    2
    13    12    13    1
    14    13    14   am
    15    14    15    2
    16    14    16   am
    17    16    17    1
    18    17    18    1
    19    18    19    1
    20    19    20   ar
    21    20    21   ar
    22    21    22   ar
    23    22    23   ar
    24    23    24   ar
    25    19    24   ar
    26    24    25    1
    27    25    26    1
    28    26    27    1
    29    27    28    2
    30     1    29    1
    31     1    30    1
    32     2    31    1
    33     3    32    1
    34     3    33    1
    35     6    34    1
    36     7    35    1
    37     8    36    1
    38     9    37    1
    39    11    38    1
    40    13    39    1
    41    16    40    1
    42    17    41    1
    43    18    42    1
    44    18    43    1
    45    20    44    1
    46    21    45    1
    47    22    46    1
    48    23    47    1
    49    26    48    1
    50    26    49    1
    51    27    50    1
    52    28    51    1
    53    28    52    1
