REMARK  14 active torsions:
REMARK  status: ('A' for Active; 'I' for Inactive)
REMARK    1  A    between atoms: C_2  and  C_3 
REMARK    2  A    between atoms: C_3  and  C_4 
REMARK    3  A    between atoms: C_4  and  C_5 
REMARK    4  A    between atoms: C_5  and  C_6 
REMARK    5  A    between atoms: C_6  and  O_7 
REMARK    6  A    between atoms: O_7  and  C_8 
REMARK    7  A    between atoms: C_13  and  C_14 
REMARK       I    between atoms: C_14  and  N_16 
REMARK    8  A    between atoms: N_16  and  C_17 
REMARK    9  A    between atoms: C_17  and  N_19 
REMARK   10  A    between atoms: C_25  and  C_26 
REMARK   11  A    between atoms: C_26  and  C_27 
REMARK   12  A    between atoms: C_27  and  O_29 
REMARK   13  A    between atoms: C_30  and  O_29 
REMARK   14  A    between atoms: C_30  and  C_32 
ROOT
ATOM      1  C   UNL d   1       6.857   6.588   1.827  0.00  0.00     0.177 C 
ATOM      2  S   UNL d   1       5.606   7.732   1.740  0.00  0.00    -0.041 SA
ENDROOT
BRANCH   1   3
ATOM      3  N   UNL d   1       8.199   6.957   2.069  0.00  0.00    -0.299 N 
ATOM      4  C   UNL d   1       8.680   8.261   1.808  0.00  0.00     0.260 C 
ATOM      5  O   UNL d   1       7.987   9.273   1.910  0.00  0.00    -0.267 OA
ATOM      6  H   UNL d   1       8.902   6.232   2.085  0.00  0.00     0.171 HD
BRANCH   4   7
ATOM      7  C   UNL d   1      10.100   8.543   1.415  0.00  0.00     0.065 A 
ATOM      8  C   UNL d   1      10.489   9.908   1.494  0.00  0.00     0.020 A 
ATOM      9  C   UNL d   1      11.793  10.333   1.234  0.00  0.00     0.001 A 
ATOM     10  C   UNL d   1      12.749   9.396   0.882  0.00  0.00     0.003 A 
ATOM     11  C   UNL d   1      12.368   8.063   0.700  0.00  0.00     0.038 A 
ATOM     12  C   UNL d   1      11.049   7.631   0.957  0.00  0.00     0.084 A 
BRANCH  12  13
ATOM     13  O   UNL d   1      10.860   6.285   0.882  0.00  0.00    -0.350 OA
BRANCH  13  14
ATOM     14  C   UNL d   1       9.900   5.838  -0.073  0.00  0.00     0.175 C 
BRANCH  14  15
ATOM     15  C   UNL d   1       9.818   4.319   0.131  0.00  0.00     0.027 C 
BRANCH  15  16
ATOM     16  C   UNL d   1       8.621   3.781  -0.646  0.00  0.00     0.002 C 
BRANCH  16  17
ATOM     17  C   UNL d   1       8.442   2.235  -0.697  0.00  0.00    -0.000 C 
BRANCH  17  18
ATOM     18  C   UNL d   1       7.145   1.553  -1.326  0.00  0.00    -0.005 C 
ATOM     19  C   UNL d   1       6.884   0.131  -0.802  0.00  0.00     0.005 C 
ENDBRANCH  17  18
ENDBRANCH  16  17
ENDBRANCH  15  16
ENDBRANCH  14  15
ENDBRANCH  13  14
ENDBRANCH  12  13
ENDBRANCH   4   7
ENDBRANCH   1   3
BRANCH   1  20
ATOM     20  N   UNL d   1       6.628   5.215   1.520  0.00  0.00    -0.343 N 
ATOM     21  C   UNL d   1       5.369   4.836   0.730  0.00  0.00     0.146 C 
ATOM     22  C   UNL d   1       5.615   3.664  -0.124  0.00  0.00     0.142 C 
ATOM     23  N   UNL d   1       6.038   2.590   0.832  0.00  0.00    -0.358 N 
ATOM     24  C   UNL d   1       7.077   2.711   1.717  0.00  0.00     0.241 C 
ATOM     25  H   UNL d   1       5.824   1.622   0.655  0.00  0.00     0.162 HD
ATOM     26  O   UNL d   1       7.640   1.718   2.189  0.00  0.00    -0.271 OA
ATOM     27  C   UNL d   1       7.191   4.088   2.337  0.00  0.00     0.188 C 
BRANCH  27  28
ATOM     28  C   UNL d   1       6.412   3.735   3.589  0.00  0.00     0.146 C 
BRANCH  28  29
ATOM     29  C   UNL d   1       5.077   4.439   3.710  0.00  0.00     0.261 C 
ATOM     30  O   UNL d   1       4.627   5.340   3.082  0.00  0.00    -0.265 OA
BRANCH  29  31
ATOM     31  O   UNL d   1       4.239   3.939   4.603  0.00  0.00    -0.316 OA
BRANCH  31  32
ATOM     32  C   UNL d   1       4.720   3.142   5.645  0.00  0.00     0.127 C 
ATOM     33  C   UNL d   1       4.005   1.850   5.370  0.00  0.00     0.040 C 
BRANCH  32  34
ATOM     34  C   UNL d   1       4.321   3.934   6.862  0.00  0.00     0.027 C 
ATOM     35  C   UNL d   1       5.069   5.274   6.921  0.00  0.00     0.007 C 
ENDBRANCH  32  34
ENDBRANCH  31  32
ENDBRANCH  29  31
ENDBRANCH  28  29
ENDBRANCH  27  28
ENDBRANCH   1  20
TORSDOF 14
