REMARK  6 active torsions:
REMARK  status: ('A' for Active; 'I' for Inactive)
REMARK    1  A    between atoms: O_2  and  C_3 
REMARK    2  A    between atoms: C_6  and  C_7 
REMARK    3  A    between atoms: C_7  and  C_8 
REMARK       I    between atoms: C_8  and  N_10 
REMARK    4  A    between atoms: N_10  and  N_11 
REMARK       I    between atoms: N_11  and  C_12 
REMARK    5  A    between atoms: C_12  and  C_14 
REMARK    6  A    between atoms: C_18  and  O_19 
ROOT
ATOM      1  C   UNL d   1       4.709  -3.502  -5.029  0.00  0.00     0.240 C 
ATOM      2  O   UNL d   1       3.758  -2.842  -5.458  0.00  0.00    -0.272 OA
ATOM      3  N   UNL d   1       5.306  -4.361  -5.929  0.00  0.00    -0.267 N 
ATOM      4  H   UNL d   1       6.069  -5.007  -5.748  0.00  0.00     0.190 HD
ENDROOT
BRANCH   3   5
ATOM      5  N   UNL d   1       4.760  -4.331  -7.247  0.00  0.00    -0.263 N 
ATOM      6  C   UNL d   1       5.213  -5.194  -8.214  0.00  0.00     0.270 C 
ATOM      7  O   UNL d   1       6.097  -6.027  -7.998  0.00  0.00    -0.266 OA
ATOM      8  H   UNL d   1       3.966  -3.696  -7.371  0.00  0.00     0.190 HD
BRANCH   6   9
ATOM      9  C   UNL d   1       4.596  -5.090  -9.571  0.00  0.00     0.036 A 
ATOM     10  C   UNL d   1       4.390  -6.261 -10.316  0.00  0.00     0.017 A 
ATOM     11  C   UNL d   1       3.990  -6.190 -11.657  0.00  0.00     0.004 A 
ATOM     12  C   UNL d   1       3.733  -4.952 -12.248  0.00  0.00     0.036 A 
ATOM     13  C   UNL d   1       3.919  -3.793 -11.500  0.00  0.00     0.066 A 
ATOM     14  C   UNL d   1       4.346  -3.849 -10.170  0.00  0.00     0.053 A 
BRANCH  13  15
ATOM     15  O   UNL d   1       3.727  -2.559 -12.050  0.00  0.00    -0.361 OA
ATOM     16  H   UNL d   1       3.508  -2.657 -12.992  0.00  0.00     0.217 HD
ENDBRANCH  13  15
ENDBRANCH   6   9
ENDBRANCH   3   5
BRANCH   1  17
ATOM     17  C   UNL d   1       5.269  -3.441  -3.586  0.00  0.00     0.143 C 
BRANCH  17  18
ATOM     18  C   UNL d   1       4.572  -2.483  -2.607  0.00  0.00    -0.049 A 
ATOM     19  C   UNL d   1       4.946  -2.422  -1.252  0.00  0.00     0.010 A 
ATOM     20  C   UNL d   1       4.198  -1.659  -0.332  0.00  0.00     0.037 A 
ATOM     21  C   UNL d   1       3.103  -0.902  -0.750  0.00  0.00     0.068 A 
ATOM     22  C   UNL d   1       2.776  -0.887  -2.091  0.00  0.00     0.037 A 
ATOM     23  C   UNL d   1       3.507  -1.657  -2.992  0.00  0.00     0.010 A 
BRANCH  21  24
ATOM     24  O   UNL d   1       2.472  -0.128   0.182  0.00  0.00    -0.356 OA
ATOM     25  C   UNL d   1       1.050  -0.103   0.062  0.00  0.00     0.210 C 
ENDBRANCH  21  24
ENDBRANCH  17  18
ENDBRANCH   1  17
TORSDOF 6
