REMARK  6 active torsions:
REMARK  status: ('A' for Active; 'I' for Inactive)
REMARK    1  A    between atoms: C_2  and  O_5 
REMARK    2  A    between atoms: O_5  and  C_6 
REMARK       I    between atoms: C_6  and  N_8 
REMARK    3  A    between atoms: N_8  and  C_9 
REMARK    4  A    between atoms: C_9  and  C_10 
REMARK    5  A    between atoms: C_10  and  C_11 
REMARK       I    between atoms: C_11  and  N_13 
REMARK    6  A    between atoms: N_13  and  C_14 
ROOT
ATOM      1  C   UNL d   1       8.077   3.543  -3.647  0.00  0.00     0.223 C 
ATOM      2  O   UNL d   1       8.840   2.871  -2.954  0.00  0.00    -0.273 OA
ATOM      3  N   UNL d   1       8.523   4.479  -4.581  0.00  0.00    -0.327 N 
ATOM      4  H   UNL d   1       7.877   5.180  -4.923  0.00  0.00     0.169 HD
ENDROOT
BRANCH   3   5
ATOM      5  C   UNL d   1       9.913   4.696  -4.813  0.00  0.00     0.037 A 
ATOM      6  C   UNL d   1      10.413   6.016  -4.955  0.00  0.00     0.032 A 
ATOM      7  C   UNL d   1      11.790   6.263  -5.136  0.00  0.00     0.034 A 
ATOM      8  C   UNL d   1      12.618   5.168  -5.221  0.00  0.00     0.063 A 
ATOM      9  N   UNL d   1      13.994   5.090  -5.419  0.00  0.00    -0.307 N 
ATOM     10  C   UNL d   1      12.127   3.872  -5.118  0.00  0.00     0.065 A 
ATOM     11  C   UNL d   1      14.367   3.738  -5.456  0.00  0.00     0.325 A 
ATOM     12  H   UNL d   1      14.647   5.848  -5.528  0.00  0.00     0.170 HD
ATOM     13  O   UNL d   1      15.493   3.297  -5.624  0.00  0.00    -0.247 OA
ATOM     14  N   UNL d   1      13.195   2.993  -5.269  0.00  0.00    -0.306 N 
ATOM     15  H   UNL d   1      13.165   1.987  -5.244  0.00  0.00     0.170 HD
ATOM     16  C   UNL d   1      10.793   3.605  -4.904  0.00  0.00     0.061 A 
ENDBRANCH   3   5
BRANCH   1  17
ATOM     17  C   UNL d   1       6.558   3.418  -3.484  0.00  0.00     0.123 C 
BRANCH  17  18
ATOM     18  C   UNL d   1       6.232   2.365  -2.411  0.00  0.00     0.134 C 
BRANCH  18  19
ATOM     19  N   UNL d   1       4.811   2.121  -2.160  0.00  0.00    -0.336 N 
ATOM     20  C   UNL d   1       4.441   1.186  -1.216  0.00  0.00     0.361 C 
ATOM     21  O   UNL d   1       5.271   0.550  -0.573  0.00  0.00    -0.238 OA
ATOM     22  H   UNL d   1       4.082   2.612  -2.657  0.00  0.00     0.164 HD
BRANCH  20  23
ATOM     23  O   UNL d   1       3.083   1.056  -1.083  0.00  0.00    -0.294 OA
BRANCH  23  24
ATOM     24  C   UNL d   1       2.571   0.086  -0.103  0.00  0.00     0.061 C 
ATOM     25  C   UNL d   1       1.025   0.105  -0.123  0.00  0.00     0.046 C 
ATOM     26  C   UNL d   1       3.005   0.456   1.323  0.00  0.00     0.046 C 
ATOM     27  C   UNL d   1       3.005  -1.344  -0.459  0.00  0.00     0.046 C 
ENDBRANCH  23  24
ENDBRANCH  20  23
ENDBRANCH  18  19
ENDBRANCH  17  18
ENDBRANCH   1  17
TORSDOF 6
