REMARK  5 active torsions:
REMARK  status: ('A' for Active; 'I' for Inactive)
REMARK    1  A    between atoms: C_2  and  C_3 
REMARK    2  A    between atoms: C_2  and  C_10 
REMARK    3  A    between atoms: C_3  and  C_4 
REMARK    4  A    between atoms: C_14  and  O_15 
REMARK    5  A    between atoms: C_18  and  O_19 
ROOT
ATOM      1  C   UNL d   1       4.912  -0.966  -0.248  0.00  0.00     0.028 C 
ATOM      2  C   UNL d   1       4.706  -0.588  -1.592  0.00  0.00     0.147 C 
ATOM      3  N   UNL d   1       4.854  -1.874  -2.072  0.00  0.00    -0.376 N 
ATOM      4  C   UNL d   1       6.172  -2.087  -1.738  0.00  0.00     0.076 C 
ATOM      5  C   UNL d   1       7.139  -2.595  -2.595  0.00  0.00     0.093 C 
ATOM      6  C   UNL d   1       8.444  -2.666  -2.221  0.00  0.00     0.041 C 
ATOM      7  C   UNL d   1       8.717  -2.341  -0.910  0.00  0.00     0.040 C 
ATOM      8  C   UNL d   1       7.688  -1.870   0.028  0.00  0.00     0.079 C 
ATOM      9  C   UNL d   1       6.328  -1.558  -0.429  0.00  0.00     0.038 C 
ATOM     10  H   UNL d   1       4.183  -2.631  -1.993  0.00  0.00     0.160 HD
ENDROOT
BRANCH   1  11
ATOM     11  C   UNL d   1       3.660  -0.525   0.533  0.00  0.00     0.163 C 
ATOM     12  O   UNL d   1       2.634  -1.241   0.399  0.00  0.00    -0.292 OA
BRANCH  11  13
ATOM     13  C   UNL d   1       3.517   0.978   0.880  0.00  0.00     0.122 C 
BRANCH  13  14
ATOM     14  C   UNL d   1       2.272   1.858   1.232  0.00  0.00    -0.051 A 
ATOM     15  C   UNL d   1       2.415   3.268   1.028  0.00  0.00     0.007 A 
ATOM     16  C   UNL d   1       1.594   4.229   1.656  0.00  0.00     0.001 A 
ATOM     17  C   UNL d   1       0.566   3.815   2.486  0.00  0.00     0.000 A 
ATOM     18  C   UNL d   1       0.316   2.445   2.603  0.00  0.00     0.001 A 
ATOM     19  C   UNL d   1       1.152   1.474   1.982  0.00  0.00     0.007 A 
ENDBRANCH  13  14
ENDBRANCH  11  13
ENDBRANCH   1  11
BRANCH   8  20
ATOM     20  O   UNL d   1       8.247  -1.587   1.271  0.00  0.00    -0.360 OA
ATOM     21  H   UNL d   1       9.198  -1.818   1.182  0.00  0.00     0.217 HD
ENDBRANCH   8  20
BRANCH   5  22
ATOM     22  O   UNL d   1       6.816  -2.838  -3.897  0.00  0.00    -0.358 OA
ATOM     23  H   UNL d   1       5.991  -2.343  -4.050  0.00  0.00     0.217 HD
ENDBRANCH   5  22
TORSDOF 5
