@<TRIPOS>MOLECULE
*****
 70 75 0 0 0
SMALL
GASTEIGER

@<TRIPOS>ATOM
      1 C           0.9844   -0.0944   -0.0099 C.3     1  UNL1        0.0788
      2 O           2.4013   -0.0090    0.0572 O.3     1  UNL1       -0.4951
      3 C           3.0679   -1.0126    0.7021 C.ar    1  UNL1        0.1218
      4 C           4.2663   -0.6468    1.3050 C.ar    1  UNL1       -0.0198
      5 C           5.1324   -1.6181    1.8111 C.ar    1  UNL1       -0.0566
      6 C           4.7920   -2.9667    1.7575 C.ar    1  UNL1       -0.0404
      7 C           3.6341   -3.3587    1.0973 C.ar    1  UNL1        0.0335
      8 N           3.4754   -4.6638    0.7062 N.pl3   1  UNL1       -0.3197
      9 C           3.2555   -4.9238   -0.6995 C.3     1  UNL1        0.0525
     10 C           1.9046   -5.6108   -0.8913 C.3     1  UNL1       -0.0147
     11 N           1.8110   -6.9350   -0.1414 N.4     1  UNL1        0.2486
     12 C           0.2819   -7.7426   -0.3260 C.3     1  UNL1        0.0727
     13 C          -0.2079   -7.6868   -1.8124 C.ar    1  UNL1        0.0725
     14 C          -0.1715   -6.6067   -2.6550 C.ar    1  UNL1       -0.0383
     15 C          -0.6421   -6.6542   -4.0508 C.ar    1  UNL1        0.0027
     16 C          -0.1386   -6.0211   -5.2175 C.ar    1  UNL1       -0.0070
     17 C          -0.5483   -6.5381   -6.4777 C.ar    1  UNL1        0.1669
     18 C          -1.0347   -7.8085   -6.4664 C.ar    1  UNL1        0.1682
     19 C          -1.9557   -8.0321   -5.4527 C.ar    1  UNL1        0.0078
     20 C          -1.6887   -7.5300   -4.2091 C.ar    1  UNL1        0.0529
     21 N          -2.1977   -8.1975   -3.0859 N.ar    1  UNL1       -0.3216
     22 C          -1.1842   -8.7144   -2.3070 C.ar    1  UNL1        0.2582
     23 O          -1.1368   -9.9265   -2.0636 O.2     1  UNL1       -0.2674
     24 O          -1.2956   -8.2483   -7.7416 O.3     1  UNL1       -0.4525
     25 C          -2.1511   -7.1594   -8.0335 C.3     1  UNL1        0.2332
     26 O          -1.5549   -5.9444   -7.3872 O.3     1  UNL1       -0.4526
     27 C           0.1739   -9.0891    0.5316 C.ar    1  UNL1        0.2048
     28 N           0.0235  -10.3123    0.0443 N.ar    1  UNL1       -0.1071
     29 N          -0.0843  -11.1983    1.0791 N.ar    1  UNL1       -0.0228
     30 N           0.0621  -10.5774    2.2265 N.ar    1  UNL1       -0.0432
     31 N           0.1409   -9.2666    1.9262 N.ar    1  UNL1       -0.2188
     32 C           0.3812   -8.3643    3.0505 C.3     1  UNL1        0.0591
     33 C          -0.6236   -8.4623    4.1866 C.3     1  UNL1       -0.0401
     34 C           1.8090   -8.6706    3.6338 C.3     1  UNL1       -0.0401
     35 C           0.0435   -6.9366    2.6504 C.3     1  UNL1       -0.0401
     36 C           2.3507   -6.5924    1.2758 C.3     1  UNL1       -0.0147
     37 C           3.6757   -5.8665    1.4776 C.3     1  UNL1        0.0525
     38 C           2.7404   -2.3629    0.6339 C.ar    1  UNL1        0.0011
     39 H           0.6306    0.7428   -0.6220 H       1  UNL1        0.0660
     40 H           0.5596    0.0139    0.9913 H       1  UNL1        0.0660
     41 H           0.6283   -1.0102   -0.4907 H       1  UNL1        0.0660
     42 H           4.5407    0.4030    1.3621 H       1  UNL1        0.0654
     43 H           6.1116   -1.3280    2.1813 H       1  UNL1        0.0619
     44 H           5.4975   -3.7083    2.1203 H       1  UNL1        0.0636
     45 H           4.0356   -5.6112   -1.0380 H       1  UNL1        0.0516
     46 H           3.3106   -4.0221   -1.3096 H       1  UNL1        0.0516
     47 H           1.8796   -5.8279   -1.9489 H       1  UNL1        0.0830
     48 H           1.0700   -4.9886   -0.5330 H       1  UNL1        0.0830
     49 H           2.4520   -7.6203   -0.5566 H       1  UNL1        0.2046
     50 H          -0.4586   -7.0547    0.1078 H       1  UNL1        0.0991
     51 H           0.0409   -5.6040   -2.3276 H       1  UNL1        0.0631
     52 H           0.8736   -5.5971   -5.1232 H       1  UNL1        0.0662
     53 H          -2.8939   -8.5265   -5.6507 H       1  UNL1        0.0676
     54 H          -2.9530   -8.8462   -3.2748 H       1  UNL1        0.1689
     55 H          -3.1226   -7.4610   -7.5902 H       1  UNL1        0.1166
     56 H          -2.3730   -7.0927   -9.1069 H       1  UNL1        0.1166
     57 H          -0.6303   -9.4308    4.6718 H       1  UNL1        0.0253
     58 H          -1.6270   -8.2407    3.8023 H       1  UNL1        0.0253
     59 H          -0.3733   -7.6836    4.9239 H       1  UNL1        0.0253
     60 H           1.8119   -9.6083    4.2025 H       1  UNL1        0.0253
     61 H           2.1657   -7.8682    4.2867 H       1  UNL1        0.0253
     62 H           2.6000   -8.8728    2.8951 H       1  UNL1        0.0253
     63 H          -1.0102   -6.6990    2.4766 H       1  UNL1        0.0253
     64 H           0.3382   -6.8182    1.6541 H       1  UNL1        0.0253
     65 H           0.5199   -6.1795    3.2739 H       1  UNL1        0.0253
     66 H           2.3911   -7.5152    1.7872 H       1  UNL1        0.0830
     67 H           1.6909   -5.8089    1.6618 H       1  UNL1        0.0830
     68 H           4.4963   -6.4942    1.1264 H       1  UNL1        0.0516
     69 H           3.8026   -5.6794    2.5563 H       1  UNL1        0.0516
     70 H           1.8269   -2.6631    0.1345 H       1  UNL1        0.0673
@<TRIPOS>UNITY_ATOM_ATTR
11 1
charge 1
@<TRIPOS>BOND
     1     1     2    1
     2     2     3    1
     3     3     4   ar
     4     4     5   ar
     5     5     6   ar
     6     6     7   ar
     7     7     8    1
     8     8     9    1
     9     9    10    1
    10    10    11    1
    11    11    12    1
    12    12    13    1
    13    13    14   ar
    14    14    15   ar
    15    15    16   ar
    16    16    17   ar
    17    17    18   ar
    18    18    19   ar
    19    19    20   ar
    20    15    20   ar
    21    20    21   ar
    22    21    22   ar
    23    13    22   ar
    24    22    23    2
    25    18    24    1
    26    24    25    1
    27    25    26    1
    28    17    26    1
    29    12    27    1
    30    27    28   ar
    31    28    29   ar
    32    29    30   ar
    33    30    31   ar
    34    27    31   ar
    35    31    32    1
    36    32    33    1
    37    32    34    1
    38    32    35    1
    39    11    36    1
    40    36    37    1
    41     8    37    1
    42     7    38   ar
    43     3    38   ar
    44     1    39    1
    45     1    40    1
    46     1    41    1
    47     4    42    1
    48     5    43    1
    49     6    44    1
    50     9    45    1
    51     9    46    1
    52    10    47    1
    53    10    48    1
    54    11    49    1
    55    12    50    1
    56    14    51    1
    57    16    52    1
    58    19    53    1
    59    21    54    1
    60    25    55    1
    61    25    56    1
    62    33    57    1
    63    33    58    1
    64    33    59    1
    65    34    60    1
    66    34    61    1
    67    34    62    1
    68    35    63    1
    69    35    64    1
    70    35    65    1
    71    36    66    1
    72    36    67    1
    73    37    68    1
    74    37    69    1
    75    38    70    1
