@<TRIPOS>MOLECULE
*****
 62 66 0 0 0
SMALL
GASTEIGER

@<TRIPOS>ATOM
      1 O           3.1505   -1.1958   -3.4264 O.co2   1  TRP1       -0.5479
      2 C           2.5961   -0.5193   -2.5107 C.2     1  TRP1        0.0623
      3 OXT         1.7409    0.4007   -2.6590 O.co2   1  TRP1       -0.5479
      4 CA          3.0837   -0.8075   -1.0353 C.3     1  TRP1        0.0667
      5 CB          2.3322    0.0757   -0.0064 C.3     1  TRP1       -0.0019
      6 CG          1.3170   -0.6255    0.8703 C.ar    1  TRP1       -0.0203
      7 CD1         0.9266   -1.9501    0.8591 C.ar    1  TRP1        0.0060
      8 NE1        -0.0286   -2.1355    1.8196 N.ar    1  TRP1       -0.3604
      9 CE2        -0.3272   -0.9423    2.4328 C.ar    1  TRP1        0.0467
     10 CZ2        -1.2731   -0.6377    3.4199 C.ar    1  TRP1       -0.0378
     11 CH2        -1.3804    0.6981    3.8226 C.ar    1  TRP1       -0.0598
     12 CZ3        -0.5567    1.6816    3.2796 C.ar    1  TRP1       -0.0611
     13 CE3         0.3965    1.3540    2.3105 C.ar    1  TRP1       -0.0523
     14 CD2         0.5078    0.0207    1.8656 C.ar    1  TRP1        0.0029
     15 N           4.5633   -0.6792   -0.8991 N.am    1  TRP1       -0.3055
     16 C           5.3998   -1.6354   -1.4576 C.2     0  UNK0        0.2345
     17 O           4.9540   -2.6921   -1.9016 O.2     0  UNK0       -0.2737
     18 C           6.9412   -1.3967   -1.3773 C.3     0  UNK0        0.1103
     19 C           7.3171   -1.5906    0.1255 C.3     0  UNK0       -0.0003
     20 C           6.7127   -0.6035    1.1044 C.ar    0  UNK0       -0.0451
     21 C           6.9066    0.7772    0.9427 C.ar    0  UNK0       -0.0585
     22 C           6.4161    1.6731    1.8900 C.ar    0  UNK0       -0.0615
     23 C           5.6738    1.2046    2.9717 C.ar    0  UNK0       -0.0617
     24 C           5.4322   -0.1608    3.1150 C.ar    0  UNK0       -0.0615
     25 C           5.9521   -1.0629    2.1877 C.ar    0  UNK0       -0.0585
     26 N           7.8063   -2.2383   -2.2996 N.am    0  UNK0       -0.2445
     27 C           9.1812   -2.2518   -2.1178 C.2     0  UNK0        0.2521
     28 O           9.8122   -1.5099   -1.3834 O.2     0  UNK0       -0.2698
     29 C           9.9351   -3.2235   -2.9224 C.ar    0  UNK0        0.0579
     30 C          11.0593   -3.8645   -2.4140 C.ar    0  UNK0       -0.0478
     31 C          11.7955   -4.6950   -3.2510 C.ar    0  UNK0       -0.0609
     32 C          11.4081   -4.8559   -4.5849 C.ar    0  UNK0       -0.0600
     33 C          10.2600   -4.2177   -5.0768 C.ar    0  UNK0       -0.0400
     34 C           9.4584   -3.4825   -4.2024 C.ar    0  UNK0        0.0424
     35 N           8.1366   -3.1505   -4.5096 N.pl3   0  UNK0       -0.3031
     36 C           7.2322   -3.0584   -3.3549 C.3     0  UNK0        0.1965
     37 O           7.0700   -4.3677   -2.8503 O.3     0  UNK0       -0.3588
     38 HA          2.8896   -1.8655   -0.8319 H       1  TRP1        0.0563
     39 HB1         3.0423    0.5693    0.6709 H       1  TRP1        0.0335
     40 HB2         1.7971    0.9011   -0.4888 H       1  TRP1        0.0335
     41 HD1         1.2371   -2.7762    0.2333 H       1  TRP1        0.0810
     42 HE1        -0.4795   -3.0168    2.0150 H       1  TRP1        0.1653
     43 HZ2        -1.9179   -1.4007    3.8417 H       1  TRP1        0.0638
     44 HH2        -2.1258    0.9754    4.5632 H       1  TRP1        0.0618
     45 HZ3        -0.6597    2.7158    3.5954 H       1  TRP1        0.0618
     46 HE3         1.0284    2.1232    1.8766 H       1  TRP1        0.0624
     47 H           4.9003    0.0353   -0.2718 H       1  TRP1        0.1494
     48 H           7.1537   -0.3641   -1.6811 H       0  UNK0        0.0601
     49 H           8.3914   -1.4991    0.3002 H       0  UNK0        0.0336
     50 H           7.0684   -2.6176    0.4232 H       0  UNK0        0.0336
     51 H           7.4138    1.1659    0.0618 H       0  UNK0        0.0620
     52 H           6.6179    2.7350    1.7825 H       0  UNK0        0.0618
     53 H           5.2716    1.9056    3.6971 H       0  UNK0        0.0618
     54 H           4.8415   -0.5260    3.9508 H       0  UNK0        0.0618
     55 H           5.7385   -2.1243    2.2990 H       0  UNK0        0.0620
     56 H          11.3106   -3.7524   -1.3637 H       0  UNK0        0.0626
     57 H          12.6704   -5.2092   -2.8639 H       0  UNK0        0.0618
     58 H          11.9709   -5.5321   -5.2247 H       0  UNK0        0.0618
     59 H           9.9567   -4.3869   -6.1071 H       0  UNK0        0.0636
     60 H           8.0146   -2.4074   -5.1911 H       0  UNK0        0.1501
     61 H           6.2837   -2.6636   -3.7186 H       0  UNK0        0.1036
     62 H           7.8232   -4.8630   -3.1977 H       0  UNK0        0.2134
@<TRIPOS>UNITY_ATOM_ATTR
3 1
charge -1
@<TRIPOS>BOND
     1     1     2   ar
     2     2     3   ar
     3     5     6    1
     4     6     7   ar
     5     7     8   ar
     6     8     9   ar
     7     9    10   ar
     8    10    11   ar
     9    11    12   ar
    10    12    13   ar
    11    13    14   ar
    12     6    14   ar
    13     9    14   ar
    14     4    15    1
    15    15    16   am
    16    16    17    2
    17    16    18    1
    18    18    19    1
    19    19    20    1
    20    20    21   ar
    21    21    22   ar
    22    22    23   ar
    23    23    24   ar
    24    24    25   ar
    25    20    25   ar
    26    18    26    1
    27    26    27   am
    28    27    28    2
    29    27    29    1
    30    29    30   ar
    31    30    31   ar
    32    31    32   ar
    33    32    33   ar
    34    33    34   ar
    35    29    34   ar
    36    34    35    1
    37    35    36    1
    38    26    36    1
    39     4     5    1
    40     4     2    1
    41    36    37    1
    42     4    38    1
    43     5    39    1
    44     5    40    1
    45     7    41    1
    46     8    42    1
    47    10    43    1
    48    11    44    1
    49    12    45    1
    50    13    46    1
    51    15    47    1
    52    18    48    1
    53    19    49    1
    54    19    50    1
    55    21    51    1
    56    22    52    1
    57    23    53    1
    58    24    54    1
    59    25    55    1
    60    30    56    1
    61    31    57    1
    62    32    58    1
    63    33    59    1
    64    35    60    1
    65    36    61    1
    66    37    62    1
