@<TRIPOS>MOLECULE
*****
 54 55 0 0 0
SMALL
GASTEIGER

@<TRIPOS>ATOM
      1 C           1.0369    0.1022    0.0499 C.3     1  UNL1       -0.0648
      2 C           2.5538    0.1172    0.0607 C.3     1  UNL1       -0.0476
      3 C           3.1424    1.2277    0.9480 C.3     1  UNL1        0.0240
      4 C           4.6669    1.1700    0.8972 C.2     1  UNL1        0.2172
      5 O           5.2387    0.3246    0.2089 O.2     1  UNL1       -0.2755
      6 N           5.3400    2.0922    1.6927 N.am    1  UNL1       -0.2855
      7 C           6.7593    2.1932    1.6901 C.ar    1  UNL1        0.0334
      8 C           7.4774    2.4627    2.8566 C.ar    1  UNL1       -0.0398
      9 C           8.8912    2.5879    2.8142 C.ar    1  UNL1       -0.0478
     10 C           9.6204    2.4168    1.6171 C.ar    1  UNL1        0.0383
     11 C          11.1468    2.4417    1.6392 C.2     1  UNL1        0.2601
     12 O          11.7517    2.6351    2.7012 O.2     1  UNL1       -0.2687
     13 N          11.8221    2.2158    0.4483 N.am    1  UNL1       -0.2311
     14 N          13.2754    2.1767    0.3344 N.am    1  UNL1       -0.2453
     15 C          13.8241    1.9563   -0.9449 C.2     1  UNL1        0.1531
     16 S          12.7749    1.7195   -2.2521 S.2     1  UNL1       -0.0170
     17 N          15.2351    1.9651   -1.0362 N.am    1  UNL1       -0.2639
     18 C          15.9856    1.7961   -2.2318 C.2     1  UNL1        0.2561
     19 O          15.4770    1.5735   -3.3302 O.2     1  UNL1       -0.2717
     20 C          17.5253    1.8126   -2.1328 C.3     1  UNL1        0.1655
     21 O          18.1072    1.6524   -3.4427 O.3     1  UNL1       -0.4825
     22 C          19.4538    1.4693   -3.6277 C.ar    1  UNL1        0.1242
     23 C          19.9733    2.0190   -4.8174 C.ar    1  UNL1       -0.0186
     24 C          21.3115    1.8219   -5.1949 C.ar    1  UNL1       -0.0443
     25 C          22.1571    1.1056   -4.3600 C.ar    1  UNL1        0.0184
     26 BR         23.9985    0.9510   -4.7598 Br      1  UNL1       -0.0503
     27 C          21.6579    0.5345   -3.1948 C.ar    1  UNL1       -0.0414
     28 C          20.3080    0.7037   -2.8218 C.ar    1  UNL1       -0.0077
     29 C          19.8640    0.0369   -1.5626 C.3     1  UNL1       -0.0362
     30 C           8.8781    2.1842    0.4538 C.ar    1  UNL1       -0.0478
     31 C           7.4759    2.0661    0.4975 C.ar    1  UNL1       -0.0398
     32 H           0.6734   -0.7064   -0.5945 H       1  UNL1        0.0230
     33 H           0.6392    1.0455   -0.3348 H       1  UNL1        0.0230
     34 H           0.6404   -0.0635    1.0556 H       1  UNL1        0.0230
     35 H           2.9136    0.2349   -0.9698 H       1  UNL1        0.0267
     36 H           2.9142   -0.8609    0.4051 H       1  UNL1        0.0267
     37 H           2.8027    1.0959    1.9811 H       1  UNL1        0.0358
     38 H           2.8034    2.2062    0.5894 H       1  UNL1        0.0358
     39 H           4.8245    2.6064    2.3970 H       1  UNL1        0.1548
     40 H           6.9746    2.5002    3.8217 H       1  UNL1        0.0636
     41 H           9.4223    2.8097    3.7399 H       1  UNL1        0.0626
     42 H          11.3434    2.0296   -0.4319 H       1  UNL1        0.1731
     43 H          13.7764    2.3180    1.2102 H       1  UNL1        0.1718
     44 H          15.7555    2.0866   -0.1769 H       1  UNL1        0.1566
     45 H          17.7276    0.9659   -1.4864 H       1  UNL1        0.0795
     46 H          17.8874    2.7488   -1.7017 H       1  UNL1        0.0795
     47 H          19.3365    2.6219   -5.4634 H       1  UNL1        0.0654
     48 H          21.6823    2.2279   -6.1333 H       1  UNL1        0.0630
     49 H          22.3189   -0.0570   -2.5643 H       1  UNL1        0.0632
     50 H          20.6515   -0.5556   -1.0940 H       1  UNL1        0.0279
     51 H          19.0273   -0.6366   -1.7762 H       1  UNL1        0.0279
     52 H          19.5960    0.8106   -0.8376 H       1  UNL1        0.0279
     53 H           9.3388    2.0857   -0.5217 H       1  UNL1        0.0626
     54 H           6.9448    1.8894   -0.4361 H       1  UNL1        0.0636
@<TRIPOS>BOND
     1     1     2    1
     2     2     3    1
     3     3     4    1
     4     4     5    2
     5     4     6   am
     6     6     7    1
     7     7     8   ar
     8     8     9   ar
     9     9    10   ar
    10    10    11    1
    11    11    12    2
    12    11    13   am
    13    13    14    1
    14    14    15    1
    15    15    16    2
    16    15    17    1
    17    17    18   am
    18    18    19    2
    19    18    20    1
    20    20    21    1
    21    21    22    1
    22    22    23   ar
    23    23    24   ar
    24    24    25   ar
    25    25    26    1
    26    25    27   ar
    27    27    28   ar
    28    22    28   ar
    29    28    29    1
    30    10    30   ar
    31    30    31   ar
    32     7    31   ar
    33     1    32    1
    34     1    33    1
    35     1    34    1
    36     2    35    1
    37     2    36    1
    38     3    37    1
    39     3    38    1
    40     6    39    1
    41     8    40    1
    42     9    41    1
    43    13    42    1
    44    14    43    1
    45    17    44    1
    46    20    45    1
    47    20    46    1
    48    23    47    1
    49    24    48    1
    50    27    49    1
    51    29    50    1
    52    29    51    1
    53    29    52    1
    54    30    53    1
    55    31    54    1
