REMARK  12 active torsions:
REMARK  status: ('A' for Active; 'I' for Inactive)
REMARK    1  A    between atoms: C_2  and  C_3 
REMARK    2  A    between atoms: C_3  and  C_4 
REMARK    3  A    between atoms: C_4  and  O_5 
REMARK    4  A    between atoms: O_5  and  C_6 
REMARK    5  A    between atoms: C_11  and  C_12 
REMARK       I    between atoms: C_12  and  N_14 
REMARK    6  A    between atoms: N_14  and  C_15 
REMARK    7  A    between atoms: C_15  and  N_17 
REMARK    8  A    between atoms: N_17  and  N_18 
REMARK       I    between atoms: N_18  and  C_19 
REMARK    9  A    between atoms: C_19  and  C_21 
REMARK   10  A    between atoms: C_24  and  N_25 
REMARK       I    between atoms: N_25  and  C_26 
REMARK   11  A    between atoms: C_26  and  C_28 
REMARK   12  A    between atoms: C_28  and  C_29 
ROOT
ATOM      1  N   UNL d   1       3.339  -1.917  -1.991  0.00  0.00    -0.273 N 
ATOM      2  H   UNL d   1       2.703  -1.123  -1.955  0.00  0.00     0.189 HD
ENDROOT
BRANCH   1   3
ATOM      3  C   UNL d   1       4.742  -1.847  -2.148  0.00  0.00     0.193 C 
ATOM      4  S   UNL d   1       5.658  -3.253  -1.980  0.00  0.00    -0.039 SA
BRANCH   3   5
ATOM      5  N   UNL d   1       5.281  -0.564  -2.438  0.00  0.00    -0.298 N 
ATOM      6  C   UNL d   1       6.652  -0.184  -2.336  0.00  0.00     0.260 C 
ATOM      7  O   UNL d   1       7.573  -0.999  -2.400  0.00  0.00    -0.267 OA
ATOM      8  H   UNL d   1       4.635   0.205  -2.553  0.00  0.00     0.171 HD
BRANCH   6   9
ATOM      9  C   UNL d   1       7.095   1.257  -2.175  0.00  0.00     0.065 A 
ATOM     10  C   UNL d   1       8.472   1.520  -2.423  0.00  0.00     0.020 A 
ATOM     11  C   UNL d   1       9.022   2.809  -2.376  0.00  0.00     0.001 A 
ATOM     12  C   UNL d   1       8.202   3.884  -2.077  0.00  0.00     0.003 A 
ATOM     13  C   UNL d   1       6.866   3.644  -1.738  0.00  0.00     0.038 A 
ATOM     14  C   UNL d   1       6.311   2.340  -1.771  0.00  0.00     0.084 A 
BRANCH  14  15
ATOM     15  O   UNL d   1       4.972   2.279  -1.522  0.00  0.00    -0.350 OA
BRANCH  15  16
ATOM     16  C   UNL d   1       4.555   1.416  -0.462  0.00  0.00     0.175 C 
BRANCH  16  17
ATOM     17  C   UNL d   1       3.053   1.259  -0.666  0.00  0.00     0.026 C 
BRANCH  17  18
ATOM     18  C   UNL d   1       2.478   0.177   0.230  0.00  0.00    -0.002 C 
ATOM     19  C   UNL d   1       0.978   0.091   0.040  0.00  0.00     0.005 C 
ENDBRANCH  17  18
ENDBRANCH  16  17
ENDBRANCH  15  16
ENDBRANCH  14  15
ENDBRANCH   6   9
ENDBRANCH   3   5
ENDBRANCH   1   3
BRANCH   1  20
ATOM     20  N   UNL d   1       2.738  -3.168  -1.522  0.00  0.00    -0.264 N 
ATOM     21  C   UNL d   1       1.379  -3.305  -1.286  0.00  0.00     0.270 C 
ATOM     22  O   UNL d   1       0.583  -2.362  -1.202  0.00  0.00    -0.266 OA
ATOM     23  H   UNL d   1       3.335  -3.985  -1.655  0.00  0.00     0.190 HD
BRANCH  21  24
ATOM     24  C   UNL d   1       0.816  -4.677  -1.153  0.00  0.00     0.033 A 
ATOM     25  C   UNL d   1      -0.477  -4.971  -1.634  0.00  0.00     0.019 A 
ATOM     26  C   UNL d   1      -1.064  -6.245  -1.449  0.00  0.00     0.030 A 
ATOM     27  C   UNL d   1      -0.336  -7.261  -0.826  0.00  0.00     0.034 A 
ATOM     28  C   UNL d   1       0.923  -6.919  -0.305  0.00  0.00     0.030 A 
ATOM     29  C   UNL d   1       1.505  -5.660  -0.467  0.00  0.00     0.019 A 
BRANCH  27  30
ATOM     30  N   UNL d   1      -0.855  -8.594  -0.750  0.00  0.00    -0.327 N 
ATOM     31  C   UNL d   1      -0.092  -9.672  -0.322  0.00  0.00     0.222 C 
ATOM     32  O   UNL d   1       1.096  -9.588  -0.014  0.00  0.00    -0.273 OA
ATOM     33  H   UNL d   1      -1.763  -8.773  -1.163  0.00  0.00     0.169 HD
BRANCH  31  34
ATOM     34  C   UNL d   1      -0.753 -11.042  -0.273  0.00  0.00     0.107 C 
BRANCH  34  35
ATOM     35  C   UNL d   1       0.212 -12.049   0.417  0.00  0.00    -0.014 C 
ATOM     36  C   UNL d   1       0.491 -11.665   1.881  0.00  0.00     0.010 C 
ATOM     37  C   UNL d   1      -0.335 -13.472   0.383  0.00  0.00     0.010 C 
ENDBRANCH  34  35
ENDBRANCH  31  34
ENDBRANCH  27  30
ENDBRANCH  21  24
ENDBRANCH   1  20
TORSDOF 12
