@<TRIPOS>MOLECULE
*****
 48 49 0 0 0
SMALL
GASTEIGER

@<TRIPOS>ATOM
      1 C           2.4881   -0.2072   -0.0148 C.3     1  UNL1       -0.0379
      2 C           0.9965   -0.0362    0.0033 C.ar    1  UNL1       -0.0289
      3 C           0.2306   -1.2228    0.0024 C.ar    1  UNL1       -0.0450
      4 C          -1.1694   -1.2071   -0.0090 C.ar    1  UNL1        0.0371
      5 C          -1.8849   -2.5238   -0.0244 C.2     1  UNL1        0.2443
      6 O          -1.2223   -3.5580   -0.0531 O.2     1  UNL1       -0.2702
      7 N          -3.2712   -2.5286    0.0063 N.am    1  UNL1       -0.3090
      8 C          -4.0392   -3.7733    0.0314 C.3     1  UNL1        0.0178
      9 C          -3.7213   -4.5916    1.2820 C.3     1  UNL1       -0.0469
     10 C          -5.5436   -3.4939   -0.0045 C.3     1  UNL1       -0.0469
     11 C          -1.8055    0.0310   -0.0101 C.ar    1  UNL1       -0.0479
     12 C          -1.0486    1.2212    0.0008 C.ar    1  UNL1       -0.0399
     13 C           0.3633    1.2243    0.0034 C.ar    1  UNL1        0.0305
     14 N           1.0297    2.4425    0.0086 N.pl3   1  UNL1       -0.3352
     15 C           2.4861    2.6183    0.0127 C.3     1  UNL1        0.0861
     16 C           2.9316    4.0682    0.0146 C.2     1  UNL1        0.2343
     17 O           2.1042    4.9787   -0.0055 O.2     1  UNL1       -0.2738
     18 N           4.3255    4.2448   -0.0005 N.am    1  UNL1       -0.2842
     19 C           4.8881    5.5401   -0.0023 C.ar    1  UNL1        0.0346
     20 C           4.3410    6.5160    0.8333 C.ar    1  UNL1       -0.0404
     21 C           4.8365    7.8142    0.8358 C.ar    1  UNL1       -0.0588
     22 C           5.8784    8.1587   -0.0191 C.ar    1  UNL1       -0.0442
     23 C           6.4448    7.1922   -0.8606 C.ar    1  UNL1        0.0535
     24 C           7.4888    7.5821   -1.7618 C.1     1  UNL1        0.0992
     25 N           8.3354    7.9197   -2.4892 N.1     1  UNL1       -0.1909
     26 C           5.9697    5.8668   -0.8299 C.ar    1  UNL1       -0.0231
     27 H           2.8146   -1.2468   -0.0068 H       1  UNL1        0.0278
     28 H           2.9244    0.2423    0.8796 H       1  UNL1        0.0278
     29 H           2.8926    0.2248   -0.9336 H       1  UNL1        0.0278
     30 H           0.7529   -2.1802    0.0044 H       1  UNL1        0.0628
     31 H          -3.7892   -1.6647    0.0010 H       1  UNL1        0.1493
     32 H          -3.7627   -4.3479   -0.8613 H       1  UNL1        0.0493
     33 H          -3.9717   -4.0263    2.1860 H       1  UNL1        0.0247
     34 H          -2.6610   -4.8484    1.3417 H       1  UNL1        0.0247
     35 H          -4.2825   -5.5307    1.2886 H       1  UNL1        0.0247
     36 H          -5.8566   -2.9106    0.8695 H       1  UNL1        0.0247
     37 H          -6.1136   -4.4305   -0.0016 H       1  UNL1        0.0247
     38 H          -5.8256   -2.9298   -0.8990 H       1  UNL1        0.0247
     39 H          -2.8858    0.1107   -0.0242 H       1  UNL1        0.0626
     40 H          -1.5977    2.1622    0.0022 H       1  UNL1        0.0636
     41 H           0.4946    3.3095   -0.0091 H       1  UNL1        0.1466
     42 H           2.9113    2.1886   -0.8972 H       1  UNL1        0.0557
     43 H           2.9040    2.1912    0.9266 H       1  UNL1        0.0557
     44 H           4.9402    3.4591   -0.1910 H       1  UNL1        0.1549
     45 H           3.5229    6.2660    1.5058 H       1  UNL1        0.0636
     46 H           4.3931    8.5512    1.4988 H       1  UNL1        0.0619
     47 H           6.2363    9.1866   -0.0256 H       1  UNL1        0.0630
     48 H           6.3952    5.1322   -1.5100 H       1  UNL1        0.0649
@<TRIPOS>BOND
     1     1     2    1
     2     2     3   ar
     3     3     4   ar
     4     4     5    1
     5     5     6    2
     6     5     7   am
     7     7     8    1
     8     8     9    1
     9     8    10    1
    10     4    11   ar
    11    11    12   ar
    12    12    13   ar
    13     2    13   ar
    14    13    14    1
    15    14    15    1
    16    15    16    1
    17    16    17    2
    18    16    18   am
    19    18    19    1
    20    19    20   ar
    21    20    21   ar
    22    21    22   ar
    23    22    23   ar
    24    23    24    1
    25    24    25    3
    26    23    26   ar
    27    19    26   ar
    28     1    27    1
    29     1    28    1
    30     1    29    1
    31     3    30    1
    32     7    31    1
    33     8    32    1
    34     9    33    1
    35     9    34    1
    36     9    35    1
    37    10    36    1
    38    10    37    1
    39    10    38    1
    40    11    39    1
    41    12    40    1
    42    14    41    1
    43    15    42    1
    44    15    43    1
    45    18    44    1
    46    20    45    1
    47    21    46    1
    48    22    47    1
    49    26    48    1
