@<TRIPOS>MOLECULE
*****
 47 50 0 0 0
SMALL
GASTEIGER

@<TRIPOS>ATOM
      1 C           0.8848   -0.0114    0.0188 C.3     1  UNL1       -0.0388
      2 C           2.3747   -0.0502    0.0233 C.ar    1  UNL1       -0.0325
      3 C           3.0241    1.1838    0.0033 C.ar    1  UNL1       -0.0159
      4 C           4.4023    1.2550   -0.0712 C.ar    1  UNL1        0.1289
      5 O           4.9333    2.4813   -0.2267 O.3     1  UNL1       -0.5062
      6 C           5.2253    0.1433   -0.0479 C.ar    1  UNL1        0.0811
      7 C           6.7176    0.2620   -0.0664 C.3     1  UNL1        0.0012
      8 N           7.4970    1.6201    0.0741 N.4     1  UNL1        0.2387
      9 C           7.1889    2.8565    0.9230 C.3     1  UNL1       -0.0314
     10 C           7.0871    4.0548   -0.0273 C.3     1  UNL1       -0.0077
     11 C           7.9503    3.6834   -1.2068 C.3     1  UNL1       -0.0077
     12 C           8.0639    2.1587   -1.2287 C.3     1  UNL1       -0.0314
     13 C           4.5637   -1.0982   -0.0141 C.ar    1  UNL1        0.1515
     14 C           3.1655   -1.2013    0.0106 C.ar    1  UNL1        0.0712
     15 C           2.8440   -2.6443    0.0123 C.2     1  UNL1        0.2317
     16 O           1.7307   -3.1468    0.0204 O.2     1  UNL1       -0.2832
     17 C           4.1935   -3.3178    0.0017 C.2     1  UNL1        0.1762
     18 C           4.4795   -4.6396   -0.0076 C.2     1  UNL1       -0.0083
     19 C           5.8703   -5.1753   -0.0130 C.ar    1  UNL1       -0.0214
     20 C           6.3355   -6.0031   -1.0491 C.ar    1  UNL1       -0.0545
     21 C           7.6696   -6.4494   -1.0780 C.ar    1  UNL1       -0.0612
     22 C           8.5537   -6.0937   -0.0628 C.ar    1  UNL1       -0.0617
     23 C           8.0966   -5.3138    0.9954 C.ar    1  UNL1       -0.0612
     24 C           6.7656   -4.8688    1.0245 C.ar    1  UNL1       -0.0545
     25 O           5.1916   -2.3303   -0.0131 O.3     1  UNL1       -0.4508
     26 H           0.5278    1.0305    0.0174 H       1  UNL1        0.0278
     27 H           0.4941   -0.4842    0.9191 H       1  UNL1        0.0278
     28 H           0.5030   -0.4779   -0.8899 H       1  UNL1        0.0278
     29 H           2.4591    2.1147    0.0064 H       1  UNL1        0.0657
     30 H           4.2798    3.1729   -0.0254 H       1  UNL1        0.2922
     31 H           7.0988   -0.2115   -0.9856 H       1  UNL1        0.0869
     32 H           7.0965   -0.3573    0.7577 H       1  UNL1        0.0869
     33 H           8.2606    1.2459    0.6381 H       1  UNL1        0.2037
     34 H           8.0955    3.0071    1.5225 H       1  UNL1        0.0814
     35 H           6.3573    2.7175    1.6190 H       1  UNL1        0.0814
     36 H           7.4103    4.9935    0.4401 H       1  UNL1        0.0319
     37 H           6.0782    4.2813   -0.3821 H       1  UNL1        0.0319
     38 H           8.9363    4.1514   -1.1172 H       1  UNL1        0.0319
     39 H           7.5097    4.0664   -2.1372 H       1  UNL1        0.0319
     40 H           9.1134    1.8514   -1.2518 H       1  UNL1        0.0814
     41 H           7.5307    1.7348   -2.0850 H       1  UNL1        0.0814
     42 H           3.6957   -5.3992   -0.0180 H       1  UNL1        0.0661
     43 H           5.6773   -6.3108   -1.8588 H       1  UNL1        0.0623
     44 H           8.0233   -7.0769   -1.8951 H       1  UNL1        0.0618
     45 H           9.5873   -6.4361   -0.0892 H       1  UNL1        0.0618
     46 H           8.7781   -5.0578    1.8035 H       1  UNL1        0.0618
     47 H           6.4339   -4.2835    1.8777 H       1  UNL1        0.0623
@<TRIPOS>UNITY_ATOM_ATTR
8 1
charge 1
@<TRIPOS>BOND
     1     1     2    1
     2     2     3   ar
     3     3     4   ar
     4     4     5    1
     5     4     6   ar
     6     6     7    1
     7     7     8    1
     8     8     9    1
     9     9    10    1
    10    10    11    1
    11    11    12    1
    12     8    12    1
    13     6    13   ar
    14    13    14   ar
    15     2    14   ar
    16    14    15    1
    17    15    16    2
    18    15    17    1
    19    17    18    2
    20    18    19    1
    21    19    20   ar
    22    20    21   ar
    23    21    22   ar
    24    22    23   ar
    25    23    24   ar
    26    19    24   ar
    27    17    25    1
    28    13    25    1
    29     1    26    1
    30     1    27    1
    31     1    28    1
    32     3    29    1
    33     5    30    1
    34     7    31    1
    35     7    32    1
    36     8    33    1
    37     9    34    1
    38     9    35    1
    39    10    36    1
    40    10    37    1
    41    11    38    1
    42    11    39    1
    43    12    40    1
    44    12    41    1
    45    18    42    1
    46    20    43    1
    47    21    44    1
    48    22    45    1
    49    23    46    1
    50    24    47    1
