@<TRIPOS>MOLECULE
*****
 55 59 0 0 0
SMALL
GASTEIGER

@<TRIPOS>ATOM
      1 O           1.0097    0.0210    0.2464 O.2     1  UNL1       -0.2740
      2 C           2.2280    0.0650    0.0792 C.2     1  UNL1        0.2321
      3 C           2.9277   -0.4500   -1.1866 C.3     1  UNL1        0.1103
      4 N           1.9565   -0.8830   -2.1899 N.am    1  UNL1       -0.1902
      5 N           1.7736   -2.2538   -2.4975 N.3     1  UNL1       -0.1925
      6 C           1.6289   -2.2084   -3.9647 C.3     1  UNL1        0.2034
      7 C           2.9824   -2.4600   -4.5997 C.ar    1  UNL1        0.0463
      8 C           4.1589   -1.7718   -4.3580 C.ar    1  UNL1       -0.0466
      9 C           5.2784   -2.3049   -5.0390 C.ar    1  UNL1       -0.0543
     10 C           4.9316   -3.3839   -5.8168 C.ar    1  UNL1       -0.0239
     11 S           3.2597   -3.7559   -5.6909 S.2     1  UNL1       -0.0965
     12 O           1.2105   -0.8822   -4.2997 O.3     1  UNL1       -0.4242
     13 C           1.5356   -0.0906   -3.2338 C.2     1  UNL1        0.4190
     14 O           1.4915    1.1367   -3.2511 O.2     1  UNL1       -0.2248
     15 N           2.9864    0.5580    1.1184 N.am    1  UNL1       -0.3131
     16 C           4.4297    0.5806    1.1638 C.3     1  UNL1        0.0224
     17 C           5.0743    0.9323    2.5278 C.3     1  UNL1        0.0290
     18 C           4.6268    0.0017    3.6425 C.2     1  UNL1        0.0166
     19 C           4.7657   -1.3284    3.6631 C.ar    1  UNL1        0.0515
     20 C           5.2518   -2.2654    2.7235 C.ar    1  UNL1       -0.0481
     21 C           5.4562   -3.5367    3.0556 C.ar    1  UNL1       -0.0608
     22 C           5.0614   -4.0115    4.3586 C.ar    1  UNL1       -0.0555
     23 C           4.4984   -3.2185    5.2966 C.ar    1  UNL1        0.0098
     24 C           4.3320   -1.7754    4.9908 C.ar    1  UNL1        0.2086
     25 N           3.8866   -0.8003    5.6898 N.2     1  UNL1       -0.2369
     26 C           3.9979    0.4757    4.9267 C.3     1  UNL1        0.1667
     27 C           6.6160    0.9831    2.4699 C.ar    1  UNL1       -0.0203
     28 C           7.2629    1.9770    3.2390 C.ar    1  UNL1       -0.0566
     29 C           8.6483    2.1582    3.1471 C.ar    1  UNL1       -0.0614
     30 C           9.4359    1.2251    2.4871 C.ar    1  UNL1       -0.0604
     31 C           8.8426    0.1330    1.8930 C.ar    1  UNL1       -0.0431
     32 C           7.4617    0.1078    1.7368 C.ar    1  UNL1        0.0448
     33 CL          7.0438   -0.8896    0.3813 Cl      1  UNL1       -0.0832
     34 H           3.5776   -1.2985   -0.9341 H       1  UNL1        0.0577
     35 H           3.5574    0.3483   -1.6011 H       1  UNL1        0.0577
     36 H           0.8326   -2.4624   -2.1469 H       1  UNL1        0.1487
     37 H           0.8733   -2.9234   -4.3160 H       1  UNL1        0.0985
     38 H           4.2138   -0.9253   -3.6912 H       1  UNL1        0.0627
     39 H           6.2814   -1.9063   -4.9588 H       1  UNL1        0.0623
     40 H           5.5892   -3.9681   -6.4475 H       1  UNL1        0.0693
     41 H           2.4291    0.8243    1.9191 H       1  UNL1        0.1488
     42 H           4.8005    1.2452    0.3781 H       1  UNL1        0.0471
     43 H           4.6822   -0.4258    0.8685 H       1  UNL1        0.0471
     44 H           4.7131    1.9429    2.7806 H       1  UNL1        0.0412
     45 H           5.4248   -1.9958    1.7090 H       1  UNL1        0.0626
     46 H           5.8584   -4.2127    2.3030 H       1  UNL1        0.0618
     47 H           5.1999   -5.0803    4.5043 H       1  UNL1        0.0620
     48 H           4.1805   -3.6369    6.2410 H       1  UNL1        0.0683
     49 H           3.5228   -0.9072    6.6354 H       1  UNL1        0.4459
     50 H           4.6284    1.1695    5.4895 H       1  UNL1        0.1077
     51 H           2.9916    0.8811    4.7773 H       1  UNL1        0.1077
     52 H           6.7058    2.6741    3.8644 H       1  UNL1        0.0621
     53 H           9.1262    3.0320    3.5840 H       1  UNL1        0.0618
     54 H          10.5077    1.3575    2.3799 H       1  UNL1        0.0618
     55 H           9.4547   -0.6381    1.4298 H       1  UNL1        0.0632
@<TRIPOS>UNITY_ATOM_ATTR
25 1
charge 1
@<TRIPOS>BOND
     1     1     2    2
     2     2     3    1
     3     3     4    1
     4     4     5    1
     5     5     6    1
     6     6     7    1
     7     7     8   ar
     8     8     9   ar
     9     9    10   ar
    10    10    11   ar
    11     7    11   ar
    12     6    12    1
    13    12    13    1
    14     4    13   am
    15    13    14    2
    16     2    15   am
    17    15    16    1
    18    16    17    1
    19    17    18    1
    20    18    19    2
    21    19    20   ar
    22    20    21   ar
    23    21    22   ar
    24    22    23   ar
    25    23    24   ar
    26    19    24   ar
    27    24    25    2
    28    25    26    1
    29    18    26    1
    30    17    27    1
    31    27    28   ar
    32    28    29   ar
    33    29    30   ar
    34    30    31   ar
    35    31    32   ar
    36    27    32   ar
    37    32    33    1
    38     3    34    1
    39     3    35    1
    40     5    36    1
    41     6    37    1
    42     8    38    1
    43     9    39    1
    44    10    40    1
    45    15    41    1
    46    16    42    1
    47    16    43    1
    48    17    44    1
    49    20    45    1
    50    21    46    1
    51    22    47    1
    52    23    48    1
    53    25    49    1
    54    26    50    1
    55    26    51    1
    56    28    52    1
    57    29    53    1
    58    30    54    1
    59    31    55    1
