@<TRIPOS>MOLECULE
*****
 56 58 0 0 0
SMALL
GASTEIGER

@<TRIPOS>ATOM
      1 C           2.5173   -0.0330   -0.0133 C.3     1  UNL1       -0.0397
      2 C           1.0266   -0.0736    0.0031 C.ar    1  UNL1       -0.0503
      3 C           0.2923   -1.2714    0.0048 C.ar    1  UNL1       -0.0571
      4 C          -1.1134   -1.2923   -0.0019 C.ar    1  UNL1       -0.0402
      5 C          -1.8167   -0.1086   -0.0136 C.ar    1  UNL1        0.0335
      6 N          -3.2733   -0.1744   -0.0510 N.am    1  UNL1       -0.2840
      7 C          -3.9668    0.9728   -0.0404 C.2     1  UNL1        0.2372
      8 O          -3.2708    1.9593    0.0840 O.2     1  UNL1       -0.2735
      9 C          -5.4153    1.2789   -0.1084 C.3     1  UNL1        0.1051
     10 N          -5.7930    2.7669   -0.1442 N.ar    1  UNL1       -0.2784
     11 C          -7.1743    2.9147   -0.3302 C.ar    1  UNL1        0.3332
     12 O          -7.8252    1.9061   -0.6232 O.2     1  UNL1       -0.2462
     13 N          -7.7538    4.1727   -0.1617 N.ar    1  UNL1       -0.2601
     14 C          -9.2035    4.4092   -0.1667 C.3     1  UNL1        0.0333
     15 C         -10.0879    3.1783   -0.1003 C.3     1  UNL1       -0.0284
     16 C          -9.8313    2.4151    1.2060 C.3     1  UNL1       -0.0610
     17 C         -11.5638    3.5305   -0.1849 C.3     1  UNL1       -0.0610
     18 C          -7.0471    5.3593   -0.1216 C.ar    1  UNL1        0.2651
     19 O          -7.6103    6.4514   -0.1258 O.2     1  UNL1       -0.2668
     20 C          -5.6189    5.2370   -0.0952 C.ar    1  UNL1        0.0741
     21 C          -4.6587    6.3222   -0.0709 C.ar    1  UNL1       -0.0168
     22 C          -5.0429    7.7342   -0.0668 C.3     1  UNL1       -0.0377
     23 C          -3.3407    5.9104   -0.0588 C.ar    1  UNL1        0.0807
     24 C          -2.0421    6.6095   -0.0350 C.2     1  UNL1        0.2643
     25 O          -0.9382    6.0569   -0.0144 O.2     1  UNL1       -0.2683
     26 N          -2.1145    8.0050   -0.0218 N.am    1  UNL1       -0.2491
     27 N          -0.9852    8.8357   -0.0532 N.3     1  UNL1       -0.2541
     28 S          -3.3617    4.2550   -0.0899 S.2     1  UNL1       -0.0653
     29 C          -5.0467    3.9935   -0.0912 C.ar    1  UNL1        0.0979
     30 C          -1.0331    1.0892   -0.0006 C.ar    1  UNL1       -0.0402
     31 C           0.3493    1.1215    0.0064 C.ar    1  UNL1       -0.0571
     32 H           2.9308   -1.0418   -0.0006 H       1  UNL1        0.0278
     33 H           2.8868    0.5099    0.8635 H       1  UNL1        0.0278
     34 H           2.8635    0.4778   -0.9187 H       1  UNL1        0.0278
     35 H           0.8203   -2.2174    0.0061 H       1  UNL1        0.0621
     36 H          -1.6408   -2.2371   -0.0024 H       1  UNL1        0.0636
     37 H          -3.7391   -1.0701   -0.0625 H       1  UNL1        0.1549
     38 H          -5.9062    0.8343    0.7720 H       1  UNL1        0.0589
     39 H          -5.8297    0.7930   -1.0007 H       1  UNL1        0.0589
     40 H          -9.4399    5.0130   -1.0564 H       1  UNL1        0.0497
     41 H          -9.4379    5.0631    0.6907 H       1  UNL1        0.0497
     42 H          -9.8814    2.5715   -0.9886 H       1  UNL1        0.0313
     43 H         -10.1737    2.9967    2.0656 H       1  UNL1        0.0233
     44 H          -8.7785    2.2087    1.4170 H       1  UNL1        0.0233
     45 H         -10.3397    1.4502    1.1752 H       1  UNL1        0.0233
     46 H         -11.8764    4.1187    0.6819 H       1  UNL1        0.0233
     47 H         -12.1482    2.6050   -0.2084 H       1  UNL1        0.0233
     48 H         -11.7879    4.0966   -1.0942 H       1  UNL1        0.0233
     49 H          -6.1020    7.9241   -0.0738 H       1  UNL1        0.0278
     50 H          -4.6349    8.1790   -0.9778 H       1  UNL1        0.0278
     51 H          -4.6464    8.1698    0.8535 H       1  UNL1        0.0278
     52 H          -2.9966    8.4751   -0.0939 H       1  UNL1        0.1690
     53 H          -0.1561    8.2349    0.0026 H       1  UNL1        0.1405
     54 H          -0.9896    9.3938    0.8033 H       1  UNL1        0.1405
     55 H          -1.4065    2.1072    0.0025 H       1  UNL1        0.0636
     56 H           0.8536    2.0882    0.0068 H       1  UNL1        0.0621
@<TRIPOS>BOND
     1     1     2    1
     2     2     3   ar
     3     3     4   ar
     4     4     5   ar
     5     5     6    1
     6     6     7   am
     7     7     8    2
     8     7     9    1
     9     9    10    1
    10    10    11   ar
    11    11    12    2
    12    11    13   ar
    13    13    14    1
    14    14    15    1
    15    15    16    1
    16    15    17    1
    17    13    18   ar
    18    18    19    2
    19    18    20   ar
    20    20    21   ar
    21    21    22    1
    22    21    23   ar
    23    23    24    1
    24    24    25    2
    25    24    26   am
    26    26    27    1
    27    23    28   ar
    28    28    29   ar
    29    20    29   ar
    30    10    29   ar
    31     5    30   ar
    32    30    31   ar
    33     2    31   ar
    34     1    32    1
    35     1    33    1
    36     1    34    1
    37     3    35    1
    38     4    36    1
    39     6    37    1
    40     9    38    1
    41     9    39    1
    42    14    40    1
    43    14    41    1
    44    15    42    1
    45    16    43    1
    46    16    44    1
    47    16    45    1
    48    17    46    1
    49    17    47    1
    50    17    48    1
    51    22    49    1
    52    22    50    1
    53    22    51    1
    54    26    52    1
    55    27    53    1
    56    27    54    1
    57    30    55    1
    58    31    56    1
