REMARK  5 active torsions:
REMARK  status: ('A' for Active; 'I' for Inactive)
REMARK       I    between atoms: C_2  and  N_3 
REMARK    1  A    between atoms: C_2  and  C_12 
REMARK    2  A    between atoms: N_3  and  C_4 
REMARK    3  A    between atoms: C_10  and  O_11 
REMARK    4  A    between atoms: C_15  and  O_16 
REMARK    5  A    between atoms: O_16  and  C_17 
ROOT
ATOM      1  C   UNL d   1       3.124  -1.019   0.775  0.00  0.00     0.032 A 
ATOM      2  C   UNL d   1       4.324  -0.669   1.399  0.00  0.00     0.020 A 
ATOM      3  C   UNL d   1       5.146  -1.668   1.946  0.00  0.00     0.038 A 
ATOM      4  C   UNL d   1       4.731  -3.007   1.966  0.00  0.00     0.076 A 
ATOM      5  C   UNL d   1       3.499  -3.336   1.394  0.00  0.00     0.038 A 
ATOM      6  C   UNL d   1       2.706  -2.354   0.796  0.00  0.00     0.020 A 
ENDROOT
BRANCH   1   7
ATOM      7  C   UNL d   1       2.285  -0.026   0.048  0.00  0.00     0.256 C 
ATOM      8  O   UNL d   1       1.066  -0.204   0.032  0.00  0.00    -0.267 OA
ATOM      9  N   UNL d   1       2.982   0.926  -0.693  0.00  0.00    -0.320 N 
ATOM     10  H   UNL d   1       3.952   0.727  -0.899  0.00  0.00     0.169 HD
BRANCH   9  11
ATOM     11  C   UNL d   1       2.308   1.837  -1.545  0.00  0.00     0.070 A 
ATOM     12  C   UNL d   1       2.743   1.990  -2.867  0.00  0.00     0.056 A 
ATOM     13  C   UNL d   1       2.026   2.817  -3.740  0.00  0.00     0.036 A 
ATOM     14 CL   UNL d   1       2.505   2.949  -5.390  0.00  0.00    -0.084 Cl
ATOM     15  C   UNL d   1       0.906   3.523  -3.300  0.00  0.00     0.026 A 
ATOM     16  C   UNL d   1       0.503   3.418  -1.970  0.00  0.00     0.040 A 
ATOM     17  C   UNL d   1       1.211   2.590  -1.098  0.00  0.00     0.092 A 
BRANCH  17  18
ATOM     18  O   UNL d   1       0.897   2.593   0.234  0.00  0.00    -0.358 OA
ATOM     19  H   UNL d   1       0.034   3.015   0.358  0.00  0.00     0.217 HD
ENDBRANCH  17  18
ENDBRANCH   9  11
ENDBRANCH   1   7
BRANCH   4  20
ATOM     20  O   UNL d   1       5.571  -3.899   2.609  0.00  0.00    -0.309 OA
BRANCH  20  21
ATOM     21  C   UNL d   1       5.201  -5.220   2.692  0.00  0.00     0.093 A 
ATOM     22  C   UNL d   1       5.069  -6.023   1.561  0.00  0.00     0.040 A 
ATOM     23  C   UNL d   1       4.672  -7.350   1.703  0.00  0.00     0.022 A 
ATOM     24  C   UNL d   1       4.478  -7.845   2.983  0.00  0.00     0.116 A 
ATOM     25  N   UNL d   1       4.642  -7.107   4.104  0.00  0.00    -0.270 NA
ATOM     26  C   UNL d   1       5.002  -5.809   3.933  0.00  0.00     0.153 A 
ENDBRANCH  20  21
ENDBRANCH   4  20
TORSDOF 5
