REMARK  3 active torsions:
REMARK  status: ('A' for Active; 'I' for Inactive)
REMARK       I    between atoms: C_2  and  N_4 
REMARK    1  A    between atoms: N_4  and  C_5 
REMARK    2  A    between atoms: C_9  and  C_10 
REMARK       I    between atoms: C_10  and  N_12 
REMARK    3  A    between atoms: N_12  and  C_13 
ROOT
ATOM      1  C   UNL d   1       7.347  -4.179  -0.627  0.00  0.00     0.055 A 
ATOM      2  C   UNL d   1       6.759  -5.309  -1.220  0.00  0.00     0.031 A 
ATOM      3  C   UNL d   1       7.322  -6.575  -1.033  0.00  0.00     0.002 A 
ATOM      4  C   UNL d   1       8.501  -6.712  -0.304  0.00  0.00     0.002 A 
ATOM      5  C   UNL d   1       9.086  -5.595   0.291  0.00  0.00     0.025 A 
ATOM      6  C   UNL d   1       8.520  -4.325   0.138  0.00  0.00     0.071 A 
ATOM      7  C   UNL d   1       9.126  -3.230   0.841  0.00  0.00     0.102 C 
ATOM      8  N   UNL d   1       9.608  -2.335   1.417  0.00  0.00    -0.191 NA
ENDROOT
BRANCH   1   9
ATOM      9  N   UNL d   1       6.692  -2.932  -0.755  0.00  0.00    -0.322 N 
ATOM     10  C   UNL d   1       7.387  -1.749  -0.986  0.00  0.00     0.256 C 
ATOM     11  O   UNL d   1       8.570  -1.719  -1.320  0.00  0.00    -0.267 OA
ATOM     12  H   UNL d   1       5.682  -2.954  -0.752  0.00  0.00     0.169 HD
BRANCH  10  13
ATOM     13  C   UNL d   1       6.653  -0.462  -0.934  0.00  0.00     0.034 A 
ATOM     14  C   UNL d   1       7.365   0.722  -1.163  0.00  0.00     0.017 A 
ATOM     15  C   UNL d   1       6.684   1.930  -1.306  0.00  0.00     0.003 A 
ATOM     16  C   UNL d   1       5.293   1.974  -1.146  0.00  0.00     0.029 A 
ATOM     17  C   UNL d   1       4.583   0.801  -0.880  0.00  0.00     0.035 A 
ATOM     18  C   UNL d   1       5.273  -0.406  -0.766  0.00  0.00     0.046 A 
BRANCH  17  19
ATOM     19  N   UNL d   1       3.171   0.796  -0.802  0.00  0.00    -0.327 N 
ATOM     20  C   UNL d   1       2.490  -0.008   0.102  0.00  0.00     0.218 C 
ATOM     21  C   UNL d   1       0.988   0.051   0.028  0.00  0.00     0.117 C 
ATOM     22  O   UNL d   1       3.030  -0.723   0.945  0.00  0.00    -0.274 OA
ATOM     23  H   UNL d   1       2.667   1.464  -1.372  0.00  0.00     0.169 HD
ENDBRANCH  17  19
ENDBRANCH  10  13
ENDBRANCH   1   9
TORSDOF 3
