REMARK  6 active torsions:
REMARK  status: ('A' for Active; 'I' for Inactive)
REMARK    1  A    between atoms: N_2  and  C_3 
REMARK    2  A    between atoms: C_6  and  C_7 
REMARK       I    between atoms: C_7  and  N_9 
REMARK    3  A    between atoms: N_9  and  N_10 
REMARK       I    between atoms: N_10  and  C_11 
REMARK    4  A    between atoms: C_11  and  C_13 
REMARK    5  A    between atoms: C_15  and  C_16 
REMARK    6  A    between atoms: C_25  and  N_26 
ROOT
ATOM      1  C   UNL d   1       5.714  -3.730   2.858  0.00  0.00     0.270 C 
ATOM      2  O   UNL d   1       6.767  -3.321   3.345  0.00  0.00    -0.266 OA
ATOM      3  N   UNL d   1       5.294  -5.054   3.012  0.00  0.00    -0.263 N 
ATOM      4  H   UNL d   1       4.421  -5.439   2.662  0.00  0.00     0.190 HD
ENDROOT
BRANCH   3   5
ATOM      5  N   UNL d   1       6.061  -5.954   3.801  0.00  0.00    -0.262 N 
ATOM      6  C   UNL d   1       5.688  -7.296   3.888  0.00  0.00     0.288 C 
ATOM      7  O   UNL d   1       4.701  -7.737   3.312  0.00  0.00    -0.264 OA
ATOM      8  H   UNL d   1       6.939  -5.602   4.174  0.00  0.00     0.190 HD
BRANCH   6   9
ATOM      9  C   UNL d   1       6.565  -8.114   4.697  0.00  0.00     0.121 A 
ATOM     10  C   UNL d   1       7.136  -7.859   5.928  0.00  0.00     0.071 A 
ATOM     11  C   UNL d   1       7.929  -8.988   6.253  0.00  0.00     0.089 A 
ATOM     12  N   UNL d   1       7.839  -9.915   5.287  0.00  0.00    -0.174 NA
ATOM     13  N   UNL d   1       6.958  -9.397   4.403  0.00  0.00    -0.272 N 
ATOM     14  H   UNL d   1       6.706  -9.964   3.597  0.00  0.00     0.189 HD
BRANCH  11  15
ATOM     15  C   UNL d   1       8.718  -9.176   7.468  0.00  0.00    -0.006 A 
ATOM     16  C   UNL d   1      10.097  -9.414   7.412  0.00  0.00     0.014 A 
ATOM     17  C   UNL d   1      10.822  -9.648   8.587  0.00  0.00     0.001 A 
ATOM     18  C   UNL d   1      10.189  -9.574   9.828  0.00  0.00     0.000 A 
ATOM     19  C   UNL d   1       8.824  -9.303   9.896  0.00  0.00     0.001 A 
ATOM     20  C   UNL d   1       8.091  -9.110   8.721  0.00  0.00     0.014 A 
ENDBRANCH  11  15
ENDBRANCH   6   9
ENDBRANCH   3   5
BRANCH   1  21
ATOM     21  C   UNL d   1       4.821  -2.774   2.096  0.00  0.00     0.036 A 
ATOM     22  C   UNL d   1       5.159  -1.428   1.956  0.00  0.00     0.019 A 
ATOM     23  C   UNL d   1       4.270  -0.524   1.329  0.00  0.00     0.032 A 
ATOM     24  C   UNL d   1       3.033  -0.914   0.741  0.00  0.00     0.061 A 
ATOM     25  C   UNL d   1       2.695  -2.274   0.910  0.00  0.00     0.130 A 
ATOM     26  C   UNL d   1       3.604  -3.173   1.552  0.00  0.00     0.055 A 
BRANCH  24  27
ATOM     27  N   UNL d   1       2.363   0.117   0.100  0.00  0.00    -0.392 N 
ATOM     28  C   UNL d   1       0.938   0.334  -0.030  0.00  0.00     0.146 C 
ATOM     29  H   UNL d   1       2.928   0.679  -0.535  0.00  0.00     0.159 HD
ENDBRANCH  24  27
BRANCH  25  30
ATOM     30  N   UNL d   1       1.456  -2.949   0.446  0.00  0.00    -0.113 N 
ATOM     31  O   UNL d   1       1.367  -4.169   0.644  0.00  0.00    -0.532 OA
ATOM     32  O   UNL d   1       0.549  -2.315  -0.091  0.00  0.00    -0.532 OA
ENDBRANCH  25  30
ENDBRANCH   1  21
TORSDOF 6
