REMARK  6 active torsions:
REMARK  status: ('A' for Active; 'I' for Inactive)
REMARK    1  A    between atoms: C_2  and  C_23 
REMARK    2  A    between atoms: N_3  and  N_4 
REMARK       I    between atoms: N_4  and  C_5 
REMARK    3  A    between atoms: C_5  and  C_7 
REMARK    4  A    between atoms: C_10  and  N_11 
REMARK       I    between atoms: N_11  and  C_12 
REMARK    5  A    between atoms: C_12  and  C_14 
REMARK    6  A    between atoms: C_27  and  N_28 
ROOT
ATOM      1  C   UNL d   1       2.436   3.739  -2.967  0.00  0.00     0.033 A 
ATOM      2  C   UNL d   1       2.848   4.062  -4.269  0.00  0.00     0.019 A 
ATOM      3  C   UNL d   1       2.210   5.086  -5.001  0.00  0.00     0.030 A 
ATOM      4  C   UNL d   1       1.107   5.763  -4.462  0.00  0.00     0.035 A 
ATOM      5  C   UNL d   1       0.726   5.440  -3.155  0.00  0.00     0.030 A 
ATOM      6  C   UNL d   1       1.373   4.444  -2.410  0.00  0.00     0.019 A 
ENDROOT
BRANCH   1   7
ATOM      7  C   UNL d   1       3.218   2.751  -2.163  0.00  0.00     0.271 C 
ATOM      8  N   UNL d   1       2.482   1.861  -1.390  0.00  0.00    -0.243 N 
ATOM      9  H   UNL d   1       1.475   1.860  -1.467  0.00  0.00     0.192 HD
ATOM     10  O   UNL d   1       4.448   2.785  -2.246  0.00  0.00    -0.266 OA
BRANCH   8  11
ATOM     11  N   UNL d   1       3.121   0.898  -0.645  0.00  0.00    -0.176 NA
ATOM     12  C   UNL d   1       2.453  -0.016   0.006  0.00  0.00     0.061 C 
ATOM     13  C   UNL d   1       0.944  -0.120   0.058  0.00  0.00     0.073 C 
BRANCH  12  14
ATOM     14  C   UNL d   1       3.236  -1.069   0.758  0.00  0.00    -0.008 A 
ATOM     15  C   UNL d   1       4.431  -0.703   1.387  0.00  0.00     0.013 A 
ATOM     16  C   UNL d   1       5.278  -1.685   1.909  0.00  0.00     0.003 A 
ATOM     17  C   UNL d   1       4.907  -3.031   1.866  0.00  0.00     0.029 A 
ATOM     18  C   UNL d   1       3.710  -3.419   1.258  0.00  0.00     0.026 A 
ATOM     19  C   UNL d   1       2.860  -2.425   0.744  0.00  0.00     0.042 A 
BRANCH  18  20
ATOM     20  N   UNL d   1       3.292  -4.751   1.333  0.00  0.00    -0.399 N 
ATOM     21  H   UNL d   1       4.022  -5.443   1.476  0.00  0.00     0.156 HD
ATOM     22  H   UNL d   1       2.573  -5.043   0.680  0.00  0.00     0.156 HD
ENDBRANCH  18  20
ENDBRANCH  12  14
ENDBRANCH   8  11
ENDBRANCH   1   7
BRANCH   4  23
ATOM     23  N   UNL d   1       0.409   6.724  -5.249  0.00  0.00    -0.323 N 
ATOM     24  C   UNL d   1      -0.756   7.381  -4.865  0.00  0.00     0.256 C 
ATOM     25  O   UNL d   1      -1.321   7.277  -3.775  0.00  0.00    -0.267 OA
ATOM     26  H   UNL d   1       0.781   6.914  -6.170  0.00  0.00     0.169 HD
BRANCH  24  27
ATOM     27  C   UNL d   1      -1.412   8.312  -5.823  0.00  0.00     0.038 A 
ATOM     28  C   UNL d   1      -1.857   9.532  -5.278  0.00  0.00     0.017 A 
ATOM     29  C   UNL d   1      -2.651  10.404  -6.022  0.00  0.00     0.001 A 
ATOM     30  C   UNL d   1      -2.969  10.090  -7.337  0.00  0.00     0.001 A 
ATOM     31  C   UNL d   1      -2.541   8.880  -7.888  0.00  0.00     0.007 A 
ATOM     32  C   UNL d   1      -1.768   7.970  -7.140  0.00  0.00    -0.046 A 
ATOM     33  C   UNL d   1      -1.398   6.657  -7.761  0.00  0.00     0.049 C 
ENDBRANCH  24  27
ENDBRANCH   4  23
TORSDOF 6
