REMARK  7 active torsions:
REMARK  status: ('A' for Active; 'I' for Inactive)
REMARK    1  A    between atoms: O_2  and  C_3 
REMARK    2  A    between atoms: C_6  and  C_7 
REMARK    3  A    between atoms: C_11  and  C_12 
REMARK    4  A    between atoms: N_13  and  N_14 
REMARK       I    between atoms: N_14  and  C_15 
REMARK    5  A    between atoms: C_15  and  C_17 
REMARK    6  A    between atoms: C_19  and  O_20 
REMARK    7  A    between atoms: C_22  and  O_23 
ROOT
ATOM      1  C   UNL d   1       5.838  -1.308   5.443  0.00  0.00     0.154 C 
ATOM      2  N   UNL d   1       6.398  -2.019   6.369  0.00  0.00    -0.183 NA
ENDROOT
BRANCH   1   3
ATOM      3  C   UNL d   1       5.939   0.142   5.474  0.00  0.00     0.031 A 
ATOM      4  C   UNL d   1       6.598   0.915   6.410  0.00  0.00     0.124 A 
ATOM      5  N   UNL d   1       6.435   2.213   6.031  0.00  0.00    -0.288 N 
ATOM      6  N   UNL d   1       5.732   2.353   4.898  0.00  0.00    -0.174 NA
ATOM      7  H   UNL d   1       6.782   3.051   6.491  0.00  0.00     0.188 HD
ATOM      8  C   UNL d   1       5.410   1.097   4.545  0.00  0.00     0.100 A 
BRANCH   8   9
ATOM      9  C   UNL d   1       4.606   0.848   3.352  0.00  0.00    -0.005 A 
ATOM     10  C   UNL d   1       5.016   1.318   2.099  0.00  0.00     0.016 A 
ATOM     11  C   UNL d   1       4.216   1.105   0.969  0.00  0.00     0.037 A 
ATOM     12  C   UNL d   1       3.026   0.379   1.068  0.00  0.00     0.068 A 
ATOM     13  C   UNL d   1       2.624  -0.103   2.313  0.00  0.00     0.037 A 
ATOM     14  C   UNL d   1       3.403   0.140   3.450  0.00  0.00     0.016 A 
BRANCH  12  15
ATOM     15  O   UNL d   1       2.391   0.109  -0.113  0.00  0.00    -0.356 OA
ATOM     16  C   UNL d   1       0.972   0.006  -0.057  0.00  0.00     0.210 C 
ENDBRANCH  12  15
ENDBRANCH   8   9
ENDBRANCH   1   3
BRANCH   2  17
ATOM     17  N   UNL d   1       6.276  -3.395   6.286  0.00  0.00    -0.243 N 
ATOM     18  C   UNL d   1       6.836  -4.179   7.293  0.00  0.00     0.271 C 
ATOM     19  O   UNL d   1       7.446  -3.734   8.270  0.00  0.00    -0.266 OA
ATOM     20  H   UNL d   1       5.733  -3.806   5.534  0.00  0.00     0.192 HD
BRANCH  18  21
ATOM     21  C   UNL d   1       6.686  -5.662   7.198  0.00  0.00     0.039 A 
ATOM     22  C   UNL d   1       6.494  -6.396   8.385  0.00  0.00     0.053 A 
ATOM     23  C   UNL d   1       6.537  -7.791   8.356  0.00  0.00     0.069 A 
ATOM     24  C   UNL d   1       6.699  -8.477   7.159  0.00  0.00     0.073 A 
ATOM     25  C   UNL d   1       6.885  -7.747   5.989  0.00  0.00     0.069 A 
ATOM     26  C   UNL d   1       6.888  -6.348   5.995  0.00  0.00     0.053 A 
BRANCH  23  27
ATOM     27  O   UNL d   1       6.466  -8.538   9.498  0.00  0.00    -0.361 OA
ATOM     28  H   UNL d   1       6.597  -7.957  10.267  0.00  0.00     0.217 HD
ENDBRANCH  23  27
BRANCH  25  29
ATOM     29  O   UNL d   1       7.113  -8.373   4.797  0.00  0.00    -0.361 OA
ATOM     30  H   UNL d   1       7.171  -9.333   4.951  0.00  0.00     0.217 HD
ENDBRANCH  25  29
ENDBRANCH  18  21
ENDBRANCH   2  17
TORSDOF 7
