@<TRIPOS>MOLECULE
*****
 33 35 0 0 0
SMALL
GASTEIGER

@<TRIPOS>ATOM
      1 C           2.1108    0.0021    0.0001 C.3     1  UNL1       -0.0063
      2 C           0.6299   -0.0978    0.0009 C.ar    1  UNL1        0.1027
      3 C          -0.2065   -1.1920   -0.0044 C.ar    1  UNL1       -0.0203
      4 C          -1.5244   -0.6883    0.0001 C.ar    1  UNL1       -0.0146
      5 C          -1.4428    0.6920    0.0098 C.ar    1  UNL1        0.1475
      6 C          -2.5031    1.6853    0.0199 C.2     1  UNL1        0.0878
      7 N          -3.7407    1.2875    0.0200 N.2     1  UNL1       -0.1844
      8 N          -4.7729    2.2066    0.0267 N.am    1  UNL1       -0.2028
      9 C          -6.0944    1.7445    0.0935 C.2     1  UNL1        0.2653
     10 O          -6.3961    0.5475    0.1666 O.2     1  UNL1       -0.2684
     11 C          -7.1438    2.7729    0.1018 C.ar    1  UNL1        0.0633
     12 C          -8.3000    2.7198    0.8693 C.ar    1  UNL1        0.0149
     13 N          -9.0715    3.8194    0.5952 N.ar    1  UNL1       -0.3599
     14 C          -8.4895    4.5625   -0.4052 C.ar    1  UNL1        0.0472
     15 C          -8.9491    5.7150   -1.0600 C.ar    1  UNL1       -0.0378
     16 C          -8.1630    6.2251   -2.0973 C.ar    1  UNL1       -0.0598
     17 C          -6.9650    5.6129   -2.4549 C.ar    1  UNL1       -0.0611
     18 C          -6.5153    4.4734   -1.7807 C.ar    1  UNL1       -0.0519
     19 C          -7.2819    3.9336   -0.7301 C.ar    1  UNL1        0.0118
     20 O          -0.1126    1.0607    0.0089 O.2     1  UNL1       -0.4590
     21 H           2.5636   -0.9986    0.0095 H       1  UNL1        0.0308
     22 H           2.4759    0.5307    0.8853 H       1  UNL1        0.0308
     23 H           2.4756    0.5138   -0.8952 H       1  UNL1        0.0308
     24 H           0.1003   -2.2291   -0.0102 H       1  UNL1        0.0652
     25 H          -2.4470   -1.2521   -0.0019 H       1  UNL1        0.0656
     26 H          -2.2198    2.7520    0.0270 H       1  UNL1        0.0883
     27 H          -4.5757    3.2003    0.0655 H       1  UNL1        0.1776
     28 H          -8.6406    1.9802    1.5837 H       1  UNL1        0.0815
     29 H          -9.9667    4.0274    1.0199 H       1  UNL1        0.1654
     30 H          -9.8912    6.1887   -0.7978 H       1  UNL1        0.0638
     31 H          -8.4987    7.1035   -2.6448 H       1  UNL1        0.0618
     32 H          -6.3772    6.0105   -3.2778 H       1  UNL1        0.0618
     33 H          -5.5989    3.9862   -2.0967 H       1  UNL1        0.0624
@<TRIPOS>BOND
     1     1     2    1
     2     2     3   ar
     3     3     4   ar
     4     4     5   ar
     5     5     6    1
     6     6     7    2
     7     7     8    1
     8     8     9   am
     9     9    10    2
    10     9    11    1
    11    11    12   ar
    12    12    13   ar
    13    13    14   ar
    14    14    15   ar
    15    15    16   ar
    16    16    17   ar
    17    17    18   ar
    18    18    19   ar
    19    11    19   ar
    20    14    19   ar
    21     5    20   ar
    22     2    20   ar
    23     1    21    1
    24     1    22    1
    25     1    23    1
    26     3    24    1
    27     4    25    1
    28     6    26    1
    29     8    27    1
    30    12    28    1
    31    13    29    1
    32    15    30    1
    33    16    31    1
    34    17    32    1
    35    18    33    1
