@<TRIPOS>MOLECULE
*****
 48 49 0 0 0
SMALL
GASTEIGER

@<TRIPOS>ATOM
      1 C           1.0450   -0.0503   -0.0585 C.3     1  UNL1       -0.0556
      2 C           2.5719   -0.1069   -0.0790 C.3     1  UNL1        0.0167
      3 C           3.0952   -0.8348    1.1565 C.3     1  UNL1       -0.0556
      4 C           3.0510   -0.7311   -1.3455 C.ar    1  UNL1        0.1743
      5 N           2.9373   -2.0389   -1.6197 N.ar    1  UNL1       -0.0610
      6 O           3.4159   -2.1342   -2.9310 O.2     1  UNL1       -0.3380
      7 C           3.7635   -0.8682   -3.3014 C.ar    1  UNL1        0.2274
      8 C           4.2873   -0.6670   -4.6759 C.3     1  UNL1        0.0280
      9 C           4.6294    0.8168   -4.8871 C.3     1  UNL1       -0.0289
     10 C           5.1863    1.1065   -6.2727 C.3     1  UNL1        0.0135
     11 N           5.5182    2.5139   -6.4840 N.am    1  UNL1       -0.2994
     12 C           6.1279    2.8967   -7.6508 C.2     1  UNL1        0.3002
     13 O           6.4812    2.0773   -8.5022 O.2     1  UNL1       -0.2528
     14 N           6.2972    4.2469   -7.8080 N.am    1  UNL1       -0.2904
     15 CA          6.8300    4.8224   -9.0658 C.3     1  UNL1        0.0728
     16 C           5.8727    4.5388  -10.2716 C.3     1  UNL1        0.0667
     17 O           5.6269    3.1878  -10.6222 O.3     1  UNL1       -0.3928
     18 C           7.0793    6.3412   -8.9470 C.ar    1  UNL1       -0.0250
     19 C           7.7884    6.8841   -7.8653 C.ar    1  UNL1       -0.0567
     20 C           7.8819    8.2749   -7.6996 C.ar    1  UNL1       -0.0614
     21 C           7.3676    9.1457   -8.6600 C.ar    1  UNL1       -0.0617
     22 C           6.7370    8.6319   -9.7795 C.ar    1  UNL1       -0.0614
     23 C           6.5981    7.2526   -9.9160 C.ar    1  UNL1       -0.0567
     24 N           3.5651    0.0259   -2.3600 N.ar    1  UNL1       -0.1958
     25 H           0.6810    0.4360    0.8519 H       1  UNL1        0.0236
     26 H           0.6157   -1.0575   -0.1023 H       1  UNL1        0.0236
     27 H           0.6631    0.5101   -0.9195 H       1  UNL1        0.0236
     28 H           2.9470    0.9259   -0.0411 H       1  UNL1        0.0375
     29 H           2.7544   -1.8756    1.1758 H       1  UNL1        0.0236
     30 H           2.7444   -0.3491    2.0731 H       1  UNL1        0.0236
     31 H           4.1906   -0.8409    1.1730 H       1  UNL1        0.0236
     32 H           3.5347   -0.9943   -5.4037 H       1  UNL1        0.0361
     33 H           5.1767   -1.2917   -4.8206 H       1  UNL1        0.0361
     34 H           5.3605    1.1292   -4.1302 H       1  UNL1        0.0285
     35 H           3.7296    1.4233   -4.7200 H       1  UNL1        0.0285
     36 H           4.4556    0.8195   -7.0384 H       1  UNL1        0.0462
     37 H           6.0921    0.5138   -6.4432 H       1  UNL1        0.0462
     38 H           5.3420    3.1870   -5.7516 H       1  UNL1        0.1502
     39 H           6.0710    4.8727   -7.0494 H       1  UNL1        0.1509
     40 HA          7.7910    4.3243   -9.2556 H       1  UNL1        0.0571
     41 H1          6.3015    4.9664  -11.1816 H       1  UNL1        0.0579
     42 H2          4.9019    5.0137  -10.0829 H       1  UNL1        0.0579
     43 H           6.3798    2.6558  -10.2959 H       1  UNL1        0.2095
     44 H           8.2640    6.2367   -7.1316 H       1  UNL1        0.0621
     45 H           8.3463    8.6875   -6.8075 H       1  UNL1        0.0618
     46 H           7.4617   10.2215   -8.5432 H       1  UNL1        0.0618
     47 H           6.3261    9.2898  -10.5418 H       1  UNL1        0.0618
     48 H           6.0807    6.9294  -10.8147 H       1  UNL1        0.0621
@<TRIPOS>BOND
     1     1     2    1
     2     2     3    1
     3     2     4    1
     4     4     5   ar
     5     5     6   ar
     6     6     7   ar
     7     7     8    1
     8     8     9    1
     9     9    10    1
    10    10    11    1
    11    11    12   am
    12    12    13    2
    13    12    14   am
    14    14    15    1
    15    15    16    1
    16    16    17    1
    17    15    18    1
    18    18    19   ar
    19    19    20   ar
    20    20    21   ar
    21    21    22   ar
    22    22    23   ar
    23    18    23   ar
    24     7    24   ar
    25     4    24   ar
    26     1    25    1
    27     1    26    1
    28     1    27    1
    29     2    28    1
    30     3    29    1
    31     3    30    1
    32     3    31    1
    33     8    32    1
    34     8    33    1
    35     9    34    1
    36     9    35    1
    37    10    36    1
    38    10    37    1
    39    11    38    1
    40    14    39    1
    41    15    40    1
    42    16    41    1
    43    16    42    1
    44    17    43    1
    45    19    44    1
    46    20    45    1
    47    21    46    1
    48    22    47    1
    49    23    48    1
