REMARK  4 active torsions:
REMARK  status: ('A' for Active; 'I' for Inactive)
REMARK       I    between atoms: C_2  and  N_3 
REMARK    1  A    between atoms: C_2  and  C_13 
REMARK    2  A    between atoms: N_3  and  N_4 
REMARK    3  A    between atoms: N_4  and  C_5 
REMARK       I    between atoms: C_13  and  N_15 
REMARK    4  A    between atoms: N_15  and  C_16 
ROOT
ATOM      1  O   UNL d   1       1.030  -0.064   0.118  0.00  0.00    -0.261 OA
ATOM      2  C   UNL d   1       2.263  -0.016   0.086  0.00  0.00     0.328 C 
ATOM      3  N   UNL d   1       3.010   0.413   1.182  0.00  0.00    -0.261 N 
ATOM      4  H   UNL d   1       4.010   0.299   1.261  0.00  0.00     0.190 HD
ENDROOT
BRANCH   2   5
ATOM      5  C   UNL d   1       3.005  -0.426  -1.218  0.00  0.00     0.315 C 
ATOM      6  O   UNL d   1       2.314  -0.754  -2.184  0.00  0.00    -0.262 OA
ATOM      7  N   UNL d   1       4.405  -0.464  -1.226  0.00  0.00    -0.319 N 
ATOM      8  H   UNL d   1       4.907  -0.478  -0.353  0.00  0.00     0.169 HD
BRANCH   7   9
ATOM      9  C   UNL d   1       5.127  -0.867  -2.386  0.00  0.00     0.035 A 
ATOM     10  C   UNL d   1       4.762  -0.416  -3.663  0.00  0.00     0.032 A 
ATOM     11  C   UNL d   1       5.453  -0.845  -4.801  0.00  0.00     0.044 A 
ATOM     12  C   UNL d   1       6.504  -1.739  -4.665  0.00  0.00     0.116 A 
ATOM     13  F   UNL d   1       7.149  -2.175  -5.756  0.00  0.00    -0.206 F 
ATOM     14  C   UNL d   1       6.893  -2.189  -3.408  0.00  0.00     0.044 A 
ATOM     15  C   UNL d   1       6.220  -1.735  -2.263  0.00  0.00     0.032 A 
ENDBRANCH   7   9
ENDBRANCH   2   5
BRANCH   3  16
ATOM     16  N   UNL d   1       2.306   0.628   2.379  0.00  0.00    -0.296 N 
ATOM     17  H   UNL d   1       1.286   0.525   2.373  0.00  0.00     0.187 HD
BRANCH  16  18
ATOM     18  C   UNL d   1       2.956   1.094   3.533  0.00  0.00     0.070 A 
ATOM     19  C   UNL d   1       4.073   1.937   3.457  0.00  0.00     0.034 A 
ATOM     20  C   UNL d   1       4.727   2.380   4.614  0.00  0.00     0.026 A 
ATOM     21  C   UNL d   1       4.294   1.957   5.868  0.00  0.00     0.035 A 
ATOM     22 CL   UNL d   1       5.107   2.510   7.281  0.00  0.00    -0.084 Cl
ATOM     23  C   UNL d   1       3.208   1.097   5.980  0.00  0.00     0.050 A 
ATOM     24  C   UNL d   1       2.544   0.676   4.820  0.00  0.00     0.063 A 
ATOM     25 CL   UNL d   1       1.207  -0.408   5.016  0.00  0.00    -0.082 Cl
ENDBRANCH  16  18
ENDBRANCH   3  16
TORSDOF 4
