REMARK  6 active torsions:
REMARK  status: ('A' for Active; 'I' for Inactive)
REMARK    1  A    between atoms: O_2  and  C_3 
REMARK    2  A    between atoms: C_6  and  C_7 
REMARK       I    between atoms: C_7  and  N_9 
REMARK    3  A    between atoms: N_9  and  C_10 
REMARK    4  A    between atoms: C_10  and  N_12 
REMARK    5  A    between atoms: N_12  and  C_13 
REMARK    6  A    between atoms: C_16  and  N_17 
ROOT
ATOM      1  N   UNL d   1       4.538  -5.736   6.556  0.00  0.00    -0.333 N 
ATOM      2  H   UNL d   1       4.031  -6.278   5.864  0.00  0.00     0.168 HD
ENDROOT
BRANCH   1   3
ATOM      3  C   UNL d   1       5.111  -4.485   6.167  0.00  0.00     0.179 C 
ATOM      4  S   UNL d   1       6.482  -3.835   6.924  0.00  0.00    -0.040 SA
BRANCH   3   5
ATOM      5  N   UNL d   1       4.467  -3.842   5.082  0.00  0.00    -0.299 N 
ATOM      6  C   UNL d   1       4.815  -2.564   4.571  0.00  0.00     0.257 C 
ATOM      7  O   UNL d   1       5.670  -1.825   5.073  0.00  0.00    -0.267 OA
ATOM      8  H   UNL d   1       3.725  -4.347   4.620  0.00  0.00     0.171 HD
BRANCH   6   9
ATOM      9  C   UNL d   1       4.149  -1.967   3.378  0.00  0.00     0.033 A 
ATOM     10  C   UNL d   1       4.568  -0.692   2.931  0.00  0.00     0.020 A 
ATOM     11  C   UNL d   1       3.970  -0.074   1.822  0.00  0.00     0.039 A 
ATOM     12  C   UNL d   1       2.925  -0.714   1.144  0.00  0.00     0.085 A 
ATOM     13  C   UNL d   1       2.561  -2.009   1.547  0.00  0.00     0.045 A 
ATOM     14  C   UNL d   1       3.150  -2.613   2.670  0.00  0.00     0.039 A 
ATOM     15 BR   UNL d   1       1.378  -3.161   0.602  0.00  0.00    -0.048 Br
BRANCH  12  16
ATOM     16  O   UNL d   1       2.408  -0.035   0.072  0.00  0.00    -0.355 OA
ATOM     17  C   UNL d   1       0.985   0.096   0.078  0.00  0.00     0.210 C 
ENDBRANCH  12  16
ENDBRANCH   6   9
ENDBRANCH   3   5
ENDBRANCH   1   3
BRANCH   1  18
ATOM     18  C   UNL d   1       5.049  -6.473   7.693  0.00  0.00     0.036 A 
ATOM     19  C   UNL d   1       5.191  -5.827   8.925  0.00  0.00     0.032 A 
ATOM     20  C   UNL d   1       5.897  -6.396   9.997  0.00  0.00     0.033 A 
ATOM     21  C   UNL d   1       6.457  -7.675   9.920  0.00  0.00     0.052 A 
ATOM     22  C   UNL d   1       6.232  -8.360   8.697  0.00  0.00     0.062 A 
ATOM     23 CL   UNL d   1       6.802  -9.982   8.463  0.00  0.00    -0.082 Cl
ATOM     24  C   UNL d   1       5.510  -7.787   7.609  0.00  0.00     0.055 A 
BRANCH  21  25
ATOM     25  N   UNL d   1       7.151  -8.169  11.018  0.00  0.00    -0.376 N 
ATOM     26  C   UNL d   1       8.534  -8.658  10.955  0.00  0.00     0.150 C 
ATOM     27  C   UNL d   1       8.597 -10.140  11.388  0.00  0.00     0.254 C 
ATOM     28  N   UNL d   1       7.940 -10.342  12.760  0.00  0.00    -0.072 N 
ATOM     29  C   UNL d   1       7.948 -11.792  13.153  0.00  0.00     0.269 C 
ATOM     30  C   UNL d   1       6.519  -9.761  12.785  0.00  0.00     0.254 C 
ATOM     31  H   UNL d   1       8.500  -9.823  13.447  0.00  0.00     0.279 HD
ATOM     32  C   UNL d   1       6.507  -8.279  12.333  0.00  0.00     0.150 C 
ENDBRANCH  21  25
ENDBRANCH   1  18
TORSDOF 6
