@<TRIPOS>MOLECULE
*****
 42 43 0 0 0
SMALL
GASTEIGER

@<TRIPOS>ATOM
      1 C           3.1495    1.1296    0.8450 C.3     1  UNL1       -0.0448
      2 C           2.6484   -0.0899    0.0664 C.3     1  UNL1        0.0805
      3 S           0.8324    0.1728    0.0434 S.3     1  UNL1       -0.1436
      4 C           0.2196   -1.0864   -1.1324 C.3     1  UNL1        0.0195
      5 C          -1.3036   -1.1944   -1.1518 C.ar    1  UNL1       -0.0375
      6 C          -2.1081   -0.7553   -0.0843 C.ar    1  UNL1       -0.0578
      7 C          -3.4670   -1.0585   -0.0206 C.ar    1  UNL1       -0.0615
      8 C          -4.0711   -1.7497   -1.0616 C.ar    1  UNL1       -0.0617
      9 C          -3.3107   -2.1463   -2.1602 C.ar    1  UNL1       -0.0615
     10 C          -1.9364   -1.8779   -2.2040 C.ar    1  UNL1       -0.0578
     11 C           3.0836   -1.3996    0.7520 C.2     1  UNL1        0.2449
     12 O           2.2692   -2.2495    1.1348 O.2     1  UNL1       -0.2729
     13 N           4.4703   -1.5693    0.8804 N.am    1  UNL1       -0.2061
     14 N           4.9297   -2.7198    1.4731 N.2     1  UNL1       -0.1874
     15 C           6.2050   -2.9154    1.5707 C.2     1  UNL1        0.0598
     16 C           6.7742   -4.1674    2.1463 C.ar    1  UNL1        0.0775
     17 C           7.9481   -4.1306    2.9155 C.ar    1  UNL1        0.1324
     18 O           8.5162   -2.9681    3.3665 O.3     1  UNL1       -0.5059
     19 C           8.5993   -5.3121    3.2931 C.ar    1  UNL1        0.0222
     20 C           8.0300   -6.5388    2.9678 C.ar    1  UNL1        0.1238
     21 O           8.6004   -7.7196    3.3456 O.3     1  UNL1       -0.5065
     22 C           6.8456   -6.6012    2.2418 C.ar    1  UNL1        0.0222
     23 C           6.2263   -5.4185    1.8252 C.ar    1  UNL1        0.1324
     24 O           5.1097   -5.4990    1.0422 O.3     1  UNL1       -0.5059
     25 H           4.2405    1.1755    0.8677 H       1  UNL1        0.0245
     26 H           2.8045    1.1071    1.8878 H       1  UNL1        0.0245
     27 H           2.7980    2.0684    0.3962 H       1  UNL1        0.0245
     28 H           3.0196   -0.0671   -0.9627 H       1  UNL1        0.0505
     29 H           0.6133   -2.0767   -0.8812 H       1  UNL1        0.0425
     30 H           0.5744   -0.8117   -2.1323 H       1  UNL1        0.0425
     31 H          -1.6901   -0.1856    0.7416 H       1  UNL1        0.0621
     32 H          -4.0353   -0.7734    0.8605 H       1  UNL1        0.0618
     33 H          -5.1305   -1.9826   -1.0093 H       1  UNL1        0.0618
     34 H          -3.7849   -2.6961   -2.9690 H       1  UNL1        0.0618
     35 H          -1.3611   -2.2326   -3.0564 H       1  UNL1        0.0621
     36 H           5.1356   -0.9088    0.4930 H       1  UNL1        0.1773
     37 H           6.9426   -2.1663    1.2301 H       1  UNL1        0.0854
     38 H           7.8334   -2.2761    3.4121 H       1  UNL1        0.2922
     39 H           9.5422   -5.2582    3.8299 H       1  UNL1        0.0691
     40 H           9.3414   -7.5412    3.9492 H       1  UNL1        0.2921
     41 H           6.4390   -7.5735    1.9797 H       1  UNL1        0.0691
     42 H           4.7517   -6.4005    1.0566 H       1  UNL1        0.2922
@<TRIPOS>BOND
     1     3     4    1
     2     4     5    1
     3     5     6   ar
     4     6     7   ar
     5     7     8   ar
     6     8     9   ar
     7     9    10   ar
     8     5    10   ar
     9     2    11    1
    10    11    12    2
    11    11    13   am
    12    13    14    1
    13    14    15    2
    14    15    16    1
    15    16    17   ar
    16    17    18    1
    17    17    19   ar
    18    19    20   ar
    19    20    21    1
    20    20    22   ar
    21    22    23   ar
    22    16    23   ar
    23    23    24    1
    24     2     3    1
    25     2     1    1
    26     1    25    1
    27     1    26    1
    28     1    27    1
    29     2    28    1
    30     4    29    1
    31     4    30    1
    32     6    31    1
    33     7    32    1
    34     8    33    1
    35     9    34    1
    36    10    35    1
    37    13    36    1
    38    15    37    1
    39    18    38    1
    40    19    39    1
    41    21    40    1
    42    22    41    1
    43    24    42    1
