@<TRIPOS>MOLECULE
*****
 35 36 0 0 0
SMALL
GASTEIGER

@<TRIPOS>ATOM
      1 C           1.0999   -0.0010   -0.0305 C.3     1  UNL1        0.0125
      2 C           2.6017    0.0923   -0.0892 C.2     1  UNL1        0.2141
      3 O           3.1402    0.8532   -0.8916 O.2     1  UNL1       -0.2758
      4 N           3.2801   -0.7483    0.7843 N.am    1  UNL1       -0.2855
      5 C           4.6982   -0.7863    0.8294 C.ar    1  UNL1        0.0370
      6 C           5.4103    0.4251    0.7788 C.ar    1  UNL1       -0.0281
      7 C           6.8048    0.4546    0.7955 C.ar    1  UNL1        0.0388
      8 C           7.5878    1.7280    0.7081 C.2     1  UNL1        0.2494
      9 O           8.8205    1.6390    0.6944 O.2     1  UNL1       -0.2698
     10 N           6.9054    2.9374    0.6934 N.am    1  UNL1       -0.2664
     11 C           7.5656    4.1749    0.6246 C.ar    1  UNL1        0.1252
     12 C           8.6535    4.3388   -0.2269 C.ar    1  UNL1       -0.0201
     13 C           9.3307    5.5551   -0.2551 C.ar    1  UNL1       -0.0387
     14 C           8.9140    6.5731    0.5856 C.ar    1  UNL1        0.0592
     15 CL          9.7604    8.0653    0.6275 Cl      1  UNL1       -0.0820
     16 C           7.7971    6.3467    1.3782 C.ar    1  UNL1        0.0480
     17 N           7.0839    5.1831    1.3856 N.ar    1  UNL1       -0.2387
     18 C           7.4945   -0.7655    0.8671 C.ar    1  UNL1       -0.0493
     19 C           6.7989   -1.9798    0.9256 C.ar    1  UNL1       -0.0564
     20 C           5.3932   -2.0059    0.9192 C.ar    1  UNL1       -0.0292
     21 C           4.6898   -3.3349    0.9016 C.3     1  UNL1       -0.0380
     22 H           0.6841    0.6930   -0.7709 H       1  UNL1        0.0323
     23 H           0.7339    0.2959    0.9547 H       1  UNL1        0.0323
     24 H           0.7589   -1.0079   -0.2819 H       1  UNL1        0.0323
     25 H           2.7721   -1.5143    1.2083 H       1  UNL1        0.1548
     26 H           4.8452    1.3474    0.7337 H       1  UNL1        0.0644
     27 H           5.9456    3.0013    0.9984 H       1  UNL1        0.1566
     28 H           8.9609    3.5347   -0.8865 H       1  UNL1        0.0652
     29 H          10.1763    5.6829   -0.9230 H       1  UNL1        0.0634
     30 H           7.4393    7.1169    2.0574 H       1  UNL1        0.0845
     31 H           8.5847   -0.7825    0.8672 H       1  UNL1        0.0625
     32 H           7.3707   -2.9075    0.9515 H       1  UNL1        0.0621
     33 H           5.3980   -4.1716    0.9187 H       1  UNL1        0.0278
     34 H           4.0940   -3.4346   -0.0122 H       1  UNL1        0.0278
     35 H           4.0401   -3.4328    1.7757 H       1  UNL1        0.0278
@<TRIPOS>BOND
     1     1     2    1
     2     2     3    2
     3     2     4   am
     4     4     5    1
     5     5     6   ar
     6     6     7   ar
     7     7     8    1
     8     8     9    2
     9     8    10   am
    10    10    11    1
    11    11    12   ar
    12    12    13   ar
    13    13    14   ar
    14    14    15    1
    15    14    16   ar
    16    16    17   ar
    17    11    17   ar
    18     7    18   ar
    19    18    19   ar
    20    19    20   ar
    21     5    20   ar
    22    20    21    1
    23     1    22    1
    24     1    23    1
    25     1    24    1
    26     4    25    1
    27     6    26    1
    28    10    27    1
    29    12    28    1
    30    13    29    1
    31    16    30    1
    32    18    31    1
    33    19    32    1
    34    21    33    1
    35    21    34    1
    36    21    35    1
