REMARK  3 active torsions:
REMARK  status: ('A' for Active; 'I' for Inactive)
REMARK    1  A    between atoms: C_5  and  C_6 
REMARK       I    between atoms: C_6  and  N_7 
REMARK    2  A    between atoms: C_10  and  N_11 
REMARK       I    between atoms: N_11  and  C_12 
REMARK    3  A    between atoms: C_12  and  C_14 
ROOT
ATOM      1  C   UNL d   1       3.226   1.861  -1.267  0.00  0.00     0.032 C 
ATOM      2  C   UNL d   1       4.622   1.705  -1.108  0.00  0.00     0.018 C 
ATOM      3  C   UNL d   1       5.330   0.767  -1.888  0.00  0.00     0.024 C 
ATOM      4  C   UNL d   1       4.654  -0.062  -2.793  0.00  0.00     0.044 C 
ATOM      5  C   UNL d   1       5.367  -1.012  -3.609  0.00  0.00     0.099 C 
ATOM      6  N   UNL d   1       5.922  -1.739  -4.311  0.00  0.00    -0.191 NA
ATOM      7  C   UNL d   1       3.269   0.049  -2.919  0.00  0.00     0.024 C 
ATOM      8  C   UNL d   1       2.574   1.059  -2.232  0.00  0.00     0.018 C 
ENDROOT
BRANCH   1   9
ATOM      9  C   UNL d   1       2.439   2.581  -0.182  0.00  0.00     0.256 C 
ATOM     10  N   UNL d   1       1.062   2.394  -0.081  0.00  0.00    -0.322 N 
ATOM     11  H   UNL d   1       0.552   3.239   0.163  0.00  0.00     0.169 HD
ATOM     12  O   UNL d   1       3.021   3.337   0.595  0.00  0.00    -0.267 OA
BRANCH  10  13
ATOM     13  C   UNL d   1       0.349   1.160   0.043  0.00  0.00     0.042 C 
ATOM     14  C   UNL d   1      -1.069   1.194   0.006  0.00  0.00     0.047 C 
ATOM     15  C   UNL d   1      -1.826  -0.004  -0.008  0.00  0.00     0.034 C 
ATOM     16  C   UNL d   1      -1.155  -1.225  -0.006  0.00  0.00     0.017 C 
ATOM     17  C   UNL d   1       0.226  -1.263   0.071  0.00  0.00     0.010 C 
ATOM     18  C   UNL d   1       0.984  -0.096   0.181  0.00  0.00    -0.035 C 
ATOM     19  C   UNL d   1       2.441  -0.335   0.443  0.00  0.00     0.050 C 
BRANCH  15  20
ATOM     20  C   UNL d   1      -3.324   0.029  -0.045  0.00  0.00     0.249 C 
ATOM     21  N   UNL d   1      -4.004  -1.166  -0.062  0.00  0.00    -0.366 N 
ATOM     22  H   UNL d   1      -3.588  -2.084  -0.048  0.00  0.00     0.159 HD
ATOM     23  H   UNL d   1      -5.015  -1.135  -0.080  0.00  0.00     0.159 HD
ATOM     24  O   UNL d   1      -3.940   1.087  -0.059  0.00  0.00    -0.268 OA
ENDBRANCH  15  20
ENDBRANCH  10  13
ENDBRANCH   1   9
TORSDOF 3
