@<TRIPOS>MOLECULE
*****
 54 57 0 0 0
SMALL
GASTEIGER

@<TRIPOS>ATOM
      1 C           1.1552   -0.0711    0.0169 C.3     1  UNL1       -0.0377
      2 C           2.6760   -0.1477    0.0055 C.ar    1  UNL1       -0.0168
      3 C           3.4372   -1.3539    0.0091 C.ar    1  UNL1        0.0807
      4 C           3.1328   -2.8172    0.0283 C.2     1  UNL1        0.2643
      5 O           1.9993   -3.2963    0.0182 O.2     1  UNL1       -0.2683
      6 N           4.2705   -3.6810    0.0688 N.am    1  UNL1       -0.2491
      7 N           4.1736   -5.0933   -0.0299 N.3     1  UNL1       -0.2541
      8 S           5.1096   -1.0031   -0.0329 S.2     1  UNL1       -0.0653
      9 C           4.8928    0.6432   -0.0612 C.ar    1  UNL1        0.0979
     10 C           3.5870    1.0612   -0.0228 C.ar    1  UNL1        0.0742
     11 C           3.3832    2.5464   -0.0318 C.ar    1  UNL1        0.2654
     12 O           2.2660    3.0546    0.0105 O.2     1  UNL1       -0.2668
     13 N           4.5831    3.3109   -0.0341 N.ar    1  UNL1       -0.2559
     14 C           4.5408    4.8078   -0.0292 C.3     1  UNL1        0.0574
     15 C           5.8928    5.5570   -0.1122 C.ar    1  UNL1       -0.0092
     16 C           6.3339    6.3361    0.9873 C.ar    1  UNL1       -0.0555
     17 C           7.6429    6.8440    1.0511 C.ar    1  UNL1       -0.0614
     18 C           8.5456    6.5771    0.0280 C.ar    1  UNL1       -0.0604
     19 C           8.1276    5.8371   -1.0765 C.ar    1  UNL1       -0.0431
     20 C           6.8081    5.3569   -1.1646 C.ar    1  UNL1        0.0458
     21 CL          6.4014    4.3968   -2.5489 Cl      1  UNL1       -0.0832
     22 C           5.7778    2.7334    0.3761 C.ar    1  UNL1        0.3335
     23 O           6.5736    3.3195    1.1201 O.2     1  UNL1       -0.2462
     24 N           6.0314    1.4360   -0.0344 N.ar    1  UNL1       -0.2784
     25 C           7.4215    0.8855    0.0407 C.3     1  UNL1        0.1051
     26 C           8.6032    1.8696   -0.0855 C.2     1  UNL1        0.2372
     27 O           8.4471    3.0129   -0.5041 O.2     1  UNL1       -0.2735
     28 N           9.8920    1.3998    0.1576 N.am    1  UNL1       -0.2840
     29 C          10.9321    2.3763    0.1103 C.ar    1  UNL1        0.0334
     30 C          11.9997    2.2536   -0.7781 C.ar    1  UNL1       -0.0405
     31 C          12.9607    3.2736   -0.8518 C.ar    1  UNL1       -0.0600
     32 C          12.8705    4.4018   -0.0317 C.ar    1  UNL1       -0.0616
     33 C          11.7997    4.5343    0.8442 C.ar    1  UNL1       -0.0600
     34 C          10.8335    3.5304    0.9066 C.ar    1  UNL1       -0.0405
     35 H           0.6840   -1.0618    0.0170 H       1  UNL1        0.0278
     36 H           0.7736    0.4574   -0.8658 H       1  UNL1        0.0278
     37 H           0.7783    0.4571    0.9017 H       1  UNL1        0.0278
     38 H           5.2026   -3.2731   -0.0075 H       1  UNL1        0.1690
     39 H           3.1779   -5.3398   -0.0081 H       1  UNL1        0.1405
     40 H           4.5755   -5.5189    0.8114 H       1  UNL1        0.1405
     41 H           4.0111    5.1227    0.8791 H       1  UNL1        0.0544
     42 H           3.9243    5.1439   -0.8733 H       1  UNL1        0.0544
     43 H           5.6931    6.4860    1.8540 H       1  UNL1        0.0621
     44 H           7.9779    7.3960    1.9275 H       1  UNL1        0.0618
     45 H           9.5810    6.9010    0.1048 H       1  UNL1        0.0618
     46 H           8.8654    5.5452   -1.8223 H       1  UNL1        0.0632
     47 H           7.5220    0.2282   -0.8350 H       1  UNL1        0.0589
     48 H           7.5155    0.2846    0.9508 H       1  UNL1        0.0589
     49 H          10.1103    0.4672   -0.1718 H       1  UNL1        0.1549
     50 H          12.0570    1.4268   -1.4789 H       1  UNL1        0.0636
     51 H          13.7785    3.2011   -1.5645 H       1  UNL1        0.0618
     52 H          13.6246    5.1833   -0.0851 H       1  UNL1        0.0618
     53 H          11.6994    5.4193    1.4674 H       1  UNL1        0.0618
     54 H           9.9763    3.6727    1.5624 H       1  UNL1        0.0636
@<TRIPOS>BOND
     1     1     2    1
     2     2     3   ar
     3     3     4    1
     4     4     5    2
     5     4     6   am
     6     6     7    1
     7     3     8   ar
     8     8     9   ar
     9     9    10   ar
    10     2    10   ar
    11    10    11   ar
    12    11    12    2
    13    11    13   ar
    14    13    14    1
    15    14    15    1
    16    15    16   ar
    17    16    17   ar
    18    17    18   ar
    19    18    19   ar
    20    19    20   ar
    21    15    20   ar
    22    20    21    1
    23    13    22   ar
    24    22    23    2
    25    22    24   ar
    26     9    24   ar
    27    24    25    1
    28    25    26    1
    29    26    27    2
    30    26    28   am
    31    28    29    1
    32    29    30   ar
    33    30    31   ar
    34    31    32   ar
    35    32    33   ar
    36    33    34   ar
    37    29    34   ar
    38     1    35    1
    39     1    36    1
    40     1    37    1
    41     6    38    1
    42     7    39    1
    43     7    40    1
    44    14    41    1
    45    14    42    1
    46    16    43    1
    47    17    44    1
    48    18    45    1
    49    19    46    1
    50    25    47    1
    51    25    48    1
    52    28    49    1
    53    30    50    1
    54    31    51    1
    55    32    52    1
    56    33    53    1
    57    34    54    1
