REMARK  11 active torsions:
REMARK  status: ('A' for Active; 'I' for Inactive)
REMARK    1  A    between atoms: C_2  and  C_3 
REMARK    2  A    between atoms: C_3  and  C_4 
REMARK    3  A    between atoms: C_4  and  O_5 
REMARK    4  A    between atoms: O_5  and  C_6 
REMARK    5  A    between atoms: C_11  and  C_12 
REMARK       I    between atoms: C_12  and  N_14 
REMARK    6  A    between atoms: N_14  and  C_15 
REMARK    7  A    between atoms: C_15  and  N_17 
REMARK    8  A    between atoms: N_17  and  N_18 
REMARK       I    between atoms: N_18  and  C_19 
REMARK    9  A    between atoms: C_19  and  C_21 
REMARK   10  A    between atoms: C_24  and  N_25 
REMARK       I    between atoms: N_25  and  C_26 
REMARK   11  A    between atoms: C_26  and  C_28 
ROOT
ATOM      1  N   UNL d   1       3.311   0.591  -2.686  0.00  0.00    -0.273 N 
ATOM      2  H   UNL d   1       2.678   0.978  -1.990  0.00  0.00     0.189 HD
ENDROOT
BRANCH   1   3
ATOM      3  C   UNL d   1       4.715   0.756  -2.712  0.00  0.00     0.193 C 
ATOM      4  S   UNL d   1       5.628  -0.128  -3.821  0.00  0.00    -0.039 SA
BRANCH   3   5
ATOM      5  N   UNL d   1       5.258   1.677  -1.774  0.00  0.00    -0.298 N 
ATOM      6  C   UNL d   1       6.629   1.788  -1.400  0.00  0.00     0.260 C 
ATOM      7  O   UNL d   1       7.549   1.413  -2.126  0.00  0.00    -0.267 OA
ATOM      8  H   UNL d   1       4.613   2.179  -1.180  0.00  0.00     0.171 HD
BRANCH   6   9
ATOM      9  C   UNL d   1       7.072   2.408  -0.089  0.00  0.00     0.065 A 
ATOM     10  C   UNL d   1       8.449   2.757   0.005  0.00  0.00     0.020 A 
ATOM     11  C   UNL d   1       8.999   3.395   1.126  0.00  0.00     0.001 A 
ATOM     12  C   UNL d   1       8.178   3.706   2.197  0.00  0.00     0.003 A 
ATOM     13  C   UNL d   1       6.842   3.292   2.171  0.00  0.00     0.038 A 
ATOM     14  C   UNL d   1       6.288   2.633   1.045  0.00  0.00     0.084 A 
BRANCH  14  15
ATOM     15  O   UNL d   1       4.949   2.390   1.122  0.00  0.00    -0.350 OA
BRANCH  15  16
ATOM     16  C   UNL d   1       4.532   1.034   0.944  0.00  0.00     0.175 C 
BRANCH  16  17
ATOM     17  C   UNL d   1       3.029   1.126   0.704  0.00  0.00     0.026 C 
BRANCH  17  18
ATOM     18  C   UNL d   1       2.455  -0.205   0.253  0.00  0.00    -0.002 C 
ATOM     19  C   UNL d   1       0.955  -0.089   0.078  0.00  0.00     0.005 C 
ENDBRANCH  17  18
ENDBRANCH  16  17
ENDBRANCH  15  16
ENDBRANCH  14  15
ENDBRANCH   6   9
ENDBRANCH   3   5
ENDBRANCH   1   3
BRANCH   1  20
ATOM     20  N   UNL d   1       2.709  -0.459  -3.502  0.00  0.00    -0.264 N 
ATOM     21  C   UNL d   1       1.349  -0.741  -3.510  0.00  0.00     0.270 C 
ATOM     22  O   UNL d   1       0.532  -0.330  -2.680  0.00  0.00    -0.266 OA
ATOM     23  H   UNL d   1       3.310  -0.779  -4.263  0.00  0.00     0.190 HD
BRANCH  21  24
ATOM     24  C   UNL d   1       0.837  -1.582  -4.628  0.00  0.00     0.033 A 
ATOM     25  C   UNL d   1      -0.394  -1.318  -5.260  0.00  0.00     0.019 A 
ATOM     26  C   UNL d   1      -0.858  -2.130  -6.326  0.00  0.00     0.030 A 
ATOM     27  C   UNL d   1      -0.068  -3.187  -6.798  0.00  0.00     0.034 A 
ATOM     28  C   UNL d   1       1.108  -3.467  -6.090  0.00  0.00     0.030 A 
ATOM     29  C   UNL d   1       1.563  -2.689  -5.027  0.00  0.00     0.019 A 
BRANCH  27  30
ATOM     30  N   UNL d   1      -0.429  -3.923  -7.973  0.00  0.00    -0.327 N 
ATOM     31  C   UNL d   1       0.381  -4.904  -8.543  0.00  0.00     0.221 C 
ATOM     32  O   UNL d   1       1.460  -5.276  -8.084  0.00  0.00    -0.273 OA
ATOM     33  H   UNL d   1      -1.272  -3.642  -8.462  0.00  0.00     0.169 HD
BRANCH  31  34
ATOM     34  C   UNL d   1      -0.102  -5.549  -9.830  0.00  0.00     0.098 C 
ATOM     35  C   UNL d   1       0.919  -6.619 -10.246  0.00  0.00     0.014 C 
ENDBRANCH  31  34
ENDBRANCH  27  30
ENDBRANCH  21  24
ENDBRANCH   1  20
TORSDOF 11
