REMARK  5 active torsions:
REMARK  status: ('A' for Active; 'I' for Inactive)
REMARK    1  A    between atoms: C_2  and  C_4 
REMARK    2  A    between atoms: C_4  and  C_5 
REMARK    3  A    between atoms: C_5  and  C_6 
REMARK       I    between atoms: C_6  and  N_8 
REMARK    4  A    between atoms: N_8  and  N_9 
REMARK       I    between atoms: N_9  and  C_10 
REMARK    5  A    between atoms: C_10  and  C_12 
ROOT
ATOM      1  N   UNL d   1       7.023  -2.446  -3.643  0.00  0.00    -0.263 N 
ATOM      2  C   UNL d   1       8.389  -2.620  -3.782  0.00  0.00     0.270 C 
ATOM      3  O   UNL d   1       9.214  -2.130  -3.010  0.00  0.00    -0.266 OA
ATOM      4  H   UNL d   1       6.332  -2.956  -4.193  0.00  0.00     0.190 HD
ENDROOT
BRANCH   2   5
ATOM      5  C   UNL d   1       8.840  -3.502  -4.902  0.00  0.00     0.035 A 
ATOM      6  C   UNL d   1       9.830  -4.458  -4.635  0.00  0.00     0.018 A 
ATOM      7  C   UNL d   1      10.255  -5.340  -5.633  0.00  0.00     0.022 A 
ATOM      8  C   UNL d   1       9.717  -5.257  -6.917  0.00  0.00     0.027 A 
ATOM      9  C   UNL d   1       8.746  -4.281  -7.205  0.00  0.00     0.052 A 
ATOM     10  S   UNL d   1      10.254  -6.435  -8.144  0.00  0.00    -0.118 SA
ATOM     11  C   UNL d   1       8.312  -3.399  -6.200  0.00  0.00     0.048 A 
ATOM     12  N   UNL d   1       8.162  -4.195  -8.486  0.00  0.00    -0.325 N 
ATOM     13  C   UNL d   1       8.659  -4.782  -9.628  0.00  0.00     0.231 C 
ATOM     14  H   UNL d   1       7.282  -3.710  -8.607  0.00  0.00     0.169 HD
ATOM     15  O   UNL d   1       8.020  -4.732 -10.679  0.00  0.00    -0.272 OA
ATOM     16  C   UNL d   1      10.065  -5.341  -9.566  0.00  0.00     0.182 C 
ENDBRANCH   2   5
BRANCH   1  17
ATOM     17  N   UNL d   1       6.510  -1.730  -2.531  0.00  0.00    -0.267 N 
ATOM     18  C   UNL d   1       5.134  -1.640  -2.391  0.00  0.00     0.236 C 
ATOM     19  O   UNL d   1       4.368  -2.197  -3.178  0.00  0.00    -0.272 OA
ATOM     20  H   UNL d   1       7.187  -1.311  -1.895  0.00  0.00     0.190 HD
BRANCH  18  21
ATOM     21  C   UNL d   1       4.653  -0.817  -1.199  0.00  0.00     0.105 C 
BRANCH  21  22
ATOM     22  C   UNL d   1       3.116  -0.770  -1.112  0.00  0.00     0.013 C 
BRANCH  22  23
ATOM     23  C   UNL d   1       2.575   0.045   0.080  0.00  0.00    -0.022 C 
ATOM     24  C   UNL d   1       1.042   0.065   0.063  0.00  0.00     0.009 C 
ATOM     25  C   UNL d   1       3.053  -0.528   1.414  0.00  0.00     0.009 C 
ENDBRANCH  22  23
ENDBRANCH  21  22
ENDBRANCH  18  21
ENDBRANCH   1  17
TORSDOF 5
