@<TRIPOS>MOLECULE
*****
 26 27 0 0 0
SMALL
GASTEIGER

@<TRIPOS>ATOM
      1 O           1.0463    0.2364    0.0271 O.2     1  UNL1       -0.2682
      2 C           2.2705    0.0627   -0.0511 C.2     1  UNL1        0.2666
      3 N           2.9729   -0.9210    0.6420 N.am    1  UNL1       -0.2773
      4 C           2.2986   -1.9590    1.3455 C.ar    1  UNL1        0.0770
      5 C           2.7327   -2.3696    2.6134 C.ar    1  UNL1       -0.0185
      6 C           2.0407   -3.3884    3.2895 C.ar    1  UNL1        0.0430
      7 CL          2.5485   -3.8923    4.8590 Cl      1  UNL1       -0.0835
      8 C           0.9336   -4.0137    2.7137 C.ar    1  UNL1       -0.0398
      9 C           0.5073   -3.6239    1.4484 C.ar    1  UNL1       -0.0170
     10 C           1.1992   -2.6217    0.7689 C.ar    1  UNL1        0.1381
     11 O           0.8768   -2.3811   -0.5404 O.3     1  UNL1       -0.5049
     12 C           3.0364    1.0902   -0.8174 C.ar    1  UNL1        0.1256
     13 C           2.5602    2.3991   -0.7463 C.ar    1  UNL1       -0.0312
     14 C           3.1301    3.3740   -1.5538 C.ar    1  UNL1       -0.0582
     15 C           4.1468    3.0098   -2.4247 C.ar    1  UNL1       -0.0436
     16 C           4.5714    1.6843   -2.4250 C.ar    1  UNL1        0.0284
     17 N           4.0618    0.7096   -1.6234 N.ar    1  UNL1       -0.2504
     18 H           3.9685   -0.7951    0.7769 H       1  UNL1        0.1553
     19 H           3.5676   -1.8826    3.1086 H       1  UNL1        0.0652
     20 H           0.4140   -4.8171    3.2305 H       1  UNL1        0.0633
     21 H          -0.3320   -4.1311    0.9839 H       1  UNL1        0.0655
     22 H          -0.0320   -2.6725   -0.7043 H       1  UNL1        0.2922
     23 H           1.7362    2.6421   -0.0825 H       1  UNL1        0.0640
     24 H           2.7621    4.3954   -1.5164 H       1  UNL1        0.0619
     25 H           4.5910    3.7434   -3.0905 H       1  UNL1        0.0633
     26 H           5.3559    1.3698   -3.1107 H       1  UNL1        0.0830
@<TRIPOS>BOND
     1     1     2    2
     2     2     3   am
     3     3     4    1
     4     4     5   ar
     5     5     6   ar
     6     6     7    1
     7     6     8   ar
     8     8     9   ar
     9     9    10   ar
    10     4    10   ar
    11    10    11    1
    12     2    12    1
    13    12    13   ar
    14    13    14   ar
    15    14    15   ar
    16    15    16   ar
    17    16    17   ar
    18    12    17   ar
    19     3    18    1
    20     5    19    1
    21     8    20    1
    22     9    21    1
    23    11    22    1
    24    13    23    1
    25    14    24    1
    26    15    25    1
    27    16    26    1
