@<TRIPOS>MOLECULE
*****
 47 48 0 0 0
SMALL
GASTEIGER

@<TRIPOS>ATOM
      1 C           2.1496   -2.4033    1.8323 C.3     1  UNL1       -0.0635
      2 C           2.5389   -1.0501    2.4013 C.3     1  UNL1       -0.0352
      3 CA          3.1586    0.0131    1.4517 C.3     1  UNL1        0.0474
      4 C           2.6577   -0.0206   -0.0171 C.3     1  UNL1        0.0626
      5 O           2.8478   -1.2686   -0.6744 O.3     1  UNL1       -0.3932
      6 N           4.6360    0.0250    1.5438 N.am    1  UNL1       -0.2944
      7 C           5.2819    0.3149    2.7265 C.2     1  UNL1        0.3002
      8 O           4.6942    0.5547    3.7715 O.2     1  UNL1       -0.2528
      9 N           6.6528    0.2653    2.6487 N.am    1  UNL1       -0.2953
     10 C           7.4423    0.4353    3.8569 C.3     1  UNL1        0.0383
     11 C           8.9397    0.4104    3.6426 C.ar    1  UNL1       -0.0302
     12 C           9.6475   -0.7942    3.5594 C.ar    1  UNL1       -0.0553
     13 C          11.0523   -0.8004    3.4588 C.ar    1  UNL1       -0.0403
     14 C          11.7944    0.3848    3.3766 C.ar    1  UNL1        0.0302
     15 N          13.1518    0.3762    3.1357 N.pl3   1  UNL1       -0.3196
     16 C          13.7117   -0.3214    1.9788 C.3     1  UNL1        0.0283
     17 C          14.5282    0.7050    1.1795 C.3     1  UNL1        0.0274
     18 N          15.5585    1.3138    2.0001 N.am    1  UNL1       -0.3125
     19 C          15.3718    1.5847    3.3359 C.2     1  UNL1        0.2304
     20 O          16.2306    2.2254    3.9425 O.2     1  UNL1       -0.2741
     21 C          14.1302    0.9930    4.0498 C.3     1  UNL1        0.0885
     22 C          11.0793    1.5838    3.4798 C.ar    1  UNL1       -0.0403
     23 C           9.6768    1.6005    3.5994 C.ar    1  UNL1       -0.0553
     24 H           1.9184   -3.1051    2.6393 H       1  UNL1        0.0230
     25 H           2.9609   -2.8431    1.2452 H       1  UNL1        0.0230
     26 H           1.2390   -2.3207    1.2306 H       1  UNL1        0.0230
     27 H           3.2224   -1.2569    3.2300 H       1  UNL1        0.0281
     28 H           1.6390   -0.6166    2.8546 H       1  UNL1        0.0281
     29 HA          2.8548    0.9955    1.8443 H       1  UNL1        0.0521
     30 H1          1.5940    0.2431   -0.0706 H       1  UNL1        0.0575
     31 H2          3.2037    0.7128   -0.6191 H       1  UNL1        0.0575
     32 H           2.0768   -1.8270   -0.4726 H       1  UNL1        0.2095
     33 H           5.1667   -0.0530    0.6895 H       1  UNL1        0.1506
     34 H           7.1198    0.1462    1.7657 H       1  UNL1        0.1506
     35 H           7.1606   -0.3548    4.5659 H       1  UNL1        0.0512
     36 H           7.1486    1.3799    4.3331 H       1  UNL1        0.0512
     37 H           9.1166   -1.7435    3.5924 H       1  UNL1        0.0621
     38 H          11.5737   -1.7550    3.4800 H       1  UNL1        0.0636
     39 H          12.9456   -0.7681    1.3367 H       1  UNL1        0.0479
     40 H          14.3738   -1.1241    2.3274 H       1  UNL1        0.0479
     41 H          13.8830    1.5144    0.8169 H       1  UNL1        0.0477
     42 H          15.0178    0.2396    0.3191 H       1  UNL1        0.0477
     43 H          16.3672    1.7507    1.5751 H       1  UNL1        0.1488
     44 H          13.6813    1.7871    4.6536 H       1  UNL1        0.0559
     45 H          14.5093    0.2097    4.7172 H       1  UNL1        0.0559
     46 H          11.6067    2.5335    3.4307 H       1  UNL1        0.0636
     47 H           9.1659    2.5593    3.6641 H       1  UNL1        0.0621
@<TRIPOS>BOND
     1     1     2    1
     2     4     5    1
     3     3     6    1
     4     6     7   am
     5     7     8    2
     6     7     9   am
     7     9    10    1
     8    10    11    1
     9    11    12   ar
    10    12    13   ar
    11    13    14   ar
    12    14    15    1
    13    15    16    1
    14    16    17    1
    15    17    18    1
    16    18    19   am
    17    19    20    2
    18    19    21    1
    19    15    21    1
    20    14    22   ar
    21    22    23   ar
    22    11    23   ar
    23     3     4    1
    24     3     2    1
    25     1    24    1
    26     1    25    1
    27     1    26    1
    28     2    27    1
    29     2    28    1
    30     3    29    1
    31     4    30    1
    32     4    31    1
    33     5    32    1
    34     6    33    1
    35     9    34    1
    36    10    35    1
    37    10    36    1
    38    12    37    1
    39    13    38    1
    40    16    39    1
    41    16    40    1
    42    17    41    1
    43    17    42    1
    44    18    43    1
    45    21    44    1
    46    21    45    1
    47    22    46    1
    48    23    47    1
