REMARK  5 active torsions:
REMARK  status: ('A' for Active; 'I' for Inactive)
REMARK    1  A    between atoms: C_2  and  O_3 
REMARK    2  A    between atoms: O_3  and  C_4 
REMARK       I    between atoms: C_4  and  N_6 
REMARK    3  A    between atoms: C_17  and  C_18 
REMARK    4  A    between atoms: C_21  and  O_22 
REMARK    5  A    between atoms: C_25  and  O_26 
ROOT
ATOM      1  C   UNL d   1       4.386   0.001  -1.620  0.00  0.00     0.363 C 
ATOM      2  O   UNL d   1       5.151  -0.169  -0.692  0.00  0.00    -0.238 OA
ATOM      3  N   UNL d   1       4.783  -0.049  -2.962  0.00  0.00    -0.323 N 
ATOM      4  C   UNL d   1       4.245   0.852  -3.986  0.00  0.00     0.133 C 
ATOM      5  C   UNL d   1       5.274   1.949  -4.371  0.00  0.00     0.061 C 
ATOM      6  C   UNL d   1       6.680   1.422  -4.479  0.00  0.00    -0.023 A 
ATOM      7  C   UNL d   1       6.990   0.150  -4.036  0.00  0.00     0.010 A 
ATOM      8  S   UNL d   1       8.629  -0.241  -4.382  0.00  0.00    -0.074 SA
ATOM      9  C   UNL d   1       8.952   1.315  -5.074  0.00  0.00     0.088 A 
ATOM     10  C   UNL d   1       7.831   2.122  -5.013  0.00  0.00     0.073 A 
ATOM     11  C   UNL d   1       7.848   3.399  -5.720  0.00  0.00     0.256 C 
ATOM     12  O   UNL d   1       6.857   4.131  -5.808  0.00  0.00    -0.267 OA
ATOM     13  N   UNL d   1       8.975   3.690  -6.444  0.00  0.00    -0.331 N 
ATOM     14  C   UNL d   1      10.054   2.775  -6.738  0.00  0.00     0.222 C 
ATOM     15  N   UNL d   1      10.067   1.634  -5.814  0.00  0.00    -0.358 N 
ATOM     16  C   UNL d   1       6.004  -0.790  -3.358  0.00  0.00     0.174 C 
ATOM     17  H   UNL d   1       8.860   4.474  -7.070  0.00  0.00     0.165 HD
ATOM     18  H   UNL d   1      10.688   0.886  -6.112  0.00  0.00     0.162 HD
ENDROOT
BRANCH  14  19
ATOM     19  C   UNL d   1      10.188   2.468  -8.271  0.00  0.00     0.017 A 
ATOM     20  C   UNL d   1      11.285   3.088  -8.938  0.00  0.00     0.017 A 
ATOM     21  C   UNL d   1      11.459   3.028 -10.343  0.00  0.00     0.037 A 
ATOM     22  C   UNL d   1      10.602   2.277 -11.136  0.00  0.00     0.070 A 
ATOM     23  C   UNL d   1       9.531   1.676 -10.521  0.00  0.00     0.074 A 
ATOM     24  C   UNL d   1       9.311   1.758  -9.142  0.00  0.00     0.081 A 
BRANCH  22  25
ATOM     25  O   UNL d   1      10.866   2.162 -12.472  0.00  0.00    -0.356 OA
ATOM     26  C   UNL d   1      10.020   1.252 -13.189  0.00  0.00     0.210 C 
ENDBRANCH  22  25
BRANCH  24  27
ATOM     27  O   UNL d   1       8.155   1.036  -8.956  0.00  0.00    -0.355 OA
ATOM     28  C   UNL d   1       7.903   0.794  -7.627  0.00  0.00     0.210 C 
ENDBRANCH  24  27
ENDBRANCH  14  19
BRANCH   1  29
ATOM     29  O   UNL d   1       3.023   0.172  -1.448  0.00  0.00    -0.304 OA
BRANCH  29  30
ATOM     30  C   UNL d   1       2.549   0.089  -0.072  0.00  0.00     0.176 C 
ATOM     31  C   UNL d   1       1.019   0.066  -0.012  0.00  0.00     0.034 C 
ENDBRANCH  29  30
ENDBRANCH   1  29
TORSDOF 5
