@<TRIPOS>MOLECULE
*****
 56 59 0 0 0
SMALL
GASTEIGER

@<TRIPOS>ATOM
      1 C           2.4835   -0.0297   -0.0129 C.3     1  UNL1       -0.0397
      2 C           0.9838   -0.0296    0.0021 C.ar    1  UNL1       -0.0503
      3 C           0.2182   -1.2016    0.0030 C.ar    1  UNL1       -0.0571
      4 C          -1.1965   -1.1457   -0.0033 C.ar    1  UNL1       -0.0402
      5 C          -1.8648    0.0903   -0.0107 C.ar    1  UNL1        0.0338
      6 N          -3.2916    0.1700   -0.0362 N.am    1  UNL1       -0.2777
      7 C          -4.0237    1.3657   -0.0567 C.2     1  UNL1        0.3031
      8 O          -3.5897    2.5154   -0.0522 O.2     1  UNL1       -0.2648
      9 C          -5.5630    1.2595   -0.0902 C.2     1  UNL1        0.2996
     10 O          -6.1108    0.1617   -0.1032 O.2     1  UNL1       -0.2652
     11 N          -6.2071    2.4958   -0.1032 N.am    1  UNL1       -0.3005
     12 C          -7.6394    2.6101   -0.1311 C.3     1  UNL1        0.0702
     13 C          -8.2057    4.0078   -0.1488 C.ar    1  UNL1        0.1228
     14 C          -9.5381    4.3732   -0.2066 C.ar    1  UNL1       -0.0185
     15 C          -9.5895    5.7798   -0.2083 C.ar    1  UNL1       -0.0146
     16 C          -8.2887    6.2443   -0.1503 C.ar    1  UNL1        0.1476
     17 C          -7.8176    7.6264   -0.1424 C.2     1  UNL1        0.0878
     18 N          -8.6839    8.5969   -0.2239 N.2     1  UNL1       -0.1843
     19 N          -8.2691    9.9215   -0.2276 N.am    1  UNL1       -0.2016
     20 C          -9.2421   10.9339   -0.2830 C.2     1  UNL1        0.2819
     21 O         -10.4481   10.6722   -0.3348 O.2     1  UNL1       -0.2668
     22 C          -8.7896   12.3148   -0.2197 C.ar    1  UNL1        0.1328
     23 C          -9.3761   13.3493    0.5090 C.ar    1  UNL1        0.0695
     24 C         -10.5224   13.2850    1.4524 C.3     1  UNL1       -0.0201
     25 N          -8.7408   14.5517    0.2892 N.ar    1  UNL1       -0.2322
     26 C          -7.7980   14.2944   -0.5883 C.ar    1  UNL1        0.1384
     27 C          -6.8369   15.1524   -1.2054 C.ar    1  UNL1       -0.0188
     28 C          -5.9649   14.6470   -2.0988 C.ar    1  UNL1       -0.0569
     29 C          -5.9936   13.2413   -2.4651 C.ar    1  UNL1       -0.0450
     30 C          -6.8992   12.4295   -1.8925 C.ar    1  UNL1        0.0119
     31 N          -7.7873   12.9413   -0.9442 N.ar    1  UNL1       -0.2953
     32 O          -7.4230    5.1520   -0.1095 O.2     1  UNL1       -0.4571
     33 C          -1.0736    1.2414    0.0025 C.ar    1  UNL1       -0.0402
     34 C           0.3196    1.1908    0.0060 C.ar    1  UNL1       -0.0571
     35 H           2.8925   -1.0432    0.0004 H       1  UNL1        0.0278
     36 H           2.8692    0.5053    0.8625 H       1  UNL1        0.0278
     37 H           2.8475    0.4731   -0.9163 H       1  UNL1        0.0278
     38 H           0.7218   -2.1678    0.0048 H       1  UNL1        0.0621
     39 H          -1.7385   -2.0889   -0.0049 H       1  UNL1        0.0636
     40 H          -3.8223   -0.6980   -0.0506 H       1  UNL1        0.1553
     41 H          -5.6302    3.3330   -0.0899 H       1  UNL1        0.1496
     42 H          -8.0324    2.0733    0.7414 H       1  UNL1        0.0543
     43 H          -7.9954    2.0702   -1.0178 H       1  UNL1        0.0543
     44 H         -10.3766    3.6905   -0.2473 H       1  UNL1        0.0652
     45 H         -10.4708    6.4071   -0.2517 H       1  UNL1        0.0656
     46 H          -6.7339    7.8147   -0.0763 H       1  UNL1        0.0883
     47 H          -7.2925   10.1444   -0.0833 H       1  UNL1        0.1776
     48 H         -10.9206   12.2711    1.5356 H       1  UNL1        0.0293
     49 H         -11.3357   13.9399    1.1250 H       1  UNL1        0.0293
     50 H         -10.2058   13.5945    2.4533 H       1  UNL1        0.0293
     51 H          -6.8243   16.2060   -0.9427 H       1  UNL1        0.0654
     52 H          -5.2243   15.2831   -2.5770 H       1  UNL1        0.0619
     53 H          -5.2879   12.8821   -3.2064 H       1  UNL1        0.0632
     54 H          -6.9799   11.3836   -2.1499 H       1  UNL1        0.0813
     55 H          -1.5003    2.2342    0.0072 H       1  UNL1        0.0636
     56 H           0.8714    2.1277    0.0075 H       1  UNL1        0.0621
@<TRIPOS>BOND
     1     1     2    1
     2     2     3   ar
     3     3     4   ar
     4     4     5   ar
     5     5     6    1
     6     6     7   am
     7     7     8    2
     8     7     9    1
     9     9    10    2
    10     9    11   am
    11    11    12    1
    12    12    13    1
    13    13    14   ar
    14    14    15   ar
    15    15    16   ar
    16    16    17    1
    17    17    18    2
    18    18    19    1
    19    19    20   am
    20    20    21    2
    21    20    22    1
    22    22    23   ar
    23    23    24    1
    24    23    25   ar
    25    25    26   ar
    26    26    27   ar
    27    27    28   ar
    28    28    29   ar
    29    29    30   ar
    30    30    31   ar
    31    22    31   ar
    32    26    31   ar
    33    16    32   ar
    34    13    32   ar
    35     5    33   ar
    36    33    34   ar
    37     2    34   ar
    38     1    35    1
    39     1    36    1
    40     1    37    1
    41     3    38    1
    42     4    39    1
    43     6    40    1
    44    11    41    1
    45    12    42    1
    46    12    43    1
    47    14    44    1
    48    15    45    1
    49    17    46    1
    50    19    47    1
    51    24    48    1
    52    24    49    1
    53    24    50    1
    54    27    51    1
    55    28    52    1
    56    29    53    1
    57    30    54    1
    58    33    55    1
    59    34    56    1
