REMARK  11 active torsions:
REMARK  status: ('A' for Active; 'I' for Inactive)
REMARK    1  A    between atoms: C_2  and  C_3 
REMARK    2  A    between atoms: C_3  and  C_4 
REMARK    3  A    between atoms: C_4  and  C_5 
REMARK       I    between atoms: C_5  and  N_7 
REMARK    4  A    between atoms: N_7  and  C_8 
REMARK    5  A    between atoms: C_11  and  N_12 
REMARK    6  A    between atoms: N_12  and  C_13 
REMARK    7  A    between atoms: C_13  and  N_15 
REMARK       I    between atoms: N_15  and  C_16 
REMARK    8  A    between atoms: C_16  and  C_18 
REMARK    9  A    between atoms: C_19  and  C_20 
REMARK   10  A    between atoms: C_24  and  N_25 
REMARK   11  A    between atoms: C_30  and  O_31 
ROOT
ATOM      1  N   UNL d   1       7.923   4.608  -7.235  0.00  0.00    -0.333 N 
ATOM      2  H   UNL d   1       8.612   4.217  -7.870  0.00  0.00     0.168 HD
ENDROOT
BRANCH   1   3
ATOM      3  C   UNL d   1       7.695   3.789  -6.025  0.00  0.00     0.037 C 
ATOM      4  C   UNL d   1       8.356   2.587  -5.750  0.00  0.00     0.032 C 
ATOM      5  C   UNL d   1       7.960   1.771  -4.630  0.00  0.00     0.035 C 
ATOM      6  C   UNL d   1       6.905   2.139  -3.764  0.00  0.00     0.068 C 
ATOM      7  C   UNL d   1       6.337   3.384  -3.950  0.00  0.00     0.097 C 
ATOM      8  C   UNL d   1       6.775   4.144  -5.038  0.00  0.00     0.068 C 
BRANCH   6   9
ATOM      9  N   UNL d   1       6.463   1.250  -2.751  0.00  0.00    -0.325 N 
ATOM     10  C   UNL d   1       5.117   0.916  -2.657  0.00  0.00     0.222 C 
ATOM     11  O   UNL d   1       4.348   0.986  -3.614  0.00  0.00    -0.273 OA
ATOM     12  H   UNL d   1       7.112   1.040  -2.005  0.00  0.00     0.169 HD
BRANCH  10  13
ATOM     13  C   UNL d   1       4.618   0.546  -1.254  0.00  0.00     0.103 C 
BRANCH  13  14
ATOM     14  C   UNL d   1       3.079   0.653  -1.160  0.00  0.00     0.009 C 
BRANCH  14  15
ATOM     15  C   UNL d   1       2.524  -0.004   0.099  0.00  0.00    -0.004 C 
ATOM     16  C   UNL d   1       1.002   0.016   0.105  0.00  0.00     0.005 C 
ENDBRANCH  14  15
ENDBRANCH  13  14
ENDBRANCH  10  13
ENDBRANCH   6   9
BRANCH   7  17
ATOM     17  O   UNL d   1       5.412   4.104  -3.243  0.00  0.00    -0.354 OA
ATOM     18  C   UNL d   1       4.915   3.671  -2.005  0.00  0.00     0.210 C 
ENDBRANCH   7  17
ENDBRANCH   1   3
BRANCH   1  19
ATOM     19  C   UNL d   1       7.170   5.765  -7.640  0.00  0.00     0.179 C 
ATOM     20  S   UNL d   1       5.866   6.429  -6.792  0.00  0.00    -0.040 SA
BRANCH  19  21
ATOM     21  N   UNL d   1       7.570   6.389  -8.855  0.00  0.00    -0.300 N 
ATOM     22  C   UNL d   1       6.964   7.576  -9.333  0.00  0.00     0.247 C 
ATOM     23  O   UNL d   1       6.079   8.213  -8.774  0.00  0.00    -0.268 OA
ATOM     24  H   UNL d   1       8.285   5.960  -9.424  0.00  0.00     0.171 HD
BRANCH  22  25
ATOM     25  C   UNL d   1       7.408   8.165 -10.618  0.00  0.00     0.075 C 
ATOM     26  C   UNL d   1       6.788   9.315 -10.979  0.00  0.00     0.017 C 
BRANCH  26  27
ATOM     27  C   UNL d   1       7.036   9.996 -12.245  0.00  0.00    -0.034 A 
ATOM     28  C   UNL d   1       7.187  11.387 -12.334  0.00  0.00     0.011 A 
ATOM     29  C   UNL d   1       7.415  11.989 -13.577  0.00  0.00     0.003 A 
ATOM     30  C   UNL d   1       7.528  11.203 -14.726  0.00  0.00     0.036 A 
ATOM     31  C   UNL d   1       7.327   9.823 -14.633  0.00  0.00     0.103 A 
ATOM     32  C   UNL d   1       7.060   9.224 -13.404  0.00  0.00     0.047 A 
BRANCH  31  33
ATOM     33  N   UNL d   1       7.379   8.971 -15.821  0.00  0.00    -0.116 N 
ATOM     34  O   UNL d   1       7.635   9.518 -16.909  0.00  0.00    -0.532 OA
ATOM     35  O   UNL d   1       7.174   7.762 -15.675  0.00  0.00    -0.532 OA
ENDBRANCH  31  33
ENDBRANCH  26  27
ENDBRANCH  22  25
ENDBRANCH  19  21
ENDBRANCH   1  19
TORSDOF 11
