@<TRIPOS>MOLECULE
*****
 68 70 0 0 0
SMALL
GASTEIGER

@<TRIPOS>ATOM
      1 C           2.6309    1.6936    1.8482 C.3     1  UNL1       -0.0362
      2 C           1.1481    1.8631    1.9141 C.ar    1  UNL1       -0.0088
      3 C           0.4213    0.6715    1.6254 C.ar    1  UNL1       -0.0554
      4 C          -0.9612    0.6318    1.6026 C.ar    1  UNL1       -0.0613
      5 C          -1.6433    1.7767    1.9426 C.ar    1  UNL1       -0.0583
      6 C          -0.9475    2.9868    2.1862 C.ar    1  UNL1       -0.0197
      7 C           0.4522    3.0724    2.1464 C.ar    1  UNL1        0.1235
      8 O           0.9250    4.3853    2.2384 O.3     1  UNL1       -0.4889
      9 C           2.3031    4.6119    1.9712 C.3     1  UNL1        0.1204
     10 C           2.8551    5.9994    1.5513 C.3     1  UNL1        0.1286
     11 O           2.6637    6.9152    2.6269 O.3     1  UNL1       -0.3831
     12 C           4.3759    5.9216    1.2614 C.3     1  UNL1       -0.0013
     13 N           4.8844    5.2575   -0.0549 N.4     1  UNL1        0.2443
     14 C           4.2996    3.8696   -0.3797 C.3     1  UNL1        0.0278
     15 C           2.8162    3.9150   -0.9218 C.ar    1  UNL1        0.1564
     16 N           2.2361    5.0741   -1.0314 N.ar    1  UNL1       -0.2211
     17 C           0.8633    5.0448   -0.9273 C.ar    1  UNL1        0.1166
     18 S          -0.0057    6.4309   -0.4202 S.2     1  UNL1       -0.0617
     19 C          -1.4945    5.5973   -0.2968 C.ar    1  UNL1        0.1018
     20 C          -2.6721    6.3440    0.1333 C.2     1  UNL1        0.3465
     21 O          -2.7011    7.5640    0.3620 O.2     1  UNL1       -0.2444
     22 O          -3.7766    5.5464    0.1812 O.3     1  UNL1       -0.4581
     23 C          -5.0710    6.1787    0.2002 C.3     1  UNL1        0.0978
     24 C          -5.2533    7.0017   -1.0717 C.3     1  UNL1       -0.0280
     25 C          -6.1665    5.1049    0.2381 C.3     1  UNL1       -0.0280
     26 C          -1.3551    4.2533   -0.6488 C.ar    1  UNL1       -0.0149
     27 C          -2.4910    3.2808   -0.5252 C.3     1  UNL1       -0.0376
     28 C           0.0453    3.9339   -0.9353 C.ar    1  UNL1        0.0756
     29 C           0.7280    2.6560   -1.0862 C.ar    1  UNL1        0.2602
     30 O           0.1786    1.5632   -1.1334 O.2     1  UNL1       -0.2671
     31 N           2.1198    2.7311   -1.0477 N.ar    1  UNL1       -0.3061
     32 C           6.4321    5.2565   -0.0450 C.3     1  UNL1       -0.0261
     33 C           6.9869    4.5428   -1.2757 C.3     1  UNL1       -0.0218
     34 C           6.9501    6.6950   -0.0353 C.3     1  UNL1       -0.0218
     35 H           2.9345    0.6687    1.6311 H       1  UNL1        0.0279
     36 H           3.1188    2.0779    2.7386 H       1  UNL1        0.0279
     37 H           3.0447    2.2056    1.0039 H       1  UNL1        0.0279
     38 H           0.9386   -0.2357    1.3172 H       1  UNL1        0.0621
     39 H          -1.5003   -0.2455    1.2478 H       1  UNL1        0.0618
     40 H          -2.7303    1.7474    1.8413 H       1  UNL1        0.0619
     41 H          -1.5245    3.9118    2.2394 H       1  UNL1        0.0654
     42 H           2.5204    3.9822    1.1575 H       1  UNL1        0.0725
     43 H           2.8832    4.2617    2.8212 H       1  UNL1        0.0725
     44 H           2.4214    6.5030    0.6915 H       1  UNL1        0.0681
     45 H           2.5876    6.4015    3.4488 H       1  UNL1        0.2102
     46 H           4.8863    5.4284    2.0965 H       1  UNL1        0.0841
     47 H           4.7294    6.9570    1.2248 H       1  UNL1        0.0841
     48 H           4.5557    5.8570   -0.8286 H       1  UNL1        0.2041
     49 H           4.8804    3.3421   -1.1289 H       1  UNL1        0.0897
     50 H           4.4676    3.3250    0.5567 H       1  UNL1        0.0897
     51 H          -5.1490    6.7922    1.1035 H       1  UNL1        0.0728
     52 H          -5.1720    6.3615   -1.9580 H       1  UNL1        0.0265
     53 H          -4.4796    7.7649   -1.1784 H       1  UNL1        0.0265
     54 H          -6.2219    7.5050   -1.0757 H       1  UNL1        0.0265
     55 H          -6.1229    4.4506   -0.6418 H       1  UNL1        0.0265
     56 H          -7.1590    5.5707    0.2586 H       1  UNL1        0.0265
     57 H          -6.0725    4.4574    1.1155 H       1  UNL1        0.0265
     58 H          -3.4634    3.6170   -0.8827 H       1  UNL1        0.0278
     59 H          -2.7124    3.1981    0.5294 H       1  UNL1        0.0278
     60 H          -2.2871    2.2987   -0.9460 H       1  UNL1        0.0278
     61 H           2.5365    1.8208   -0.8893 H       1  UNL1        0.1702
     62 H           6.7460    4.7298    0.8664 H       1  UNL1        0.0846
     63 H           6.5945    4.9941   -2.1924 H       1  UNL1        0.0284
     64 H           6.7583    3.4744   -1.2830 H       1  UNL1        0.0284
     65 H           8.0789    4.5924   -1.2946 H       1  UNL1        0.0284
     66 H           6.5740    7.2469   -0.9028 H       1  UNL1        0.0284
     67 H           8.0442    6.7090   -0.0629 H       1  UNL1        0.0284
     68 H           6.6691    7.2413    0.8684 H       1  UNL1        0.0284
@<TRIPOS>UNITY_ATOM_ATTR
13 1
charge 1
@<TRIPOS>BOND
     1     1     2    1
     2     2     3   ar
     3     3     4   ar
     4     4     5   ar
     5     5     6   ar
     6     6     7   ar
     7     2     7   ar
     8     7     8    1
     9     8     9    1
    10     9    10    1
    11    10    11    1
    12    10    12    1
    13    14    15    1
    14    15    16   ar
    15    16    17   ar
    16    17    18   ar
    17    18    19   ar
    18    19    20    1
    19    20    21    2
    20    20    22    1
    21    22    23    1
    22    23    24    1
    23    23    25    1
    24    19    26   ar
    25    26    27    1
    26    26    28   ar
    27    17    28   ar
    28    28    29   ar
    29    29    30    2
    30    29    31   ar
    31    15    31   ar
    32    13    32    1
    33    32    33    1
    34    32    34    1
    35    13    14    1
    36    13    12    1
    37     1    35    1
    38     1    36    1
    39     1    37    1
    40     3    38    1
    41     4    39    1
    42     5    40    1
    43     6    41    1
    44     9    42    1
    45     9    43    1
    46    10    44    1
    47    11    45    1
    48    12    46    1
    49    12    47    1
    50    13    48    1
    51    14    49    1
    52    14    50    1
    53    23    51    1
    54    24    52    1
    55    24    53    1
    56    24    54    1
    57    25    55    1
    58    25    56    1
    59    25    57    1
    60    27    58    1
    61    27    59    1
    62    27    60    1
    63    31    61    1
    64    32    62    1
    65    33    63    1
    66    33    64    1
    67    33    65    1
    68    34    66    1
    69    34    67    1
    70    34    68    1
