@<TRIPOS>MOLECULE
*****
 54 56 0 0 0
SMALL
GASTEIGER

@<TRIPOS>ATOM
      1 O           1.1284    0.1898   -0.1918 O.2     1  UNL1       -0.2739
      2 C           2.3533    0.1334   -0.0747 C.2     1  UNL1        0.2334
      3 C           3.0454   -0.4668    1.1248 C.3     1  UNL1        0.0505
      4 C           2.1254   -1.0138    2.1941 C.ar    1  UNL1       -0.0386
      5 C           1.3668   -0.1552    3.0041 C.ar    1  UNL1       -0.0581
      6 C           0.6372   -0.6614    4.0819 C.ar    1  UNL1       -0.0615
      7 C           0.5898   -2.0354    4.3088 C.ar    1  UNL1       -0.0617
      8 C           1.2931   -2.9022    3.4753 C.ar    1  UNL1       -0.0615
      9 C           2.0607   -2.3945    2.4264 C.ar    1  UNL1       -0.0581
     10 N           3.1417    0.6445   -1.0786 N.am    1  UNL1       -0.2349
     11 N           4.5678    0.6869   -1.1752 N.am    1  UNL1       -0.2455
     12 C           5.1282    1.2806   -2.3249 C.2     1  UNL1        0.1533
     13 S           4.1215    1.8894   -3.5359 S.2     1  UNL1       -0.0170
     14 N           6.5392    1.3051   -2.3536 N.am    1  UNL1       -0.2627
     15 C           7.3406    1.8822   -3.3595 C.2     1  UNL1        0.2496
     16 O           6.9207    2.4386   -4.3777 O.2     1  UNL1       -0.2698
     17 C           8.8239    1.8263   -3.2712 C.ar    1  UNL1        0.0383
     18 C           9.5859    2.8965   -3.7666 C.ar    1  UNL1       -0.0461
     19 C          10.9759    2.7777   -3.9220 C.ar    1  UNL1       -0.0181
     20 C          11.6526    1.6080   -3.5376 C.ar    1  UNL1        0.1344
     21 O          13.0203    1.7407   -3.6713 O.3     1  UNL1       -0.4905
     22 C          13.7999    0.6563   -3.1935 C.3     1  UNL1        0.0936
     23 C          15.3134    0.8605   -3.2819 C.3     1  UNL1        0.0066
     24 C          16.0193   -0.3842   -2.7696 C.ar    1  UNL1       -0.0442
     25 C          15.6282   -1.6674   -3.1940 C.ar    1  UNL1       -0.0585
     26 C          16.1270   -2.8106   -2.5729 C.ar    1  UNL1       -0.0615
     27 C          17.1177   -2.6934   -1.6052 C.ar    1  UNL1       -0.0617
     28 C          17.5757   -1.4311   -1.2299 C.ar    1  UNL1       -0.0615
     29 C          17.0234   -0.2809   -1.8007 C.ar    1  UNL1       -0.0585
     30 C          10.8715    0.5214   -3.0786 C.ar    1  UNL1        0.0602
     31 BR         11.4516   -1.2525   -2.6544 Br      1  UNL1       -0.0465
     32 C           9.4725    0.6433   -2.9465 C.ar    1  UNL1       -0.0321
     33 H           3.6839    0.2976    1.5824 H       1  UNL1        0.0407
     34 H           3.7001   -1.2693    0.7659 H       1  UNL1        0.0407
     35 H           1.3338    0.9132    2.7998 H       1  UNL1        0.0620
     36 H           0.1088    0.0166    4.7475 H       1  UNL1        0.0618
     37 H          -0.0045   -2.4309    5.1280 H       1  UNL1        0.0618
     38 H           1.2558   -3.9741    3.6495 H       1  UNL1        0.0618
     39 H           2.6092   -3.0863    1.7921 H       1  UNL1        0.0620
     40 H           2.6321    1.0427   -1.8714 H       1  UNL1        0.1728
     41 H           5.1072    0.3084   -0.4056 H       1  UNL1        0.1718
     42 H           7.0258    0.9149   -1.5587 H       1  UNL1        0.1569
     43 H           9.0961    3.8220   -4.0712 H       1  UNL1        0.0626
     44 H          11.5313    3.6036   -4.3709 H       1  UNL1        0.0655
     45 H          13.5620   -0.1915   -3.8351 H       1  UNL1        0.0700
     46 H          13.5582    0.4692   -2.1397 H       1  UNL1        0.0700
     47 H          15.5876    1.7347   -2.6782 H       1  UNL1        0.0346
     48 H          15.6189    1.0764   -4.3106 H       1  UNL1        0.0346
     49 H          14.8992   -1.7988   -3.9904 H       1  UNL1        0.0620
     50 H          15.7298   -3.7874   -2.8370 H       1  UNL1        0.0618
     51 H          17.5354   -3.5863   -1.1488 H       1  UNL1        0.0618
     52 H          18.3474   -1.3417   -0.4700 H       1  UNL1        0.0618
     53 H          17.3690    0.6943   -1.4665 H       1  UNL1        0.0620
     54 H           8.8911   -0.2267   -2.6590 H       1  UNL1        0.0637
@<TRIPOS>BOND
     1     1     2    2
     2     2     3    1
     3     3     4    1
     4     4     5   ar
     5     5     6   ar
     6     6     7   ar
     7     7     8   ar
     8     8     9   ar
     9     4     9   ar
    10     2    10   am
    11    10    11    1
    12    11    12    1
    13    12    13    2
    14    12    14    1
    15    14    15   am
    16    15    16    2
    17    15    17    1
    18    17    18   ar
    19    18    19   ar
    20    19    20   ar
    21    20    21    1
    22    21    22    1
    23    22    23    1
    24    23    24    1
    25    24    25   ar
    26    25    26   ar
    27    26    27   ar
    28    27    28   ar
    29    28    29   ar
    30    24    29   ar
    31    20    30   ar
    32    30    31    1
    33    30    32   ar
    34    17    32   ar
    35     3    33    1
    36     3    34    1
    37     5    35    1
    38     6    36    1
    39     7    37    1
    40     8    38    1
    41     9    39    1
    42    10    40    1
    43    11    41    1
    44    14    42    1
    45    18    43    1
    46    19    44    1
    47    22    45    1
    48    22    46    1
    49    23    47    1
    50    23    48    1
    51    25    49    1
    52    26    50    1
    53    27    51    1
    54    28    52    1
    55    29    53    1
    56    32    54    1
