REMARK  13 active torsions:
REMARK  status: ('A' for Active; 'I' for Inactive)
REMARK    1  A    between atoms: O_2  and  C_3 
REMARK    2  A    between atoms: C_3  and  C_4 
REMARK    3  A    between atoms: C_4  and  O_5 
REMARK    4  A    between atoms: O_5  and  C_6 
REMARK    5  A    between atoms: C_6  and  C_8 
REMARK    6  A    between atoms: C_9  and  N_10 
REMARK       I    between atoms: N_10  and  C_11 
REMARK    7  A    between atoms: C_11  and  C_13 
REMARK    8  A    between atoms: C_13  and  N_14 
REMARK    9  A    between atoms: C_15  and  N_14 
REMARK   10  A    between atoms: C_15  and  C_23 
REMARK   11  A    between atoms: C_15  and  C_16 
REMARK   12  A    between atoms: C_16  and  C_17 
REMARK   13  A    between atoms: C_30  and  C_31 
REMARK       I    between atoms: C_31  and  N_32 
ROOT
ATOM      1  N   UNL d   1       1.308   3.768  -0.192  0.00  0.00    -0.319 N 
ATOM      2  C   UNL d   1       0.460   2.664  -0.038  0.00  0.00     0.248 C 
ATOM      3  O   UNL d   1      -0.595   2.677   0.593  0.00  0.00    -0.271 OA
ATOM      4  H   UNL d   1       1.909   3.904  -1.009  0.00  0.00     0.169 HD
ENDROOT
BRANCH   1   5
ATOM      5  C   UNL d   1       1.319   4.781   0.781  0.00  0.00     0.094 C 
ATOM      6  C   UNL d   1       0.940   4.803   2.112  0.00  0.00     0.080 C 
ATOM      7  C   UNL d   1       1.037   6.149   2.668  0.00  0.00    -0.020 C 
ATOM      8  C   UNL d   1       1.586   7.078   1.800  0.00  0.00     0.081 C 
ATOM      9  C   UNL d   1       0.558   6.352   4.065  0.00  0.00     0.051 C 
ATOM     10  S   UNL d   1       1.990   6.285   0.296  0.00  0.00    -0.065 SA
BRANCH   6  11
ATOM     11  C   UNL d   1       0.432   3.736   3.016  0.00  0.00     0.296 C 
ATOM     12  O   UNL d   1      -0.354   3.927   3.906  0.00  0.00    -0.259 OA
BRANCH  11  13
ATOM     13  O   UNL d   1       0.958   2.496   2.994  0.00  0.00    -0.315 OA
BRANCH  13  14
ATOM     14  C   UNL d   1       2.152   2.141   2.391  0.00  0.00     0.205 C 
BRANCH  14  15
ATOM     15  C   UNL d   1       1.823   0.790   1.926  0.00  0.00     0.193 C 
BRANCH  15  16
ATOM     16  O   UNL d   1       2.951   0.638   1.108  0.00  0.00    -0.394 OA
ATOM     17  C   UNL d   1       2.994  -0.442   0.286  0.00  0.00     0.201 C 
ENDBRANCH  15  16
ENDBRANCH  14  15
ENDBRANCH  13  14
ENDBRANCH  11  13
ENDBRANCH   6  11
BRANCH   8  18
ATOM     18  C   UNL d   1       1.860   8.520   1.963  0.00  0.00     0.256 C 
ATOM     19  N   UNL d   1       1.558   9.142   3.155  0.00  0.00    -0.365 N 
ATOM     20  H   UNL d   1       1.167   8.758   3.988  0.00  0.00     0.159 HD
ATOM     21  H   UNL d   1       1.743  10.132   3.233  0.00  0.00     0.159 HD
ATOM     22  O   UNL d   1       2.351   9.234   1.096  0.00  0.00    -0.267 OA
ENDBRANCH   8  18
ENDBRANCH   1   5
BRANCH   2  23
ATOM     23  C   UNL d   1       0.875   1.372  -0.751  0.00  0.00     0.335 C 
BRANCH  23  24
ATOM     24  N   UNL d   1       0.326  -0.224  -0.199  0.00  0.00    -0.058 N 
ATOM     25  H   UNL d   1      -0.686  -0.088   0.006  0.00  0.00     0.278 HD
ATOM     26  H   UNL d   1       0.626  -0.537   0.728  0.00  0.00     0.278 HD
BRANCH  24  27
ATOM     27  C   UNL d   1       0.501  -1.569  -0.979  0.00  0.00     0.223 C 
BRANCH  27  28
ATOM     28  C   UNL d   1      -0.401  -1.441  -2.132  0.00  0.00    -0.028 C 
ATOM     29  C   UNL d   1      -0.678  -0.213  -2.730  0.00  0.00     0.009 C 
ATOM     30  C   UNL d   1      -1.750   0.022  -3.526  0.00  0.00     0.001 C 
ATOM     31  C   UNL d   1      -2.304  -1.108  -4.057  0.00  0.00     0.000 C 
ATOM     32  C   UNL d   1      -1.933  -2.390  -3.610  0.00  0.00     0.001 C 
ATOM     33  C   UNL d   1      -1.035  -2.562  -2.581  0.00  0.00     0.009 C 
ENDBRANCH  27  28
BRANCH  27  34
ATOM     34  C   UNL d   1       1.926  -2.282  -1.386  0.00  0.00     0.076 C 
BRANCH  34  35
ATOM     35  C   UNL d   1       2.746  -3.076  -0.279  0.00  0.00    -0.056 C 
ATOM     36  C   UNL d   1       2.192  -3.402   0.989  0.00  0.00     0.007 C 
ATOM     37  C   UNL d   1       2.996  -3.723   2.103  0.00  0.00     0.001 C 
ATOM     38  C   UNL d   1       4.366  -3.883   1.960  0.00  0.00     0.000 C 
ATOM     39  C   UNL d   1       4.956  -3.552   0.745  0.00  0.00     0.001 C 
ATOM     40  C   UNL d   1       4.167  -3.139  -0.355  0.00  0.00     0.007 C 
ENDBRANCH  34  35
ENDBRANCH  27  34
ENDBRANCH  24  27
ENDBRANCH  23  24
ENDBRANCH   2  23
TORSDOF 13
