@<TRIPOS>MOLECULE
*****
 34 36 0 0 0
SMALL
GASTEIGER

@<TRIPOS>ATOM
      1 O           2.3199    0.8803   -0.3653 O.2     1  UNL1       -0.2680
      2 C           3.4657    0.4462   -0.6405 C.2     1  UNL1        0.2687
      3 N           3.6341   -0.8523   -1.0521 N.am    1  UNL1       -0.1902
      4 O           2.5985   -1.8193   -1.3053 O.3     1  UNL1       -0.2749
      5 C           3.2837   -2.9623   -1.8889 C.3     1  UNL1        0.0983
      6 C           2.5255   -4.1336   -2.4899 C.ar    1  UNL1       -0.0197
      7 C           1.3589   -3.9917   -3.2444 C.ar    1  UNL1       -0.0563
      8 C           0.7052   -5.1224   -3.7600 C.ar    1  UNL1       -0.0614
      9 C           1.2583   -6.3958   -3.6152 C.ar    1  UNL1       -0.0617
     10 C           2.4580   -6.5484   -2.9314 C.ar    1  UNL1       -0.0614
     11 C           3.0851   -5.4277   -2.3782 C.ar    1  UNL1       -0.0563
     12 C           4.7613    1.1340   -0.0493 C.ar    1  UNL1        0.0636
     13 C           4.7216    0.6680    1.2627 C.ar    1  UNL1        0.0149
     14 N           4.9366    1.8748    1.8705 N.ar    1  UNL1       -0.3599
     15 C           6.2406    2.0976    1.5287 C.ar    1  UNL1        0.0472
     16 C           7.2158    2.5493    2.4245 C.ar    1  UNL1       -0.0378
     17 C           8.5298    2.6269    2.0614 C.ar    1  UNL1       -0.0598
     18 C           8.8063    2.2534    0.7565 C.ar    1  UNL1       -0.0611
     19 C           7.7388    1.8202   -0.2224 C.ar    1  UNL1       -0.0519
     20 C           6.3159    1.6586    0.1842 C.ar    1  UNL1        0.0118
     21 H           4.5268   -1.2517   -0.8267 H       1  UNL1        0.1828
     22 H           3.9189   -3.3717   -1.0919 H       1  UNL1        0.0634
     23 H           3.9286   -2.5630   -2.6787 H       1  UNL1        0.0634
     24 H           0.9449   -3.0055   -3.4376 H       1  UNL1        0.0621
     25 H          -0.2504   -5.0123   -4.2677 H       1  UNL1        0.0618
     26 H           0.7569   -7.2643   -4.0366 H       1  UNL1        0.0618
     27 H           2.8963   -7.5371   -2.8121 H       1  UNL1        0.0618
     28 H           4.0265   -5.5772   -1.8518 H       1  UNL1        0.0621
     29 H           5.3262   -0.2110    1.4849 H       1  UNL1        0.0815
     30 H           4.3144    2.6700    1.8360 H       1  UNL1        0.1654
     31 H           6.9117    2.7224    3.4474 H       1  UNL1        0.0638
     32 H           9.2647    2.9412    2.8101 H       1  UNL1        0.0618
     33 H           9.8811    2.2619    0.5164 H       1  UNL1        0.0618
     34 H           8.1783    1.5749   -1.1935 H       1  UNL1        0.0624
@<TRIPOS>BOND
     1     1     2    2
     2     2     3   am
     3     3     4    1
     4     4     5    1
     5     5     6    1
     6     6     7   ar
     7     7     8   ar
     8     8     9   ar
     9     9    10   ar
    10    10    11   ar
    11     6    11   ar
    12     2    12    1
    13    12    13   ar
    14    13    14   ar
    15    14    15   ar
    16    15    16   ar
    17    16    17   ar
    18    17    18   ar
    19    18    19   ar
    20    19    20   ar
    21    12    20   ar
    22    15    20   ar
    23     3    21    1
    24     5    22    1
    25     5    23    1
    26     7    24    1
    27     8    25    1
    28     9    26    1
    29    10    27    1
    30    11    28    1
    31    13    29    1
    32    14    30    1
    33    16    31    1
    34    17    32    1
    35    18    33    1
    36    19    34    1
