@<TRIPOS>MOLECULE
*****
 48 50 0 0 0
SMALL
GASTEIGER

@<TRIPOS>ATOM
      1 O           1.1884   -0.1128   -0.2274 O.2     1  UNL1       -0.2739
      2 C           2.4138   -0.0526   -0.1126 C.2     1  UNL1        0.2334
      3 C           3.0919    0.6079    1.0874 C.3     1  UNL1        0.0507
      4 C           2.1481    1.2015    2.1320 C.ar    1  UNL1       -0.0335
      5 C           1.2659    0.3819    2.8569 C.ar    1  UNL1       -0.0360
      6 C           0.4032    0.9222    3.8253 C.ar    1  UNL1        0.0864
      7 CL         -0.6561   -0.1537    4.6676 Cl      1  UNL1       -0.0796
      8 C           0.4126    2.2924    4.1044 C.ar    1  UNL1        0.1803
      9 C           1.2639    3.1236    3.3682 C.ar    1  UNL1        0.1638
     10 C           2.1376    2.5813    2.4094 C.ar    1  UNL1       -0.0126
     11 O           1.3028    4.4897    3.5354 O.3     1  UNL1       -0.4849
     12 C           0.1642    4.9671    4.2714 C.3     1  UNL1        0.1237
     13 C          -0.0634    4.1001    5.4951 C.3     1  UNL1        0.1237
     14 O          -0.4197    2.7743    5.0885 O.3     1  UNL1       -0.4835
     15 N           3.1995   -0.6114   -1.1049 N.am    1  UNL1       -0.2329
     16 N           4.6125   -0.6462   -1.1720 N.am    1  UNL1       -0.2182
     17 C           5.2126   -1.2551   -2.2697 C.2     1  UNL1        0.3160
     18 O           4.5798   -1.7656   -3.1919 O.2     1  UNL1       -0.2513
     19 N           6.5972   -1.2344   -2.2431 N.am    1  UNL1       -0.2982
     20 C           7.3843   -1.8406   -3.3197 C.3     1  UNL1        0.0147
     21 C           8.8995   -1.7259   -3.1123 C.3     1  UNL1       -0.0191
     22 C           9.6968   -2.3562   -4.2605 C.3     1  UNL1        0.0296
     23 N          11.1537   -2.2484   -4.0360 N.ar    1  UNL1       -0.2957
     24 C          12.0471   -3.3115   -3.9153 C.ar    1  UNL1        0.0732
     25 C          13.2880   -2.7704   -3.7231 C.ar    1  UNL1        0.1870
     26 N          13.1199   -1.4068   -3.7443 N.ar    1  UNL1       -0.2011
     27 C          11.8376   -1.0939   -3.9510 C.ar    1  UNL1        0.2463
     28 H           3.7474    1.3983    0.7043 H       1  UNL1        0.0407
     29 H           3.7250   -0.1379    1.5832 H       1  UNL1        0.0407
     30 H           1.2305   -0.6880    2.6594 H       1  UNL1        0.0636
     31 H           2.7979    3.2567    1.8703 H       1  UNL1        0.0658
     32 H          -0.7110    4.9628    3.6093 H       1  UNL1        0.0731
     33 H           0.3593    6.0032    4.5683 H       1  UNL1        0.0731
     34 H          -0.8809    4.4998    6.1051 H       1  UNL1        0.0731
     35 H           0.8338    4.0465    6.1245 H       1  UNL1        0.0731
     36 H           2.6996   -1.0423   -1.8867 H       1  UNL1        0.1728
     37 H           5.1458   -0.2380   -0.4191 H       1  UNL1        0.1744
     38 H           7.0613   -0.8194   -1.4494 H       1  UNL1        0.1503
     39 H           7.0997   -1.3521   -4.2594 H       1  UNL1        0.0463
     40 H           7.0963   -2.8955   -3.4004 H       1  UNL1        0.0463
     41 H           9.1886   -2.2086   -2.1711 H       1  UNL1        0.0297
     42 H           9.1788   -0.6701   -3.0153 H       1  UNL1        0.0297
     43 H           9.4766   -1.8638   -5.2150 H       1  UNL1        0.0494
     44 H           9.4448   -3.4179   -4.3678 H       1  UNL1        0.0494
     45 H          11.6851   -4.3241   -3.9785 H       1  UNL1        0.0871
     46 H          14.2742   -3.1754   -3.5740 H       1  UNL1        0.1392
     47 H          13.8642   -0.7218   -3.6282 H       1  UNL1        0.4538
     48 H          11.4291   -0.0925   -4.0207 H       1  UNL1        0.1600
@<TRIPOS>UNITY_ATOM_ATTR
26 1
charge 1
@<TRIPOS>BOND
     1     1     2    2
     2     2     3    1
     3     3     4    1
     4     4     5   ar
     5     5     6   ar
     6     6     7    1
     7     6     8   ar
     8     8     9   ar
     9     9    10   ar
    10     4    10   ar
    11     9    11    1
    12    11    12    1
    13    12    13    1
    14    13    14    1
    15     8    14    1
    16     2    15   am
    17    15    16    1
    18    16    17   am
    19    17    18    2
    20    17    19   am
    21    19    20    1
    22    20    21    1
    23    21    22    1
    24    22    23    1
    25    23    24   ar
    26    24    25   ar
    27    25    26   ar
    28    26    27   ar
    29    23    27   ar
    30     3    28    1
    31     3    29    1
    32     5    30    1
    33    10    31    1
    34    12    32    1
    35    12    33    1
    36    13    34    1
    37    13    35    1
    38    15    36    1
    39    16    37    1
    40    19    38    1
    41    20    39    1
    42    20    40    1
    43    21    41    1
    44    21    42    1
    45    22    43    1
    46    22    44    1
    47    24    45    1
    48    25    46    1
    49    26    47    1
    50    27    48    1
