REMARK  9 active torsions:
REMARK  status: ('A' for Active; 'I' for Inactive)
REMARK    1  A    between atoms: O_2  and  C_3 
REMARK    2  A    between atoms: C_7  and  C_6 
REMARK    3  A    between atoms: C_7  and  N_17 
REMARK    4  A    between atoms: C_7  and  C_8 
REMARK       I    between atoms: C_8  and  N_10 
REMARK    5  A    between atoms: N_10  and  C_11 
REMARK    6  A    between atoms: N_17  and  C_18 
REMARK       I    between atoms: N_17  and  C_24 
REMARK    7  A    between atoms: C_18  and  C_19 
REMARK    8  A    between atoms: C_24  and  C_26 
REMARK    9  A    between atoms: C_29  and  C_30 
REMARK       I    between atoms: C_30  and  N_31 
ROOT
ATOM      1  N   UNL d   1       4.647   6.272  -0.974  0.00  0.00    -0.329 N 
ATOM      2  C   UNL d   1       5.065   7.562  -1.216  0.00  0.00     0.265 C 
ATOM      3  O   UNL d   1       6.052   7.791  -1.910  0.00  0.00    -0.267 OA
ENDROOT
BRANCH   1   4
ATOM      4  C   UNL d   1       5.545   5.338  -1.587  0.00  0.00     0.207 C 
BRANCH   4   5
ATOM      5  C   UNL d   1       5.309   4.005  -1.125  0.00  0.00     0.225 C 
ATOM      6  O   UNL d   1       5.298   3.192  -2.100  0.00  0.00    -0.277 OA
ATOM      7  N   UNL d   1       4.754   3.788   0.492  0.00  0.00    -0.256 NA
ATOM      8  H   UNL d   1       4.682   4.688   0.993  0.00  0.00     0.130 HD
BRANCH   7   9
ATOM      9  C   UNL d   1       3.091   2.868   0.725  0.00  0.00     0.063 C 
ATOM     10  C   UNL d   1       1.534   3.223  -0.770  0.00  0.00     0.020 C 
ATOM     11  C   UNL d   1      -0.005   2.283  -0.793  0.00  0.00     0.002 C 
ATOM     12  C   UNL d   1       0.329   0.654  -0.645  0.00  0.00     0.000 C 
ATOM     13  C   UNL d   1       1.359  -0.000   0.758  0.00  0.00     0.002 C 
ATOM     14  C   UNL d   1       3.057   0.845   1.145  0.00  0.00     0.020 C 
ENDBRANCH   7   9
ENDBRANCH   4   5
BRANCH   4  15
ATOM     15  C   UNL d   1       5.428   5.281  -3.127  0.00  0.00    -0.027 C 
ATOM     16  C   UNL d   1       6.479   4.699  -3.857  0.00  0.00     0.012 C 
ATOM     17  C   UNL d   1       6.470   4.796  -5.229  0.00  0.00     0.037 C 
ATOM     18  C   UNL d   1       5.312   5.240  -5.869  0.00  0.00     0.068 C 
ATOM     19  C   UNL d   1       4.147   5.492  -5.145  0.00  0.00     0.037 C 
ATOM     20  C   UNL d   1       4.194   5.464  -3.771  0.00  0.00     0.012 C 
BRANCH  18  21
ATOM     21  O   UNL d   1       5.355   5.328  -7.229  0.00  0.00    -0.356 OA
ATOM     22  C   UNL d   1       4.648   6.458  -7.730  0.00  0.00     0.210 C 
ENDBRANCH  18  21
ENDBRANCH   4  15
ENDBRANCH   1   4
BRANCH   1  23
ATOM     23  C   UNL d   1       3.317   5.948  -0.427  0.00  0.00     0.150 C 
BRANCH  23  24
ATOM     24  C   UNL d   1       2.917   4.545  -0.472  0.00  0.00     0.048 C 
ATOM     25  C   UNL d   1       3.453   2.998  -1.141  0.00  0.00     0.019 C 
ATOM     26  C   UNL d   1       2.606   1.658  -0.693  0.00  0.00     0.012 C 
ATOM     27  C   UNL d   1       1.458   2.131   0.704  0.00  0.00     0.067 C 
ATOM     28  S   UNL d   1       1.351   4.339   1.124  0.00  0.00    -0.149 SA
ENDBRANCH  23  24
ENDBRANCH   1  23
BRANCH   2  29
ATOM     29  C   UNL d   1       4.330   8.552  -0.516  0.00  0.00     0.120 A 
ATOM     30  S   UNL d   1       3.709   9.920  -1.288  0.00  0.00     0.020 SA
ATOM     31  N   UNL d   1       2.940  10.536   0.067  0.00  0.00    -0.203 NA
ATOM     32  C   UNL d   1       3.173   9.714   1.105  0.00  0.00     0.160 A 
ATOM     33  C   UNL d   1       3.994   8.582   0.812  0.00  0.00     0.085 A 
ATOM     34  N   UNL d   1       4.367   7.665   1.740  0.00  0.00    -0.396 N 
ATOM     35  H   UNL d   1       3.911   7.667   2.661  0.00  0.00     0.156 HD
ATOM     36  H   UNL d   1       4.917   6.835   1.549  0.00  0.00     0.156 HD
BRANCH  32  37
ATOM     37  C   UNL d   1       2.658   9.930   2.467  0.00  0.00     0.271 C 
ATOM     38  N   UNL d   1       1.956  11.067   2.724  0.00  0.00    -0.365 N 
ATOM     39  H   UNL d   1       1.779  11.761   2.013  0.00  0.00     0.159 HD
ATOM     40  H   UNL d   1       1.635  11.203   3.672  0.00  0.00     0.159 HD
ATOM     41  O   UNL d   1       2.836   9.120   3.380  0.00  0.00    -0.266 OA
ENDBRANCH  32  37
ENDBRANCH   2  29
TORSDOF 9
