REMARK  4 active torsions:
REMARK  status: ('A' for Active; 'I' for Inactive)
REMARK       I    between atoms: C_2  and  N_3 
REMARK    1  A    between atoms: C_2  and  C_15 
REMARK    2  A    between atoms: N_3  and  C_4 
REMARK    3  A    between atoms: C_4  and  N_6 
REMARK    4  A    between atoms: N_6  and  C_7 
ROOT
ATOM      1  C   UNL d   1       2.049  -1.676  -1.850  0.00  0.00     0.179 C 
ATOM      2  S   UNL d   1       0.371  -1.856  -1.730  0.00  0.00    -0.040 SA
ENDROOT
BRANCH   1   3
ATOM      3  N   UNL d   1       2.780  -0.772  -1.037  0.00  0.00    -0.299 N 
ATOM      4  C   UNL d   1       2.205   0.103  -0.091  0.00  0.00     0.257 C 
ATOM      5  O   UNL d   1       0.996   0.310   0.056  0.00  0.00    -0.267 OA
ATOM      6  H   UNL d   1       3.789  -0.848  -1.028  0.00  0.00     0.171 HD
BRANCH   4   7
ATOM      7  C   UNL d   1       3.050   0.845   0.871  0.00  0.00     0.032 A 
ATOM      8  C   UNL d   1       4.231   1.497   0.526  0.00  0.00     0.017 A 
ATOM      9  C   UNL d   1       4.988   2.115   1.531  0.00  0.00     0.001 A 
ATOM     10  C   UNL d   1       4.526   2.162   2.851  0.00  0.00     0.000 A 
ATOM     11  C   UNL d   1       3.300   1.594   3.180  0.00  0.00     0.001 A 
ATOM     12  C   UNL d   1       2.564   0.945   2.191  0.00  0.00     0.017 A 
ENDBRANCH   4   7
ENDBRANCH   1   3
BRANCH   1  13
ATOM     13  N   UNL d   1       2.840  -2.439  -2.747  0.00  0.00    -0.330 N 
ATOM     14  H   UNL d   1       3.806  -2.631  -2.499  0.00  0.00     0.168 HD
BRANCH  13  15
ATOM     15  C   UNL d   1       2.290  -3.364  -3.720  0.00  0.00     0.076 A 
ATOM     16  C   UNL d   1       1.191  -3.021  -4.521  0.00  0.00     0.074 A 
ATOM     17  C   UNL d   1       0.628  -3.934  -5.412  0.00  0.00     0.118 A 
ATOM     18  F   UNL d   1      -0.440  -3.572  -6.135  0.00  0.00    -0.206 F 
ATOM     19  C   UNL d   1       1.161  -5.204  -5.567  0.00  0.00     0.045 A 
ATOM     20  C   UNL d   1       2.275  -5.563  -4.809  0.00  0.00     0.047 A 
ATOM     21  C   UNL d   1       2.838  -4.644  -3.904  0.00  0.00     0.143 A 
ATOM     22  F   UNL d   1       3.886  -5.041  -3.166  0.00  0.00    -0.204 F 
ENDBRANCH  13  15
ENDBRANCH   1  13
TORSDOF 4
