@<TRIPOS>MOLECULE
*****
 42 42 0 0 0
SMALL
GASTEIGER

@<TRIPOS>ATOM
      1 C           1.0477    0.0860    0.0307 C.3     1  UNL1       -0.0652
      2 C           2.5703    0.0904    0.0044 C.3     1  UNL1       -0.0545
      3 C           3.1099    0.3304   -1.4137 C.3     1  UNL1       -0.0376
      4 C           4.6416    0.3357   -1.4449 C.3     1  UNL1        0.0131
      5 N           5.2144    0.5593   -2.7682 N.am    1  UNL1       -0.2982
      6 C           6.5827    0.5885   -2.9393 C.2     1  UNL1        0.3160
      7 O           7.3840    0.4319   -2.0169 O.2     1  UNL1       -0.2513
      8 N           6.9991    0.8063   -4.2297 N.am    1  UNL1       -0.2182
      9 N           8.3987    0.8612   -4.5418 N.am    1  UNL1       -0.2319
     10 C           8.7176    1.0920   -5.8718 C.2     1  UNL1        0.2464
     11 O           7.7612    1.2186   -6.6426 O.2     1  UNL1       -0.2726
     12 C          10.2391    1.1481   -6.2661 C.3     1  UNL1        0.0896
     13 N          10.5782    1.4992   -7.6792 N.pl3   1  UNL1       -0.3241
     14 C           9.5789    1.5927   -8.7431 C.3     1  UNL1        0.0012
     15 C          11.9008    1.5029   -8.1546 C.ar    1  UNL1        0.0299
     16 C          12.3003    2.4369   -9.1354 C.ar    1  UNL1       -0.0407
     17 C          13.5573    2.3972   -9.7514 C.ar    1  UNL1       -0.0600
     18 C          14.4917    1.4560   -9.3480 C.ar    1  UNL1       -0.0616
     19 C          14.1472    0.5403   -8.3571 C.ar    1  UNL1       -0.0600
     20 C          12.8674    0.5647   -7.7682 C.ar    1  UNL1       -0.0407
     21 H           0.6799   -0.0862    1.0479 H       1  UNL1        0.0230
     22 H           0.6478   -0.7054   -0.6112 H       1  UNL1        0.0230
     23 H           0.6478    1.0445   -0.3151 H       1  UNL1        0.0230
     24 H           2.9354   -0.8693    0.3897 H       1  UNL1        0.0263
     25 H           2.9354    0.8698    0.6841 H       1  UNL1        0.0263
     26 H           2.7267    1.2871   -1.7888 H       1  UNL1        0.0280
     27 H           2.7267   -0.4495   -2.0827 H       1  UNL1        0.0280
     28 H           5.0248   -0.6228   -1.0763 H       1  UNL1        0.0462
     29 H           5.0249    1.1197   -0.7816 H       1  UNL1        0.0462
     30 H           4.6000    0.6942   -3.5593 H       1  UNL1        0.1503
     31 H           6.3741    0.9426   -5.0228 H       1  UNL1        0.1744
     32 H           9.0488    0.7340   -3.7695 H       1  UNL1        0.1729
     33 H          10.6839    0.1833   -5.9948 H       1  UNL1        0.0560
     34 H          10.7079    1.9131   -5.6315 H       1  UNL1        0.0560
     35 H           8.5464    1.5082   -8.4431 H       1  UNL1        0.0428
     36 H           9.7206    0.8004   -9.4868 H       1  UNL1        0.0428
     37 H           9.6214    2.5700   -9.2326 H       1  UNL1        0.0428
     38 H          11.6270    3.2374   -9.4305 H       1  UNL1        0.0636
     39 H          13.7937    3.0987  -10.5476 H       1  UNL1        0.0618
     40 H          15.4792    1.4379   -9.8025 H       1  UNL1        0.0618
     41 H          14.8691   -0.2167   -8.0591 H       1  UNL1        0.0618
     42 H          12.6350   -0.2082   -7.0438 H       1  UNL1        0.0636
@<TRIPOS>BOND
     1     1     2    1
     2     2     3    1
     3     3     4    1
     4     4     5    1
     5     5     6   am
     6     6     7    2
     7     6     8   am
     8     8     9    1
     9     9    10   am
    10    10    11    2
    11    10    12    1
    12    12    13    1
    13    13    14    1
    14    13    15    1
    15    15    16   ar
    16    16    17   ar
    17    17    18   ar
    18    18    19   ar
    19    19    20   ar
    20    15    20   ar
    21     1    21    1
    22     1    22    1
    23     1    23    1
    24     2    24    1
    25     2    25    1
    26     3    26    1
    27     3    27    1
    28     4    28    1
    29     4    29    1
    30     5    30    1
    31     8    31    1
    32     9    32    1
    33    12    33    1
    34    12    34    1
    35    14    35    1
    36    14    36    1
    37    14    37    1
    38    16    38    1
    39    17    39    1
    40    18    40    1
    41    19    41    1
    42    20    42    1
