REMARK  3 active torsions:
REMARK  status: ('A' for Active; 'I' for Inactive)
REMARK       I    between atoms: C_2  and  N_4 
REMARK    1  A    between atoms: N_4  and  C_5 
REMARK    2  A    between atoms: C_7  and  C_8 
REMARK       I    between atoms: C_8  and  N_10 
REMARK    3  A    between atoms: N_10  and  C_11 
ROOT
ATOM      1  C   UNL d   1       4.698  -0.786   0.829  0.00  0.00     0.041 A 
ATOM      2  C   UNL d   1       5.410   0.425   0.779  0.00  0.00     0.047 A 
ATOM      3  C   UNL d   1       6.805   0.455   0.795  0.00  0.00     0.034 A 
ATOM      4  C   UNL d   1       7.495  -0.765   0.867  0.00  0.00     0.018 A 
ATOM      5  C   UNL d   1       6.799  -1.980   0.926  0.00  0.00     0.010 A 
ATOM      6  C   UNL d   1       5.393  -2.006   0.919  0.00  0.00    -0.035 A 
ATOM      7  C   UNL d   1       4.690  -3.335   0.902  0.00  0.00     0.050 C 
ENDROOT
BRANCH   3   8
ATOM      8  C   UNL d   1       7.588   1.728   0.708  0.00  0.00     0.257 C 
ATOM      9  O   UNL d   1       8.820   1.639   0.694  0.00  0.00    -0.267 OA
ATOM     10  N   UNL d   1       6.905   2.937   0.693  0.00  0.00    -0.307 N 
ATOM     11  H   UNL d   1       5.946   3.001   0.998  0.00  0.00     0.170 HD
BRANCH  10  12
ATOM     12  C   UNL d   1       7.566   4.175   0.625  0.00  0.00     0.130 A 
ATOM     13  C   UNL d   1       8.653   4.339  -0.227  0.00  0.00     0.052 A 
ATOM     14  C   UNL d   1       9.331   5.555  -0.255  0.00  0.00     0.029 A 
ATOM     15  C   UNL d   1       8.914   6.573   0.586  0.00  0.00     0.051 A 
ATOM     16 CL   UNL d   1       9.760   8.065   0.627  0.00  0.00    -0.083 Cl
ATOM     17  C   UNL d   1       7.797   6.347   1.378  0.00  0.00     0.142 A 
ATOM     18  N   UNL d   1       7.084   5.183   1.386  0.00  0.00    -0.242 NA
ENDBRANCH  10  12
ENDBRANCH   3   8
BRANCH   1  19
ATOM     19  N   UNL d   1       3.280  -0.748   0.784  0.00  0.00    -0.327 N 
ATOM     20  C   UNL d   1       2.602   0.092  -0.089  0.00  0.00     0.218 C 
ATOM     21  C   UNL d   1       1.100  -0.001  -0.030  0.00  0.00     0.117 C 
ATOM     22  O   UNL d   1       3.140   0.853  -0.892  0.00  0.00    -0.274 OA
ATOM     23  H   UNL d   1       2.772  -1.514   1.208  0.00  0.00     0.169 HD
ENDBRANCH   1  19
TORSDOF 3
