@<TRIPOS>MOLECULE
*****
 29 29 0 0 0
SMALL
GASTEIGER

@<TRIPOS>ATOM
      1 C           3.1973   -0.4308    1.2884 C.3     1  UNL1       -0.0526
      2 C           2.5979   -0.0968   -0.0758 C.3     1  UNL1        0.0493
      3 C           1.0534   -0.0175   -0.0581 C.3     1  UNL1        0.0200
      4 N           0.4376   -0.4411    1.1976 N.pl3   1  UNL1       -0.3420
      5 C          -0.9249   -0.6092    1.3863 C.ar    1  UNL1        0.0457
      6 C          -1.4490   -0.1632    2.6183 C.ar    1  UNL1       -0.0394
      7 C          -2.8159   -0.2279    2.8998 C.ar    1  UNL1       -0.0599
      8 C          -3.6910   -0.7428    1.9523 C.ar    1  UNL1       -0.0603
      9 C          -3.1971   -1.2075    0.7388 C.ar    1  UNL1       -0.0416
     10 C          -1.8303   -1.1523    0.4560 C.ar    1  UNL1        0.0617
     11 CL         -1.3681   -1.9296   -1.0203 Cl      1  UNL1       -0.0816
     12 C           3.0768   -1.0972   -1.1393 C.2     1  UNL1        0.2306
     13 O           2.3247   -1.7469   -1.8724 O.2     1  UNL1       -0.2742
     14 N           4.4568   -1.2244   -1.2546 N.am    1  UNL1       -0.2533
     15 N           4.9846   -2.0797   -2.2517 N.3     1  UNL1       -0.2544
     16 H           4.2883   -0.4022    1.2862 H       1  UNL1        0.0237
     17 H           2.9032   -1.4426    1.5924 H       1  UNL1        0.0237
     18 H           2.8570    0.2842    2.0464 H       1  UNL1        0.0237
     19 H           2.9702    0.8885   -0.3928 H       1  UNL1        0.0407
     20 H           0.7488    1.0203   -0.2465 H       1  UNL1        0.0468
     21 H           0.6609   -0.5752   -0.8982 H       1  UNL1        0.0468
     22 H           1.0043   -0.7031    1.9931 H       1  UNL1        0.1461
     23 H          -0.7870    0.2664    3.3695 H       1  UNL1        0.0636
     24 H          -3.1957    0.1324    3.8523 H       1  UNL1        0.0618
     25 H          -4.7559   -0.7962    2.1541 H       1  UNL1        0.0618
     26 H          -3.8759   -1.6358    0.0070 H       1  UNL1        0.0633
     27 H           5.0903   -0.6018   -0.7589 H       1  UNL1        0.1687
     28 H           4.1752   -2.5257   -2.7143 H       1  UNL1        0.1405
     29 H           5.4644   -2.8566   -1.7916 H       1  UNL1        0.1405
@<TRIPOS>BOND
     1     3     4    1
     2     4     5    1
     3     5     6   ar
     4     6     7   ar
     5     7     8   ar
     6     8     9   ar
     7     9    10   ar
     8     5    10   ar
     9    10    11    1
    10     2    12    1
    11    12    13    2
    12    12    14   am
    13    14    15    1
    14     2     3    1
    15     2     1    1
    16     1    16    1
    17     1    17    1
    18     1    18    1
    19     2    19    1
    20     3    20    1
    21     3    21    1
    22     4    22    1
    23     6    23    1
    24     7    24    1
    25     8    25    1
    26     9    26    1
    27    14    27    1
    28    15    28    1
    29    15    29    1
