REMARK  9 active torsions:
REMARK  status: ('A' for Active; 'I' for Inactive)
REMARK    1  A    between atoms: O_2  and  C_3 
REMARK    2  A    between atoms: C_13  and  C_12 
REMARK    3  A    between atoms: C_13  and  N_21 
REMARK    4  A    between atoms: C_13  and  C_14 
REMARK       I    between atoms: C_14  and  N_16 
REMARK    5  A    between atoms: N_16  and  C_17 
REMARK       I    between atoms: N_21  and  C_22 
REMARK    6  A    between atoms: N_21  and  C_32 
REMARK    7  A    between atoms: C_22  and  C_24 
REMARK    8  A    between atoms: C_28  and  O_29 
REMARK    9  A    between atoms: C_30  and  O_31 
ROOT
ATOM      1  C   UNL d   1       4.702  -1.032   1.157  0.00  0.00     0.222 C 
ENDROOT
BRANCH   1   2
ATOM      2  N   UNL d   1       3.658  -0.096   1.693  0.00  0.00    -0.295 N 
ATOM      3  C   UNL d   1       2.431   0.283   1.035  0.00  0.00     0.262 C 
ATOM      4  O   UNL d   1       1.760   1.247   1.433  0.00  0.00    -0.267 OA
BRANCH   3   5
ATOM      5  C   UNL d   1       1.805  -0.343  -0.178  0.00  0.00     0.068 A 
ATOM      6  C   UNL d   1       1.509  -1.715  -0.265  0.00  0.00     0.020 A 
ATOM      7  C   UNL d   1       0.877  -2.249  -1.429  0.00  0.00     0.004 A 
ATOM      8  C   UNL d   1       0.562  -1.416  -2.545  0.00  0.00     0.039 A 
ATOM      9  C   UNL d   1       0.859  -0.049  -2.461  0.00  0.00     0.099 A 
ATOM     10  C   UNL d   1       1.440   0.482  -1.279  0.00  0.00     0.114 A 
BRANCH   9  11
ATOM     11  O   UNL d   1       0.884   0.749  -3.587  0.00  0.00    -0.358 OA
ATOM     12  H   UNL d   1       0.897   0.199  -4.394  0.00  0.00     0.217 HD
ENDBRANCH   9  11
BRANCH  10  13
ATOM     13  O   UNL d   1       1.857   1.796  -1.311  0.00  0.00    -0.357 OA
ATOM     14  H   UNL d   1       1.451   2.194  -2.105  0.00  0.00     0.217 HD
ENDBRANCH  10  13
ENDBRANCH   3   5
BRANCH   2  15
ATOM     15  C   UNL d   1       3.913   0.504   3.033  0.00  0.00     0.038 C 
ATOM     16  C   UNL d   1       2.847   0.879   3.854  0.00  0.00     0.030 C 
ATOM     17  C   UNL d   1       3.026   1.727   4.958  0.00  0.00     0.002 C 
ATOM     18  C   UNL d   1       4.293   2.162   5.327  0.00  0.00     0.000 C 
ATOM     19  C   UNL d   1       5.381   1.711   4.612  0.00  0.00     0.002 C 
ATOM     20  C   UNL d   1       5.185   0.844   3.531  0.00  0.00     0.030 C 
ENDBRANCH   2  15
ENDBRANCH   1   2
BRANCH   1  21
ATOM     21  C   UNL d   1       4.551  -1.659  -0.230  0.00  0.00     0.246 C 
ATOM     22  O   UNL d   1       4.467  -2.901  -0.341  0.00  0.00    -0.271 OA
ATOM     23  N   UNL d   1       4.620  -0.786  -1.304  0.00  0.00    -0.351 N 
ATOM     24  H   UNL d   1       4.452   0.195  -1.086  0.00  0.00     0.163 HD
BRANCH  23  25
ATOM     25  C   UNL d   1       4.458  -1.210  -2.704  0.00  0.00     0.022 C 
ATOM     26  C   UNL d   1       5.532  -2.124  -3.213  0.00  0.00     0.037 C 
ATOM     27  C   UNL d   1       3.301  -2.141  -2.805  0.00  0.00     0.037 C 
ATOM     28  C   UNL d   1       4.152   0.017  -3.594  0.00  0.00     0.037 C 
ENDBRANCH  23  25
ENDBRANCH   1  21
BRANCH   1  29
ATOM     29  C   UNL d   1       6.180  -0.602   1.137  0.00  0.00     0.019 A 
ATOM     30  C   UNL d   1       6.618   0.728   0.813  0.00  0.00    -0.014 A 
ATOM     31  C   UNL d   1       5.764   1.838   0.550  0.00  0.00     0.013 A 
ATOM     32  C   UNL d   1       8.005   0.986   0.851  0.00  0.00    -0.025 A 
ATOM     33  C   UNL d   1       6.246   3.129   0.355  0.00  0.00     0.001 A 
ATOM     34  C   UNL d   1       7.610   3.351   0.378  0.00  0.00     0.001 A 
ATOM     35  C   UNL d   1       8.480   2.288   0.619  0.00  0.00     0.012 A 
ATOM     36  C   UNL d   1       8.908  -0.051   1.145  0.00  0.00     0.015 A 
ATOM     37  C   UNL d   1       8.480  -1.355   1.383  0.00  0.00     0.038 A 
ATOM     38  C   UNL d   1       7.126  -1.635   1.386  0.00  0.00     0.077 A 
BRANCH  38  39
ATOM     39  O   UNL d   1       6.642  -2.913   1.490  0.00  0.00    -0.355 OA
ATOM     40  C   UNL d   1       7.236  -3.760   2.462  0.00  0.00     0.210 C 
ENDBRANCH  38  39
ENDBRANCH   1  29
TORSDOF 9
