@<TRIPOS>MOLECULE
*****
 56 59 0 0 0
SMALL
GASTEIGER

@<TRIPOS>ATOM
      1 O           1.1762    0.1681    0.5020 O.2     1  UNL1       -0.2518
      2 C           2.3599    0.0268    0.1691 C.2     1  UNL1        0.3135
      3 N           3.1125    1.0986   -0.2448 N.am    1  UNL1       -0.2685
      4 C           4.1509    0.9633   -1.1694 C.ar    1  UNL1        0.0428
      5 C           4.7540    2.0962   -1.7325 C.ar    1  UNL1       -0.0400
      6 C           5.7091    1.9518   -2.7444 C.ar    1  UNL1       -0.0600
      7 C           6.0301    0.6888   -3.2161 C.ar    1  UNL1       -0.0612
      8 C           5.3924   -0.4221   -2.6792 C.ar    1  UNL1       -0.0519
      9 C           4.4878   -0.3158   -1.6060 C.ar    1  UNL1        0.0332
     10 C           3.8445   -1.5421   -0.9458 C.3     1  UNL1        0.2470
     11 O           2.8595   -2.0485   -1.8692 O.3     1  UNL1       -0.3602
     12 C           4.9426   -2.7155   -0.8853 C.2     1  UNL1        0.2692
     13 O           5.6396   -3.0795   -1.8382 O.2     1  UNL1       -0.2703
     14 N           5.1528   -3.3202    0.3156 N.am    1  UNL1       -0.3112
     15 C           6.3632   -4.0222    0.5848 C.3     1  UNL1        0.0129
     16 C           6.4394   -4.3279    2.0643 C.3     1  UNL1       -0.0246
     17 C           7.7042   -5.0656    2.3055 C.3     1  UNL1        0.0005
     18 N           7.7968   -5.6801    3.6390 N.3     1  UNL1       -0.2979
     19 C           8.9530   -5.1751    4.4380 C.3     1  UNL1        0.0224
     20 C          10.3098   -5.3556    3.7264 C.3     1  UNL1        0.0604
     21 O          10.5162   -6.7228    3.3227 O.3     1  UNL1       -0.3772
     22 C           9.4119   -7.2116    2.5501 C.3     1  UNL1        0.0604
     23 C           8.0910   -7.1069    3.3564 C.3     1  UNL1        0.0224
     24 N           3.0561   -1.1695    0.2496 N.am    1  UNL1       -0.2144
     25 C           3.2604   -1.6785    1.5759 C.ar    1  UNL1        0.0427
     26 C           2.2426   -2.4231    2.1846 C.ar    1  UNL1       -0.0386
     27 C           2.4843   -3.1290    3.3766 C.ar    1  UNL1       -0.0402
     28 C           3.6896   -2.9758    4.0642 C.ar    1  UNL1        0.0594
     29 CL          3.9177   -3.8713    5.5251 Cl      1  UNL1       -0.0820
     30 C           4.6618   -2.1188    3.5449 C.ar    1  UNL1        0.0610
     31 CL          6.1374   -1.7908    4.4092 Cl      1  UNL1       -0.0820
     32 C           4.4768   -1.5336    2.2716 C.ar    1  UNL1       -0.0203
     33 H           2.7604    2.0174   -0.0060 H       1  UNL1        0.1564
     34 H           4.4816    3.0997   -1.4181 H       1  UNL1        0.0636
     35 H           6.1891    2.8192   -3.1893 H       1  UNL1        0.0618
     36 H           6.7682    0.5464   -4.0021 H       1  UNL1        0.0618
     37 H           5.6341   -1.3814   -3.1276 H       1  UNL1        0.0622
     38 H           2.2670   -1.3072   -2.0773 H       1  UNL1        0.2129
     39 H           4.3380   -3.5564    0.8614 H       1  UNL1        0.1488
     40 H           7.2090   -3.3819    0.2950 H       1  UNL1        0.0462
     41 H           6.3886   -4.9216   -0.0362 H       1  UNL1        0.0462
     42 H           5.5580   -4.8808    2.4081 H       1  UNL1        0.0293
     43 H           6.5335   -3.4032    2.6023 H       1  UNL1        0.0293
     44 H           8.5485   -4.4169    2.0595 H       1  UNL1        0.0427
     45 H           7.6550   -5.8352    1.5287 H       1  UNL1        0.0427
     46 H           8.9908   -5.7450    5.3797 H       1  UNL1        0.0449
     47 H           8.8051   -4.1294    4.7361 H       1  UNL1        0.0449
     48 H          11.1321   -5.0797    4.3935 H       1  UNL1        0.0572
     49 H          10.3924   -4.6956    2.8551 H       1  UNL1        0.0572
     50 H           9.5811   -8.2446    2.2468 H       1  UNL1        0.0572
     51 H           9.4049   -6.6413    1.6107 H       1  UNL1        0.0572
     52 H           8.1486   -7.6704    4.2936 H       1  UNL1        0.0449
     53 H           7.2405   -7.5223    2.7981 H       1  UNL1        0.0449
     54 H           1.2659   -2.5092    1.7121 H       1  UNL1        0.0637
     55 H           1.7206   -3.7974    3.7708 H       1  UNL1        0.0633
     56 H           5.3302   -1.0588    1.7891 H       1  UNL1        0.0651
@<TRIPOS>BOND
     1     1     2    2
     2     2     3   am
     3     3     4    1
     4     4     5   ar
     5     5     6   ar
     6     6     7   ar
     7     7     8   ar
     8     8     9   ar
     9     4     9   ar
    10     9    10    1
    11    12    13    2
    12    12    14   am
    13    14    15    1
    14    15    16    1
    15    16    17    1
    16    17    18    1
    17    18    19    1
    18    19    20    1
    19    20    21    1
    20    21    22    1
    21    22    23    1
    22    18    23    1
    23    10    24    1
    24     2    24   am
    25    24    25    1
    26    25    26   ar
    27    26    27   ar
    28    27    28   ar
    29    28    29    1
    30    28    30   ar
    31    30    31    1
    32    30    32   ar
    33    25    32   ar
    34    10    12    1
    35    10    11    1
    36     3    33    1
    37     5    34    1
    38     6    35    1
    39     7    36    1
    40     8    37    1
    41    11    38    1
    42    14    39    1
    43    15    40    1
    44    15    41    1
    45    16    42    1
    46    16    43    1
    47    17    44    1
    48    17    45    1
    49    19    46    1
    50    19    47    1
    51    20    48    1
    52    20    49    1
    53    22    50    1
    54    22    51    1
    55    23    52    1
    56    23    53    1
    57    26    54    1
    58    27    55    1
    59    32    56    1
