@<TRIPOS>MOLECULE
*****
 67 70 0 0 0
SMALL
GASTEIGER

@<TRIPOS>ATOM
      1 C           1.0164    0.0372    0.0713 C.3     1  UNL1       -0.0307
      2 C           2.5362   -0.0132    0.1145 C.3     1  UNL1        0.0868
      3 O           2.9512   -0.0304    1.4923 O.3     1  UNL1       -0.4922
      4 C           4.2722    0.1991    1.7534 C.ar    1  UNL1        0.1207
      5 C           4.8787   -0.3638    2.8786 C.ar    1  UNL1       -0.0167
      6 C           6.2497   -0.0986    3.2075 C.ar    1  UNL1       -0.0197
      7 C           6.9968    0.8177    2.4750 C.ar    1  UNL1        0.1000
      8 N           8.4249    0.9680    2.5070 N.pl3   1  UNL1       -0.2450
      9 C           9.2707    1.5962    1.5645 C.2     1  UNL1        0.3842
     10 N           9.0055    2.1689    0.4216 N.am    1  UNL1        0.0006
     11 C           7.9157    1.7098   -0.2703 C.2     1  UNL1        0.3406
     12 O           7.6975    0.5316   -0.4496 O.2     1  UNL1       -0.2484
     13 C           7.1760    2.6863   -1.1286 C.ar    1  UNL1        0.0579
     14 C           6.0412    3.4757   -0.8962 C.ar    1  UNL1       -0.0480
     15 C           5.3326    3.9810   -1.9806 C.ar    1  UNL1       -0.0592
     16 C           5.8321    3.7954   -3.2696 C.ar    1  UNL1       -0.0406
     17 C           6.9797    3.0279   -3.5244 C.ar    1  UNL1        0.0300
     18 N           7.4953    2.7655   -4.7715 N.pl3   1  UNL1       -0.3360
     19 C           6.9125    3.3304   -5.9720 C.3     1  UNL1        0.0004
     20 C           8.6348    1.8686   -4.9792 C.3     1  UNL1        0.0004
     21 C           7.6009    2.4836   -2.4175 C.ar    1  UNL1       -0.0270
     22 N          10.6372    1.6239    1.8876 N.pl3   1  UNL1       -0.2767
     23 C          11.6024    2.1270    0.8729 C.3     1  UNL1        0.0684
     24 C          13.0676    2.0282    1.2809 C.3     1  UNL1        0.0059
     25 C          14.0954    2.6569    0.3646 C.2     1  UNL1        0.0106
     26 C          15.3866    2.6722    0.7056 C.ar    1  UNL1        0.0510
     27 C          16.0478    2.1675    1.8553 C.ar    1  UNL1       -0.0482
     28 C          17.3403    2.4626    2.0251 C.ar    1  UNL1       -0.0608
     29 C          18.0938    3.1679    1.0003 C.ar    1  UNL1       -0.0555
     30 C          17.5509    3.6303   -0.1464 C.ar    1  UNL1        0.0098
     31 C          16.1017    3.4049   -0.3470 C.ar    1  UNL1        0.2086
     32 N          15.3135    3.7497   -1.2936 N.2     1  UNL1       -0.2369
     33 C          13.9040    3.3607   -0.9568 C.3     1  UNL1        0.1661
     34 C           6.2020    1.5873    1.6529 C.ar    1  UNL1       -0.0197
     35 C           4.9978    1.1421    1.0887 C.ar    1  UNL1       -0.0167
     36 H           0.6452   -0.1197   -0.9469 H       1  UNL1        0.0262
     37 H           0.6530    1.0112    0.4196 H       1  UNL1        0.0262
     38 H           0.5887   -0.7215    0.7316 H       1  UNL1        0.0262
     39 H           2.8997    0.8406   -0.4699 H       1  UNL1        0.0694
     40 H           2.8901   -0.9375   -0.3515 H       1  UNL1        0.0694
     41 H           4.2890   -1.0329    3.4977 H       1  UNL1        0.0655
     42 H           6.6751   -0.5869    4.0766 H       1  UNL1        0.0653
     43 H           8.8625    0.3498    3.1739 H       1  UNL1        0.2646
     44 H           5.6040    3.6673    0.0778 H       1  UNL1        0.0626
     45 H           4.3788    4.4903   -1.8424 H       1  UNL1        0.0618
     46 H           5.2674    4.2707   -4.0626 H       1  UNL1        0.0636
     47 H           6.0442    3.9690   -5.8095 H       1  UNL1        0.0428
     48 H           6.5918    2.5248   -6.6367 H       1  UNL1        0.0428
     49 H           7.6625    3.9463   -6.4737 H       1  UNL1        0.0428
     50 H           9.0673    1.3961   -4.0953 H       1  UNL1        0.0428
     51 H           9.4607    2.4259   -5.4264 H       1  UNL1        0.0428
     52 H           8.3444    1.0329   -5.6192 H       1  UNL1        0.0428
     53 H           8.4329    1.8003   -2.4925 H       1  UNL1        0.0644
     54 H          10.9987    0.9667    2.5694 H       1  UNL1        0.2577
     55 H          11.3817    3.1856    0.7049 H       1  UNL1        0.0658
     56 H          11.4936    1.5971   -0.0839 H       1  UNL1        0.0658
     57 H          13.3405    0.9700    1.3962 H       1  UNL1        0.0343
     58 H          13.1808    2.4901    2.2710 H       1  UNL1        0.0343
     59 H          15.4896    1.5922    2.5851 H       1  UNL1        0.0626
     60 H          17.8395    2.1652    2.9436 H       1  UNL1        0.0618
     61 H          19.1572    3.2800    1.2067 H       1  UNL1        0.0620
     62 H          18.1611    4.1502   -0.8762 H       1  UNL1        0.0683
     63 H          15.6422    4.2198   -2.1376 H       1  UNL1        0.4459
     64 H          13.5245    2.7062   -1.7456 H       1  UNL1        0.1077
     65 H          13.3112    4.2778   -0.8798 H       1  UNL1        0.1077
     66 H           6.6013    2.5387    1.3535 H       1  UNL1        0.0653
     67 H           4.6331    1.5895    0.1739 H       1  UNL1        0.0655
@<TRIPOS>UNITY_ATOM_ATTR
32 1
charge 1
@<TRIPOS>BOND
     1     1     2    1
     2     2     3    1
     3     3     4    1
     4     4     5   ar
     5     5     6   ar
     6     6     7   ar
     7     7     8    1
     8     8     9    1
     9     9    10    2
    10    10    11    1
    11    11    12    2
    12    11    13    1
    13    13    14   ar
    14    14    15   ar
    15    15    16   ar
    16    16    17   ar
    17    17    18    1
    18    18    19    1
    19    18    20    1
    20    17    21   ar
    21    13    21   ar
    22     9    22    1
    23    22    23    1
    24    23    24    1
    25    24    25    1
    26    25    26    2
    27    26    27   ar
    28    27    28   ar
    29    28    29   ar
    30    29    30   ar
    31    30    31   ar
    32    26    31   ar
    33    31    32    2
    34    32    33    1
    35    25    33    1
    36     7    34   ar
    37    34    35   ar
    38     4    35   ar
    39     1    36    1
    40     1    37    1
    41     1    38    1
    42     2    39    1
    43     2    40    1
    44     5    41    1
    45     6    42    1
    46     8    43    1
    47    14    44    1
    48    15    45    1
    49    16    46    1
    50    19    47    1
    51    19    48    1
    52    19    49    1
    53    20    50    1
    54    20    51    1
    55    20    52    1
    56    21    53    1
    57    22    54    1
    58    23    55    1
    59    23    56    1
    60    24    57    1
    61    24    58    1
    62    27    59    1
    63    28    60    1
    64    29    61    1
    65    30    62    1
    66    32    63    1
    67    33    64    1
    68    33    65    1
    69    34    66    1
    70    35    67    1
