REMARK  12 active torsions:
REMARK  status: ('A' for Active; 'I' for Inactive)
REMARK    1  A    between atoms: C_2  and  C_3 
REMARK    2  A    between atoms: C_3  and  C_4 
REMARK    3  A    between atoms: N_17  and  C_3 
REMARK    4  A    between atoms: N_8  and  C_9 
REMARK    5  A    between atoms: C_9  and  C_10 
REMARK    6  A    between atoms: N_17  and  C_22 
REMARK    7  A    between atoms: N_17  and  C_18 
REMARK    8  A    between atoms: C_18  and  C_19 
REMARK    9  A    between atoms: C_19  and  C_20 
REMARK   10  A    between atoms: C_20  and  O_21 
REMARK   11  A    between atoms: C_22  and  C_23 
REMARK   12  A    between atoms: C_32  and  O_33 
ROOT
ATOM      1  N   UNL d   1       4.435  -1.844   0.452  0.00  0.00    -0.056 N 
ATOM      2  H   UNL d   1       4.671  -1.593  -0.516  0.00  0.00     0.281 HD
ENDROOT
BRANCH   1   3
ATOM      3  C   UNL d   1       5.075  -3.230   0.557  0.00  0.00     0.278 C 
BRANCH   3   4
ATOM      4  C   UNL d   1       6.593  -3.322   0.463  0.00  0.00     0.021 C 
ATOM      5  C   UNL d   1       7.404  -3.381   1.621  0.00  0.00     0.027 C 
ATOM      6  C   UNL d   1       8.803  -3.079   1.603  0.00  0.00    -0.004 C 
ATOM      7  C   UNL d   1       9.704  -2.855   2.739  0.00  0.00     0.053 C 
ATOM      8  C   UNL d   1       9.306  -3.023   0.328  0.00  0.00     0.072 C 
ATOM      9  C   UNL d   1      11.080  -2.835   2.479  0.00  0.00     0.105 C 
ATOM     10  C   UNL d   1      11.454  -3.418   1.328  0.00  0.00     0.107 C 
ATOM     11  O   UNL d   1      12.038  -1.808   2.676  0.00  0.00    -0.323 OA
ATOM     12  C   UNL d   1      10.672  -3.193   0.214  0.00  0.00     0.072 C 
ATOM     13  O   UNL d   1      12.808  -3.440   1.155  0.00  0.00    -0.323 OA
ATOM     14  C   UNL d   1      12.975  -2.088   1.553  0.00  0.00     0.352 C 
ATOM     15  N   UNL d   1       8.595  -2.990  -0.827  0.00  0.00    -0.224 NA
ATOM     16  C   UNL d   1       7.271  -3.205  -0.727  0.00  0.00     0.170 C 
BRANCH  16  17
ATOM     17  O   UNL d   1       6.597  -3.057  -1.909  0.00  0.00    -0.344 OA
ATOM     18  H   UNL d   1       7.289  -2.717  -2.514  0.00  0.00     0.219 HD
ENDBRANCH  16  17
ENDBRANCH   3   4
ENDBRANCH   1   3
BRANCH   1  19
ATOM     19  C   UNL d   1       2.952  -1.652   0.395  0.00  0.00     0.238 C 
BRANCH  19  20
ATOM     20  C   UNL d   1       2.407  -2.638  -0.585  0.00  0.00     0.054 C 
BRANCH  20  21
ATOM     21  C   UNL d   1       0.910  -2.574  -0.607  0.00  0.00     0.165 C 
BRANCH  21  22
ATOM     22  O   UNL d   1       0.465  -3.631  -1.428  0.00  0.00    -0.401 OA
ATOM     23  H   UNL d   1       0.810  -3.496  -2.329  0.00  0.00     0.209 HD
ENDBRANCH  21  22
ENDBRANCH  20  21
ENDBRANCH  19  20
ENDBRANCH   1  19
BRANCH   1  24
ATOM     24  C   UNL d   1       5.000  -0.794   1.348  0.00  0.00     0.259 C 
BRANCH  24  25
ATOM     25  C   UNL d   1       5.656   0.039   0.314  0.00  0.00     0.037 C 
ATOM     26  C   UNL d   1       6.782  -0.476  -0.513  0.00  0.00     0.007 C 
ENDBRANCH  24  25
BRANCH  24  27
ATOM     27  C   UNL d   1       5.772  -1.163   2.586  0.00  0.00     0.168 A 
ATOM     28  N   UNL d   1       5.335  -2.099   3.422  0.00  0.00    -0.145 NA
ATOM     29  N   UNL d   1       6.299  -2.276   4.367  0.00  0.00     0.018 NA
ATOM     30  N   UNL d   1       7.292  -1.424   4.181  0.00  0.00    -0.003 NA
ATOM     31  N   UNL d   1       6.973  -0.658   3.098  0.00  0.00    -0.257 N 
BRANCH  31  32
ATOM     32  C   UNL d   1       8.021   0.328   2.679  0.00  0.00     0.186 C 
BRANCH  32  33
ATOM     33  C   UNL d   1       7.654   1.587   1.841  0.00  0.00    -0.038 C 
ATOM     34  C   UNL d   1       6.431   2.281   2.092  0.00  0.00     0.012 C 
ATOM     35  C   UNL d   1       5.732   2.891   1.006  0.00  0.00     0.043 C 
ATOM     36  C   UNL d   1       6.300   2.951  -0.273  0.00  0.00     0.116 C 
ATOM     37  F   UNL d   1       5.505   3.189  -1.331  0.00  0.00    -0.206 F 
ATOM     38  C   UNL d   1       7.578   2.444  -0.492  0.00  0.00     0.043 C 
ATOM     39  C   UNL d   1       8.265   1.768   0.558  0.00  0.00     0.012 C 
ENDBRANCH  32  33
ENDBRANCH  31  32
ENDBRANCH  24  27
ENDBRANCH   1  24
TORSDOF 12
