@<TRIPOS>MOLECULE
*****
 65 68 0 0 0
SMALL
GASTEIGER

@<TRIPOS>ATOM
      1 O           1.0248    0.1260   -0.1620 O.2     1  UNL1       -0.2738
      2 C           2.2544    0.0653   -0.0774 C.2     1  UNL1        0.2343
      3 C           2.9659   -0.7906    0.9899 C.3     1  UNL1        0.0861
      4 N           2.0535   -1.6041    1.7717 N.pl3   1  UNL1       -0.3354
      5 C           2.4565   -2.3293    2.8746 C.ar    1  UNL1        0.0275
      6 C           1.7673   -3.4979    3.2018 C.ar    1  UNL1       -0.0401
      7 C           2.0615   -4.2144    4.3719 C.ar    1  UNL1       -0.0479
      8 C           3.1251   -3.8350    5.2029 C.ar    1  UNL1        0.0368
      9 C           3.4434   -4.6915    6.3989 C.2     1  UNL1        0.2444
     10 O           2.7503   -5.6773    6.6515 O.2     1  UNL1       -0.2702
     11 N           4.5333   -4.3525    7.1701 N.am    1  UNL1       -0.3042
     12 C           4.9490   -5.1443    8.3224 C.3     1  UNL1        0.0700
     13 C           6.0747   -4.4413    9.0030 C.ar    1  UNL1        0.1218
     14 C           6.2999   -3.1033    9.2586 C.ar    1  UNL1       -0.0192
     15 C           7.5308   -3.0155    9.9414 C.ar    1  UNL1       -0.0236
     16 C           7.9792   -4.3074   10.0856 C.ar    1  UNL1        0.0921
     17 O           7.1040   -5.1838    9.5151 O.2     1  UNL1       -0.4662
     18 C           3.8605   -2.7005    4.8443 C.ar    1  UNL1       -0.0479
     19 C           3.5435   -1.9783    3.6802 C.ar    1  UNL1       -0.0401
     20 N           3.0315    0.8726   -0.8887 N.am    1  UNL1       -0.2842
     21 C           4.4297    0.8662   -1.0163 C.ar    1  UNL1        0.0335
     22 C           5.1229    2.0565   -1.2199 C.ar    1  UNL1       -0.0398
     23 C           6.5174    2.0229   -1.3710 C.ar    1  UNL1       -0.0479
     24 C           7.2339    0.8134   -1.2627 C.ar    1  UNL1        0.0368
     25 C           8.7180    0.8460   -1.3189 C.2     1  UNL1        0.2443
     26 O           9.2427    1.9306   -1.5784 O.2     1  UNL1       -0.2702
     27 N           9.4289   -0.3118   -1.0343 N.am    1  UNL1       -0.3085
     28 C          10.8960   -0.3668   -1.0175 C.3     1  UNL1        0.0234
     29 C          11.4844    0.8227   -0.2467 C.3     1  UNL1       -0.0345
     30 C          12.9934    0.7686   -0.1176 C.3     1  UNL1       -0.0514
     31 C          13.4423   -0.5267    0.5301 C.3     1  UNL1       -0.0529
     32 C          12.9176   -1.7259   -0.2521 C.3     1  UNL1       -0.0514
     33 C          11.3920   -1.6887   -0.3901 C.3     1  UNL1       -0.0345
     34 C           6.5281   -0.3685   -1.0925 C.ar    1  UNL1       -0.0479
     35 C           5.1413   -0.3336   -1.0164 C.ar    1  UNL1       -0.0398
     36 H           3.5637   -0.1143    1.6089 H       1  UNL1        0.0557
     37 H           3.6015   -1.5232    0.5076 H       1  UNL1        0.0557
     38 H           1.0603   -1.4311    1.6321 H       1  UNL1        0.1466
     39 H           0.9996   -3.8738    2.5275 H       1  UNL1        0.0636
     40 H           1.4413   -5.0713    4.6279 H       1  UNL1        0.0626
     41 H           5.1154   -3.5707    6.9207 H       1  UNL1        0.1495
     42 H           5.2217   -6.1498    7.9844 H       1  UNL1        0.0543
     43 H           4.0988   -5.2269    9.0079 H       1  UNL1        0.0543
     44 H           5.6381   -2.2989    8.9747 H       1  UNL1        0.0652
     45 H           8.0221   -2.1195   10.2935 H       1  UNL1        0.0649
     46 H           8.8576   -4.7395   10.5478 H       1  UNL1        0.1029
     47 H           4.6747   -2.3255    5.4522 H       1  UNL1        0.0626
     48 H           4.1439   -1.1025    3.4518 H       1  UNL1        0.0636
     49 H           2.5057    1.5590   -1.4204 H       1  UNL1        0.1549
     50 H           4.6164    3.0199   -1.2154 H       1  UNL1        0.0636
     51 H           7.0527    2.9534   -1.5634 H       1  UNL1        0.0626
     52 H           8.9500   -1.1966   -0.9597 H       1  UNL1        0.1493
     53 H          11.2238   -0.3330   -2.0646 H       1  UNL1        0.0498
     54 H          11.0198    0.8723    0.7465 H       1  UNL1        0.0283
     55 H          11.2625    1.7642   -0.7504 H       1  UNL1        0.0283
     56 H          13.3296    1.6268    0.4736 H       1  UNL1        0.0266
     57 H          13.4433    0.8648   -1.1133 H       1  UNL1        0.0266
     58 H          13.0755   -0.5671    1.5632 H       1  UNL1        0.0265
     59 H          14.5362   -0.5505    0.5729 H       1  UNL1        0.0265
     60 H          13.2282   -2.6495    0.2491 H       1  UNL1        0.0266
     61 H          13.3724   -1.7338   -1.2504 H       1  UNL1        0.0266
     62 H          10.9423   -1.8182    0.6038 H       1  UNL1        0.0283
     63 H          11.0629   -2.5475   -0.9889 H       1  UNL1        0.0283
     64 H           7.0043   -1.3387   -1.0490 H       1  UNL1        0.0626
     65 H           4.6360   -1.2909   -1.0248 H       1  UNL1        0.0636
@<TRIPOS>BOND
     1     1     2    2
     2     2     3    1
     3     3     4    1
     4     4     5    1
     5     5     6   ar
     6     6     7   ar
     7     7     8   ar
     8     8     9    1
     9     9    10    2
    10     9    11   am
    11    11    12    1
    12    12    13    1
    13    13    14   ar
    14    14    15   ar
    15    15    16   ar
    16    16    17   ar
    17    13    17   ar
    18     8    18   ar
    19    18    19   ar
    20     5    19   ar
    21     2    20   am
    22    20    21    1
    23    21    22   ar
    24    22    23   ar
    25    23    24   ar
    26    24    25    1
    27    25    26    2
    28    25    27   am
    29    27    28    1
    30    28    29    1
    31    29    30    1
    32    30    31    1
    33    31    32    1
    34    32    33    1
    35    28    33    1
    36    24    34   ar
    37    34    35   ar
    38    21    35   ar
    39     3    36    1
    40     3    37    1
    41     4    38    1
    42     6    39    1
    43     7    40    1
    44    11    41    1
    45    12    42    1
    46    12    43    1
    47    14    44    1
    48    15    45    1
    49    16    46    1
    50    18    47    1
    51    19    48    1
    52    20    49    1
    53    22    50    1
    54    23    51    1
    55    27    52    1
    56    28    53    1
    57    29    54    1
    58    29    55    1
    59    30    56    1
    60    30    57    1
    61    31    58    1
    62    31    59    1
    63    32    60    1
    64    32    61    1
    65    33    62    1
    66    33    63    1
    67    34    64    1
    68    35    65    1
