@<TRIPOS>MOLECULE
*****
 69 72 0 0 0
SMALL
GASTEIGER

@<TRIPOS>ATOM
      1 C           1.0255    0.5730    0.0259 C.3     1  UNL1        0.0790
      2 O           2.3844    0.1472   -0.0291 O.3     1  UNL1       -0.4915
      3 C           2.9277   -0.7776    0.8352 C.ar    1  UNL1        0.1615
      4 C           4.1583   -0.3453    1.3860 C.ar    1  UNL1       -0.0160
      5 C           5.0533   -1.2268    2.0242 C.ar    1  UNL1       -0.0548
      6 C           4.7023   -2.5591    2.2229 C.ar    1  UNL1       -0.0422
      7 C           5.5861   -3.4884    3.0281 C.3     1  UNL1       -0.0119
      8 C           5.0009   -4.8957    3.2049 C.3     1  UNL1        0.0156
      9 N           5.8214   -5.7745    4.0082 N.am    1  UNL1       -0.3143
     10 C           5.3720   -7.0824    4.2274 C.2     1  UNL1        0.2233
     11 O           4.3696   -7.4999    3.7564 O.2     1  UNL1       -0.2749
     12 C           6.3502   -7.8800    5.1339 C.3     1  UNL1        0.0776
     13 S           5.5013   -9.3442    5.5834 S.3     1  UNL1       -0.0763
     14 C           6.5064  -10.5309    6.2727 C.ar    1  UNL1        0.1967
     15 N           7.5189  -10.4519    7.1016 N.ar    1  UNL1       -0.1219
     16 N           7.8107  -11.7114    7.5459 N.ar    1  UNL1       -0.1276
     17 C           6.9803  -12.5797    6.9777 C.ar    1  UNL1        0.1838
     18 C           7.2064  -14.0731    7.3136 C.3     1  UNL1        0.0297
     19 N           6.3231  -14.9514    6.5688 N.4     1  UNL1        0.2407
     20 C           4.9419  -14.5936    7.1376 C.3     1  UNL1       -0.0315
     21 C           3.9646  -15.1654    6.1903 C.3     1  UNL1       -0.0123
     22 C           4.5644  -14.8489    4.8767 C.3     1  UNL1       -0.0434
     23 C           5.6917  -15.4271    4.1835 C.3     1  UNL1       -0.0123
     24 C           6.7816  -14.8733    5.0509 C.3     1  UNL1       -0.0315
     25 N           5.9898  -11.8107    6.1291 N.ar    1  UNL1       -0.2699
     26 C           4.7305  -12.0296    5.0448 C.ar    1  UNL1        0.0504
     27 C           3.3121  -12.5008    5.3941 C.ar    1  UNL1       -0.0377
     28 C           2.4023  -13.3361    4.3734 C.ar    1  UNL1       -0.0598
     29 C           2.8909  -13.5909    2.9615 C.ar    1  UNL1       -0.0616
     30 C           4.2358  -12.9881    2.6061 C.ar    1  UNL1       -0.0598
     31 C           5.1130  -12.2112    3.6157 C.ar    1  UNL1       -0.0377
     32 C           3.4806   -2.9804    1.6923 C.ar    1  UNL1       -0.0131
     33 C           2.5918   -2.1313    1.0100 C.ar    1  UNL1        0.1617
     34 O           1.5252   -2.8937    0.5994 O.3     1  UNL1       -0.4914
     35 C           0.4985   -2.1774   -0.0098 C.3     1  UNL1        0.0790
     36 H           0.9148    1.4964   -0.5467 H       1  UNL1        0.0660
     37 H           0.6534    0.6902    1.0462 H       1  UNL1        0.0660
     38 H           0.3495   -0.0486   -0.5578 H       1  UNL1        0.0660
     39 H           4.4468    0.7021    1.3020 H       1  UNL1        0.0655
     40 H           6.0288   -0.8640    2.3457 H       1  UNL1        0.0621
     41 H           5.7261   -3.0454    4.0229 H       1  UNL1        0.0328
     42 H           6.5764   -3.5597    2.5621 H       1  UNL1        0.0328
     43 H           4.8665   -5.3753    2.2277 H       1  UNL1        0.0465
     44 H           4.0155   -4.8387    3.6863 H       1  UNL1        0.0465
     45 H           6.6737   -5.4444    4.4168 H       1  UNL1        0.1487
     46 H           6.5031   -7.3542    6.0725 H       1  UNL1        0.0475
     47 H           7.2868   -8.0553    4.6012 H       1  UNL1        0.0475
     48 H           7.0207  -14.3067    8.3756 H       1  UNL1        0.0898
     49 H           8.2161  -14.4585    7.1123 H       1  UNL1        0.0898
     50 H           6.3791  -15.9514    6.7672 H       1  UNL1        0.2038
     51 H           4.8550  -13.5051    7.2931 H       1  UNL1        0.0814
     52 H           4.7968  -14.9850    8.1418 H       1  UNL1        0.0814
     53 H           2.9917  -14.7478    6.4902 H       1  UNL1        0.0317
     54 H           3.8479  -16.2288    6.2074 H       1  UNL1        0.0317
     55 H           5.0164  -13.9186    5.0385 H       1  UNL1        0.0269
     56 H           3.9631  -14.4452    4.1699 H       1  UNL1        0.0269
     57 H           5.8163  -15.0678    3.1415 H       1  UNL1        0.0317
     58 H           5.4460  -16.4714    4.1560 H       1  UNL1        0.0317
     59 H           7.0138  -13.8139    4.8157 H       1  UNL1        0.0814
     60 H           7.6844  -15.4376    4.8928 H       1  UNL1        0.0814
     61 H           3.0392  -12.5801    6.4772 H       1  UNL1        0.0638
     62 H           1.8497  -14.2560    4.8283 H       1  UNL1        0.0618
     63 H           2.6771  -14.6484    2.5268 H       1  UNL1        0.0618
     64 H           4.7766  -13.3963    1.7042 H       1  UNL1        0.0618
     65 H           6.1711  -12.0001    3.3340 H       1  UNL1        0.0638
     66 H           3.1720   -4.0220    1.7656 H       1  UNL1        0.0658
     67 H          -0.3615   -2.7761   -0.3066 H       1  UNL1        0.0660
     68 H           0.9141   -1.7722   -0.9371 H       1  UNL1        0.0660
     69 H           0.1084   -1.4798    0.7381 H       1  UNL1        0.0660
@<TRIPOS>UNITY_ATOM_ATTR
19 1
charge 1
@<TRIPOS>BOND
     1     1     2    1
     2     2     3    1
     3     3     4   ar
     4     4     5   ar
     5     5     6   ar
     6     6     7    1
     7     7     8    1
     8     8     9    1
     9     9    10   am
    10    10    11    2
    11    10    12    1
    12    12    13    1
    13    13    14    1
    14    14    15   ar
    15    15    16   ar
    16    16    17   ar
    17    17    18    1
    18    18    19    1
    19    19    20    1
    20    20    21    1
    21    21    22    1
    22    22    23    1
    23    23    24    1
    24    19    24    1
    25    17    25   ar
    26    14    25   ar
    27    25    26    1
    28    26    27   ar
    29    27    28   ar
    30    28    29   ar
    31    29    30   ar
    32    30    31   ar
    33    26    31   ar
    34     6    32   ar
    35    32    33   ar
    36     3    33   ar
    37    33    34    1
    38    34    35    1
    39     1    36    1
    40     1    37    1
    41     1    38    1
    42     4    39    1
    43     5    40    1
    44     7    41    1
    45     7    42    1
    46     8    43    1
    47     8    44    1
    48     9    45    1
    49    12    46    1
    50    12    47    1
    51    18    48    1
    52    18    49    1
    53    19    50    1
    54    20    51    1
    55    20    52    1
    56    21    53    1
    57    21    54    1
    58    22    55    1
    59    22    56    1
    60    23    57    1
    61    23    58    1
    62    24    59    1
    63    24    60    1
    64    27    61    1
    65    28    62    1
    66    29    63    1
    67    30    64    1
    68    31    65    1
    69    32    66    1
    70    35    67    1
    71    35    68    1
    72    35    69    1
