REMARK  8 active torsions:
REMARK  status: ('A' for Active; 'I' for Inactive)
REMARK    1  A    between atoms: C_5  and  N_6 
REMARK    2  A    between atoms: N_6  and  C_7 
REMARK    3  A    between atoms: C_7  and  C_8 
REMARK    4  A    between atoms: C_8  and  N_9 
REMARK       I    between atoms: N_9  and  C_10 
REMARK    5  A    between atoms: C_10  and  C_12 
REMARK    6  A    between atoms: C_12  and  N_13 
REMARK       I    between atoms: N_13  and  C_14 
REMARK    7  A    between atoms: C_14  and  C_16 
REMARK    8  A    between atoms: C_16  and  C_17 
ROOT
ATOM      1  N   UNL d   1       9.713   1.999  -1.050  0.00  0.00    -0.358 N 
ATOM      2  C   UNL d   1      11.073   1.914  -1.346  0.00  0.00     0.235 C 
ATOM      3  O   UNL d   1      11.626   0.835  -1.529  0.00  0.00    -0.272 OA
ATOM      4  H   UNL d   1       9.295   2.912  -0.903  0.00  0.00     0.162 HD
ENDROOT
BRANCH   2   5
ATOM      5  C   UNL d   1      11.842   3.257  -1.429  0.00  0.00     0.225 C 
BRANCH   5   6
ATOM      6  N   UNL d   1      13.261   3.134  -1.799  0.00  0.00    -0.352 N 
ATOM      7  C   UNL d   1      14.012   4.292  -2.008  0.00  0.00     0.218 C 
ATOM      8  O   UNL d   1      13.508   5.383  -1.832  0.00  0.00    -0.274 OA
ATOM      9  H   UNL d   1      13.640   2.196  -1.895  0.00  0.00     0.162 HD
BRANCH   7  10
ATOM     10  C   UNL d   1      15.483   4.119  -2.445  0.00  0.00     0.112 C 
BRANCH  10  11
ATOM     11  C   UNL d   1      16.455   5.399  -2.450  0.00  0.00    -0.031 C 
ATOM     12  C   UNL d   1      16.444   6.644  -3.518  0.00  0.00     0.014 C 
ATOM     13  C   UNL d   1      17.608   7.653  -3.160  0.00  0.00    -0.013 C 
ATOM     14  C   UNL d   1      17.285   8.177  -1.752  0.00  0.00     0.009 C 
ATOM     15  C   UNL d   1      18.921   6.863  -3.300  0.00  0.00     0.009 C 
ATOM     16  C   UNL d   1      17.401   7.045  -0.739  0.00  0.00    -0.013 C 
ATOM     17  C   UNL d   1      18.777   6.384  -0.850  0.00  0.00     0.009 C 
ATOM     18  C   UNL d   1      16.313   6.022  -1.036  0.00  0.00     0.014 C 
ATOM     19  C   UNL d   1      18.983   5.771  -2.242  0.00  0.00    -0.013 C 
ATOM     20  C   UNL d   1      17.878   4.761  -2.545  0.00  0.00     0.014 C 
ENDBRANCH  10  11
ENDBRANCH   7  10
ENDBRANCH   5   6
ENDBRANCH   2   5
BRANCH   1  21
ATOM     21  C   UNL d   1       8.889   0.784  -0.952  0.00  0.00     0.142 C 
BRANCH  21  22
ATOM     22  C   UNL d   1       7.408   1.051  -0.614  0.00  0.00     0.141 C 
BRANCH  22  23
ATOM     23  N   UNL d   1       6.588  -0.160  -0.463  0.00  0.00    -0.372 N 
ATOM     24  H   UNL d   1       7.007  -1.067  -0.648  0.00  0.00     0.161 HD
BRANCH  23  25
ATOM     25  C   UNL d   1       5.225  -0.119  -0.210  0.00  0.00     0.143 C 
ATOM     26  C   UNL d   1       4.561   1.087  -0.064  0.00  0.00     0.054 C 
ATOM     27  C   UNL d   1       3.182   1.114   0.001  0.00  0.00     0.030 C 
ATOM     28  C   UNL d   1       2.497  -0.088   0.042  0.00  0.00     0.024 C 
ATOM     29  C   UNL d   1       1.000  -0.123   0.065  0.00  0.00     0.070 C 
ATOM     30  N   UNL d   1       3.202  -1.234   0.059  0.00  0.00    -0.281 N 
ATOM     31  N   UNL d   1       4.532  -1.274  -0.116  0.00  0.00    -0.157 NA
ATOM     32  H   UNL d   1       2.711  -2.120   0.204  0.00  0.00     0.189 HD
ENDBRANCH  23  25
ENDBRANCH  22  23
ENDBRANCH  21  22
ENDBRANCH   1  21
TORSDOF 8
