REMARK  9 active torsions:
REMARK  status: ('A' for Active; 'I' for Inactive)
REMARK    1  A    between atoms: C_2  and  O_3 
REMARK    2  A    between atoms: O_3  and  C_4 
REMARK    3  A    between atoms: C_7  and  C_8 
REMARK    4  A    between atoms: C_11  and  C_12 
REMARK       I    between atoms: C_12  and  N_14 
REMARK    5  A    between atoms: N_14  and  N_15 
REMARK    6  A    between atoms: C_16  and  C_17 
REMARK    7  A    between atoms: C_19  and  O_20 
REMARK    8  A    between atoms: C_22  and  O_23 
REMARK    9  A    between atoms: C_26  and  O_27 
ROOT
ATOM      1  C   UNL d   1      11.853   2.072   3.383  0.00  0.00     0.290 C 
ATOM      2  O   UNL d   1      12.926   1.492   3.440  0.00  0.00    -0.264 OA
ATOM      3  N   UNL d   1      11.684   3.443   3.700  0.00  0.00    -0.242 N 
ATOM      4  H   UNL d   1      10.988   3.954   3.194  0.00  0.00     0.192 HD
ENDROOT
BRANCH   1   5
ATOM      5  C   UNL d   1      10.646   1.355   2.963  0.00  0.00     0.127 A 
ATOM      6  N   UNL d   1      10.648  -0.013   2.758  0.00  0.00    -0.272 N 
ATOM      7  N   UNL d   1       9.436  -0.541   2.493  0.00  0.00    -0.173 NA
ATOM      8  H   UNL d   1      11.438  -0.651   2.824  0.00  0.00     0.189 HD
ATOM      9  C   UNL d   1       8.613   0.512   2.467  0.00  0.00     0.095 A 
ATOM     10  C   UNL d   1       9.325   1.725   2.746  0.00  0.00     0.003 A 
ATOM     11  C   UNL d   1       8.668   3.046   2.826  0.00  0.00     0.053 C 
BRANCH   9  12
ATOM     12  C   UNL d   1       7.181   0.387   2.171  0.00  0.00    -0.005 A 
ATOM     13  C   UNL d   1       6.334  -0.388   2.970  0.00  0.00     0.016 A 
ATOM     14  C   UNL d   1       4.977  -0.526   2.635  0.00  0.00     0.037 A 
ATOM     15  C   UNL d   1       4.435   0.160   1.544  0.00  0.00     0.068 A 
ATOM     16  C   UNL d   1       5.263   0.979   0.781  0.00  0.00     0.037 A 
ATOM     17  C   UNL d   1       6.626   1.081   1.086  0.00  0.00     0.016 A 
BRANCH  15  18
ATOM     18  O   UNL d   1       3.081   0.052   1.366  0.00  0.00    -0.352 OA
BRANCH  18  19
ATOM     19  C   UNL d   1       2.628   0.038   0.008  0.00  0.00     0.171 C 
ATOM     20  C   UNL d   1       1.108   0.046   0.003  0.00  0.00     0.034 C 
ENDBRANCH  18  19
ENDBRANCH  15  18
ENDBRANCH   9  12
ENDBRANCH   1   5
BRANCH   3  21
ATOM     21  N   UNL d   1      12.714   4.200   4.225  0.00  0.00    -0.183 NA
ATOM     22  C   UNL d   1      12.682   5.491   4.059  0.00  0.00     0.153 C 
BRANCH  22  23
ATOM     23  C   UNL d   1      13.932   6.312   4.193  0.00  0.00     0.019 C 
ATOM     24  C   UNL d   1      13.906   7.436   5.047  0.00  0.00     0.055 C 
ATOM     25  C   UNL d   1      15.012   8.318   5.134  0.00  0.00     0.102 C 
ATOM     26  C   UNL d   1      16.197   8.013   4.445  0.00  0.00     0.104 C 
ATOM     27  C   UNL d   1      16.199   6.934   3.566  0.00  0.00     0.077 C 
ATOM     28  C   UNL d   1      15.082   6.093   3.406  0.00  0.00     0.082 C 
BRANCH  25  29
ATOM     29  O   UNL d   1      14.797   9.444   5.904  0.00  0.00    -0.353 OA
ATOM     30  C   UNL d   1      15.797  10.470   5.860  0.00  0.00     0.210 C 
ENDBRANCH  25  29
BRANCH  26  31
ATOM     31  O   UNL d   1      17.296   8.786   4.682  0.00  0.00    -0.353 OA
ATOM     32  C   UNL d   1      18.531   8.495   4.056  0.00  0.00     0.210 C 
ENDBRANCH  26  31
BRANCH  28  33
ATOM     33  O   UNL d   1      15.327   5.188   2.400  0.00  0.00    -0.355 OA
ATOM     34  C   UNL d   1      14.405   4.138   2.206  0.00  0.00     0.210 C 
ENDBRANCH  28  33
ENDBRANCH  22  23
ENDBRANCH   3  21
TORSDOF 9
