@<TRIPOS>MOLECULE
*****
 63 66 0 0 0
SMALL
GASTEIGER

@<TRIPOS>ATOM
      1 C           1.1189   -0.0791    0.4694 C.3     1  UNL1       -0.0108
      2 C           2.6007   -0.0056    0.1455 C.3     1  UNL1        0.0878
      3 N           2.9840    0.7715   -1.1243 N.pl3   1  UNL1       -0.3883
      4 C           2.1256    0.8337   -2.3995 C.3     1  UNL1        0.0878
      5 C           0.6179    0.8000   -2.1978 C.3     1  UNL1       -0.0108
      6 C           4.4851    0.6040   -1.4947 C.ar    1  UNL1        0.1446
      7 C           5.1648    1.6004   -2.2132 C.ar    1  UNL1        0.0057
      8 C           6.5644    1.4552   -2.5821 C.ar    1  UNL1       -0.0285
      9 C           7.3267    0.2979   -2.2291 C.ar    1  UNL1        0.0866
     10 N           8.7978    0.1632   -2.3019 N.ar    1  UNL1       -0.1492
     11 N           9.5112    0.8466   -1.3752 N.ar    1  UNL1       -0.1471
     12 C          10.7175    0.6661   -1.9283 C.ar    1  UNL1        0.1135
     13 C          11.5102    1.5647   -2.6471 C.ar    1  UNL1       -0.0277
     14 C          12.6532    1.0119   -3.2931 C.ar    1  UNL1       -0.0271
     15 C          13.2327    1.7809   -4.4430 C.3     1  UNL1       -0.0379
     16 C          13.1761   -0.2592   -2.9421 C.ar    1  UNL1        0.0386
     17 N          14.6161   -0.4131   -3.0968 N.am    1  UNL1       -0.2828
     18 C          15.4925   -1.2775   -2.4107 C.2     1  UNL1        0.2507
     19 O          15.0880   -2.1497   -1.6703 O.2     1  UNL1       -0.2722
     20 C          17.1024   -1.0288   -2.6853 C.3     1  UNL1        0.1605
     21 O          17.6675    0.2051   -2.2797 O.3     1  UNL1       -0.3658
     22 C          17.1665    1.3888   -2.8421 C.3     1  UNL1        0.0379
     23 C          17.9019   -2.1661   -1.9908 C.ar    1  UNL1        0.0083
     24 C          17.6461   -3.4834   -2.4393 C.ar    1  UNL1       -0.0542
     25 C          18.0203   -4.5964   -1.6801 C.ar    1  UNL1       -0.0613
     26 C          18.7709   -4.4327   -0.5237 C.ar    1  UNL1       -0.0604
     27 C          19.1430   -3.1541   -0.1259 C.ar    1  UNL1       -0.0430
     28 C          18.7207   -2.0253   -0.8452 C.ar    1  UNL1        0.0471
     29 CL         19.2872   -0.5236   -0.1914 Cl      1  UNL1       -0.0832
     30 C          12.2296   -1.2202   -2.4697 C.ar    1  UNL1       -0.0109
     31 C          10.8533   -0.7206   -2.2498 C.ar    1  UNL1        0.1149
     32 N           9.5811   -0.9317   -2.8233 N.ar    1  UNL1       -0.1470
     33 C           6.6417   -0.6395   -1.4611 C.ar    1  UNL1       -0.0285
     34 C           5.2572   -0.5068   -1.1259 C.ar    1  UNL1        0.0057
     35 H           0.9340   -0.4394    1.4858 H       1  UNL1        0.0289
     36 H           0.6215   -0.8088   -0.1741 H       1  UNL1        0.0289
     37 H           0.6453    0.9015    0.4138 H       1  UNL1        0.0289
     38 H           2.9938   -1.0227    0.1166 H       1  UNL1        0.0965
     39 H           3.0849    0.5467    0.9598 H       1  UNL1        0.0965
     40 H           2.9337    1.7386   -0.7822 H       1  UNL1        0.3743
     41 H           2.4492    0.0664   -3.1090 H       1  UNL1        0.0965
     42 H           2.3430    1.8215   -2.8253 H       1  UNL1        0.0965
     43 H           0.2749   -0.2143   -1.9846 H       1  UNL1        0.0289
     44 H           0.0667    1.0981   -3.0953 H       1  UNL1        0.0289
     45 H           0.3014    1.5038   -1.4248 H       1  UNL1        0.0289
     46 H           4.6354    2.5149   -2.4932 H       1  UNL1        0.0682
     47 H           6.9934    2.2790   -3.1605 H       1  UNL1        0.0641
     48 H          11.0030    2.4498   -3.0003 H       1  UNL1        0.0643
     49 H          12.4742    2.4488   -4.8639 H       1  UNL1        0.0278
     50 H          13.5093    1.0889   -5.2481 H       1  UNL1        0.0278
     51 H          14.1017    2.3561   -4.1273 H       1  UNL1        0.0278
     52 H          15.0736    0.3235   -3.6101 H       1  UNL1        0.1549
     53 H          17.2923   -1.1314   -3.7655 H       1  UNL1        0.0744
     54 H          17.7383    2.2350   -2.4508 H       1  UNL1        0.0524
     55 H          16.1376    1.5475   -2.5229 H       1  UNL1        0.0524
     56 H          17.2587    1.3660   -3.9300 H       1  UNL1        0.0524
     57 H          17.0626   -3.6543   -3.3422 H       1  UNL1        0.0622
     58 H          17.6787   -5.5886   -1.9652 H       1  UNL1        0.0618
     59 H          19.0634   -5.2932    0.0714 H       1  UNL1        0.0618
     60 H          19.7320   -3.0320    0.7812 H       1  UNL1        0.0632
     61 H          12.6202   -2.0416   -1.8652 H       1  UNL1        0.0659
     62 H           7.2033   -1.4743   -1.0473 H       1  UNL1        0.0641
     63 H           4.8515   -1.3227   -0.5401 H       1  UNL1        0.0682
@<TRIPOS>UNITY_ATOM_ATTR
3 1
charge 1
@<TRIPOS>BOND
     1     1     2    1
     2     2     3    1
     3     3     4    1
     4     4     5    1
     5     3     6    1
     6     6     7   ar
     7     7     8   ar
     8     8     9   ar
     9     9    10    1
    10    10    11   ar
    11    11    12   ar
    12    12    13   ar
    13    13    14   ar
    14    14    15    1
    15    14    16   ar
    16    16    17    1
    17    17    18   am
    18    18    19    2
    19    18    20    1
    20    20    21    1
    21    21    22    1
    22    20    23    1
    23    23    24   ar
    24    24    25   ar
    25    25    26   ar
    26    26    27   ar
    27    27    28   ar
    28    23    28   ar
    29    28    29    1
    30    16    30   ar
    31    30    31   ar
    32    12    31   ar
    33    31    32   ar
    34    10    32   ar
    35     9    33   ar
    36    33    34   ar
    37     6    34   ar
    38     1    35    1
    39     1    36    1
    40     1    37    1
    41     2    38    1
    42     2    39    1
    43     3    40    1
    44     4    41    1
    45     4    42    1
    46     5    43    1
    47     5    44    1
    48     5    45    1
    49     7    46    1
    50     8    47    1
    51    13    48    1
    52    15    49    1
    53    15    50    1
    54    15    51    1
    55    17    52    1
    56    20    53    1
    57    22    54    1
    58    22    55    1
    59    22    56    1
    60    24    57    1
    61    25    58    1
    62    26    59    1
    63    27    60    1
    64    30    61    1
    65    33    62    1
    66    34    63    1
