REMARK  11 active torsions:
REMARK  status: ('A' for Active; 'I' for Inactive)
REMARK    1  A    between atoms: C_2  and  C_3 
REMARK       I    between atoms: C_3  and  N_5 
REMARK    2  A    between atoms: N_5  and  C_6 
REMARK    3  A    between atoms: C_9  and  C_10 
REMARK       I    between atoms: C_10  and  N_12 
REMARK    4  A    between atoms: N_12  and  N_13 
REMARK    5  A    between atoms: N_13  and  C_14 
REMARK    6  A    between atoms: C_14  and  N_16 
REMARK       I    between atoms: N_16  and  C_17 
REMARK    7  A    between atoms: C_17  and  C_19 
REMARK    8  A    between atoms: C_24  and  O_25 
REMARK    9  A    between atoms: O_25  and  C_26 
REMARK   10  A    between atoms: C_26  and  C_27 
REMARK   11  A    between atoms: C_27  and  C_28 
ROOT
ATOM      1  C   UNL d   1       5.683  -0.198  10.352  0.00  0.00     0.193 C 
ATOM      2  S   UNL d   1       4.054  -0.501  10.083  0.00  0.00    -0.039 SA
ENDROOT
BRANCH   1   3
ATOM      3  N   UNL d   1       6.628  -0.197   9.255  0.00  0.00    -0.273 N 
ATOM      4  H   UNL d   1       7.504   0.304   9.358  0.00  0.00     0.189 HD
BRANCH   3   5
ATOM      5  N   UNL d   1       6.099  -0.157   7.741  0.00  0.00    -0.264 N 
ATOM      6  C   UNL d   1       6.816   0.464   6.616  0.00  0.00     0.270 C 
ATOM      7  O   UNL d   1       7.969   0.903   6.645  0.00  0.00    -0.266 OA
ATOM      8  H   UNL d   1       5.076  -0.135   7.750  0.00  0.00     0.190 HD
BRANCH   6   9
ATOM      9  C   UNL d   1       6.099   0.708   5.312  0.00  0.00     0.033 C 
ATOM     10  C   UNL d   1       6.660   1.456   4.232  0.00  0.00     0.019 C 
ATOM     11  C   UNL d   1       6.049   1.453   2.963  0.00  0.00     0.030 C 
ATOM     12  C   UNL d   1       4.883   0.711   2.792  0.00  0.00     0.034 C 
ATOM     13  C   UNL d   1       4.276   0.109   3.897  0.00  0.00     0.030 C 
ATOM     14  C   UNL d   1       4.859   0.129   5.146  0.00  0.00     0.019 C 
BRANCH  12  15
ATOM     15  N   UNL d   1       4.338   0.480   1.516  0.00  0.00    -0.327 N 
ATOM     16  C   UNL d   1       2.973   0.350   1.336  0.00  0.00     0.221 C 
ATOM     17  O   UNL d   1       2.140   0.583   2.213  0.00  0.00    -0.273 OA
ATOM     18  H   UNL d   1       4.976   0.418   0.732  0.00  0.00     0.169 HD
BRANCH  16  19
ATOM     19  C   UNL d   1       2.542  -0.065  -0.049  0.00  0.00     0.098 C 
ATOM     20  C   UNL d   1       1.018  -0.088  -0.102  0.00  0.00     0.014 C 
ENDBRANCH  16  19
ENDBRANCH  12  15
ENDBRANCH   6   9
ENDBRANCH   3   5
ENDBRANCH   1   3
BRANCH   1  21
ATOM     21  N   UNL d   1       6.267   0.045  11.665  0.00  0.00    -0.298 N 
ATOM     22  C   UNL d   1       5.596   0.041  12.947  0.00  0.00     0.260 C 
ATOM     23  O   UNL d   1       4.523  -0.497  13.129  0.00  0.00    -0.267 OA
ATOM     24  H   UNL d   1       7.219   0.369  11.694  0.00  0.00     0.171 HD
BRANCH  22  25
ATOM     25  C   UNL d   1       6.241   0.588  14.225  0.00  0.00     0.065 A 
ATOM     26  C   UNL d   1       6.241  -0.363  15.282  0.00  0.00     0.020 A 
ATOM     27  C   UNL d   1       6.490  -0.010  16.619  0.00  0.00     0.001 A 
ATOM     28  C   UNL d   1       6.841   1.292  16.934  0.00  0.00     0.003 A 
ATOM     29  C   UNL d   1       6.855   2.249  15.925  0.00  0.00     0.038 A 
ATOM     30  C   UNL d   1       6.510   1.934  14.589  0.00  0.00     0.084 A 
BRANCH  30  31
ATOM     31  O   UNL d   1       6.420   3.104  13.863  0.00  0.00    -0.350 OA
BRANCH  31  32
ATOM     32  C   UNL d   1       6.214   2.920  12.487  0.00  0.00     0.180 C 
BRANCH  32  33
ATOM     33  C   UNL d   1       6.343   4.205  11.639  0.00  0.00     0.065 C 
BRANCH  33  34
ATOM     34  C   UNL d   1       5.985   3.942  10.211  0.00  0.00    -0.056 C 
ATOM     35  C   UNL d   1       5.414   4.791   9.256  0.00  0.00     0.007 C 
ATOM     36  C   UNL d   1       5.036   4.319   7.982  0.00  0.00     0.001 C 
ATOM     37  C   UNL d   1       5.460   3.090   7.585  0.00  0.00     0.000 C 
ATOM     38  C   UNL d   1       6.376   2.519   8.422  0.00  0.00     0.001 C 
ATOM     39  C   UNL d   1       6.503   2.790   9.737  0.00  0.00     0.007 C 
ENDBRANCH  33  34
ENDBRANCH  32  33
ENDBRANCH  31  32
ENDBRANCH  30  31
ENDBRANCH  22  25
ENDBRANCH   1  21
TORSDOF 11
