@<TRIPOS>MOLECULE
*****
 37 39 0 0 0
SMALL
GASTEIGER

@<TRIPOS>ATOM
      1 O           0.9435   -0.1159    0.0392 O.2     1  UNL1       -0.2685
      2 C           2.1717   -0.0921   -0.0733 C.2     1  UNL1        0.2633
      3 N           2.8735   -0.5563   -1.1934 N.am    1  UNL1       -0.2030
      4 N           2.1664   -1.0426   -2.2840 N.2     1  UNL1       -0.1873
      5 C           2.8357   -1.6070   -3.2454 C.2     1  UNL1        0.0569
      6 C           2.1515   -2.1816   -4.4506 C.ar    1  UNL1        0.0436
      7 C           1.0475   -1.5173   -5.0042 C.ar    1  UNL1        0.1261
      8 O           0.5456   -0.3514   -4.4920 O.3     1  UNL1       -0.5061
      9 C           0.4242   -2.0006   -6.1546 C.ar    1  UNL1       -0.0189
     10 C           0.9001   -3.1526   -6.7793 C.ar    1  UNL1       -0.0505
     11 C           1.9976   -3.8459   -6.2532 C.ar    1  UNL1       -0.0170
     12 C           2.4572   -5.0116   -6.8936 C.ar    1  UNL1       -0.0540
     13 C           3.5296   -5.7338   -6.3770 C.ar    1  UNL1       -0.0612
     14 C           4.1488   -5.3023   -5.2119 C.ar    1  UNL1       -0.0611
     15 C           3.7097   -4.1410   -4.5692 C.ar    1  UNL1       -0.0533
     16 C           2.6365   -3.3715   -5.0698 C.ar    1  UNL1       -0.0057
     17 C           2.9644    0.4763    1.0659 C.ar    1  UNL1        0.0386
     18 C           2.5937    0.1986    2.3976 C.ar    1  UNL1       -0.0461
     19 C           3.2626    0.8041    3.4783 C.ar    1  UNL1       -0.0195
     20 C           4.2899    1.7054    3.2232 C.ar    1  UNL1        0.1169
     21 O           4.9788    2.3336    4.2195 O.3     1  UNL1       -0.5068
     22 C           4.6472    2.0098    1.9130 C.ar    1  UNL1       -0.0195
     23 C           3.9916    1.3970    0.8345 C.ar    1  UNL1       -0.0461
     24 H           3.8863   -0.6209   -1.1831 H       1  UNL1        0.1776
     25 H           3.9368   -1.6827   -3.2203 H       1  UNL1        0.0853
     26 H           0.9419   -0.2085   -3.6055 H       1  UNL1        0.2922
     27 H          -0.4324   -1.4769   -6.5727 H       1  UNL1        0.0654
     28 H           0.4003   -3.5057   -7.6812 H       1  UNL1        0.0625
     29 H           1.9776   -5.3744   -7.8024 H       1  UNL1        0.0624
     30 H           3.8735   -6.6361   -6.8771 H       1  UNL1        0.0618
     31 H           4.9739   -5.8717   -4.7924 H       1  UNL1        0.0618
     32 H           4.2136   -3.8586   -3.6496 H       1  UNL1        0.0624
     33 H           1.7670   -0.4810    2.6016 H       1  UNL1        0.0626
     34 H           2.9572    0.5765    4.4968 H       1  UNL1        0.0654
     35 H           4.6552    2.0364    5.0860 H       1  UNL1        0.2921
     36 H           5.4256    2.7473    1.7338 H       1  UNL1        0.0654
     37 H           4.2548    1.6938   -0.1753 H       1  UNL1        0.0626
@<TRIPOS>BOND
     1     1     2    2
     2     2     3   am
     3     3     4    1
     4     4     5    2
     5     5     6    1
     6     6     7   ar
     7     7     8    1
     8     7     9   ar
     9     9    10   ar
    10    10    11   ar
    11    11    12   ar
    12    12    13   ar
    13    13    14   ar
    14    14    15   ar
    15    15    16   ar
    16     6    16   ar
    17    11    16   ar
    18     2    17    1
    19    17    18   ar
    20    18    19   ar
    21    19    20   ar
    22    20    21    1
    23    20    22   ar
    24    22    23   ar
    25    17    23   ar
    26     3    24    1
    27     5    25    1
    28     8    26    1
    29     9    27    1
    30    10    28    1
    31    12    29    1
    32    13    30    1
    33    14    31    1
    34    15    32    1
    35    18    33    1
    36    19    34    1
    37    21    35    1
    38    22    36    1
    39    23    37    1
