@<TRIPOS>MOLECULE
*****
 84 88 0 0 0
SMALL
GASTEIGER

@<TRIPOS>ATOM
      1 C           1.1485   -0.2939   -0.5786 C.3     1  UNL1       -0.0556
      2 C           2.6672   -0.3036   -0.4348 C.3     1  UNL1       -0.0072
      3 C           3.2115    0.3194    0.7880 C.3     1  UNL1       -0.0367
      4 C           4.5681    0.0538    1.3939 C.3     1  UNL1        0.0107
      5 C           4.0998   -0.8446    2.3962 C.2     1  UNL1        0.1561
      6 O           4.0246   -0.4335    3.5569 O.2     1  UNL1       -0.2927
      7 C           3.2473   -1.9931    1.4719 C.2     1  UNL1       -0.0194
      8 C           3.3017   -1.6623    0.0930 C.2     1  UNL1       -0.0601
      9 C           4.7046   -1.7782   -0.4264 C.3     1  UNL1       -0.0305
     10 C           5.0961   -0.8360   -1.5852 C.3     1  UNL1       -0.0459
     11 C           4.5626    0.6776   -1.7414 C.3     1  UNL1       -0.0337
     12 C           3.0683    0.6928   -1.5860 C.3     1  UNL1       -0.0288
     13 C           2.5188    2.2144   -1.5147 C.3     1  UNL1       -0.0486
     14 C           2.8806    3.0870   -0.3215 C.3     1  UNL1       -0.0440
     15 C           4.3450    2.8896    0.0768 C.3     1  UNL1        0.0068
     16 C           4.8058    4.3550   -0.2708 C.3     1  UNL1       -0.0563
     17 C           5.1701    1.6736   -0.7525 C.3     1  UNL1       -0.0294
     18 C           6.4923    2.2673   -0.8524 C.3     1  UNL1       -0.0463
     19 C           6.4247    2.7311    0.7568 C.3     1  UNL1       -0.0161
     20 C           4.7104    2.8888    1.6394 C.3     1  UNL1        0.1325
     21 O           5.5968    2.1178    2.6327 O.3     1  UNL1       -0.3804
     22 C           3.0359    2.2593    2.5895 C.2     1  UNL1        0.2022
     23 O           3.0634    2.3388    3.7845 O.2     1  UNL1       -0.2907
     24 C           1.3040    1.5622    2.0354 C.3     1  UNL1        0.1530
     25 O           0.3102    0.6298    2.7421 O.3     1  UNL1       -0.4568
     26 C          -0.6013   -0.1486    1.9980 C.2     1  UNL1        0.3079
     27 O          -0.8957   -0.0211    0.8062 O.2     1  UNL1       -0.2508
     28 C          -1.3720   -1.1566    2.7717 C.3     1  UNL1        0.0532
     29 C          -2.4389   -1.8040    1.8488 C.3     1  UNL1        0.0340
     30 C          -3.4827   -2.4356    2.7139 C.2     1  UNL1        0.2135
     31 O          -3.4122   -2.4447    3.9381 O.2     1  UNL1       -0.2758
     32 N          -4.5392   -3.0017    2.0423 N.am    1  UNL1       -0.3152
     33 C          -5.5758   -3.6133    2.8345 C.3     1  UNL1        0.0132
     34 C          -6.6698   -4.1956    1.9764 C.3     1  UNL1       -0.0192
     35 C          -7.7605   -4.8325    2.8273 C.3     1  UNL1        0.0296
     36 N          -8.8053   -5.4211    1.9752 N.ar    1  UNL1       -0.2957
     37 C          -9.3628   -4.8445    0.8361 C.ar    1  UNL1        0.0732
     38 C         -10.1925   -5.7747    0.2853 C.ar    1  UNL1        0.1870
     39 N         -10.1674   -6.8577    1.1294 N.ar    1  UNL1       -0.2011
     40 C          -9.3511   -6.6342    2.1639 C.ar    1  UNL1        0.2463
     41 H           0.8219   -0.9623    0.1992 H       1  UNL1        0.0238
     42 H           0.7150   -0.6755   -1.5031 H       1  UNL1        0.0238
     43 H           0.6861    0.7157   -0.4871 H       1  UNL1        0.0238
     44 H           2.6054    0.0292    1.6432 H       1  UNL1        0.0278
     45 H           2.9711    1.3294    0.6920 H       1  UNL1        0.0278
     46 H           4.7263    1.0556    1.3680 H       1  UNL1        0.0345
     47 H           5.6270   -0.1539    1.2558 H       1  UNL1        0.0345
     48 H           2.2247   -2.0524    1.8479 H       1  UNL1        0.0652
     49 H           4.8743   -2.8391   -0.5820 H       1  UNL1        0.0310
     50 H           5.4329   -1.6394    0.3732 H       1  UNL1        0.0310
     51 H           4.7782   -1.3801   -2.4730 H       1  UNL1        0.0271
     52 H           6.1875   -0.7965   -1.5403 H       1  UNL1        0.0271
     53 H           4.8221    1.0042   -2.7509 H       1  UNL1        0.0307
     54 H           2.6245    0.2941   -2.5026 H       1  UNL1        0.0312
     55 H           1.4291    2.2607   -1.6004 H       1  UNL1        0.0268
     56 H           2.9060    2.7583   -2.3854 H       1  UNL1        0.0268
     57 H           2.1980    2.9988    0.5085 H       1  UNL1        0.0272
     58 H           2.6333    4.1366   -0.5313 H       1  UNL1        0.0272
     59 H           4.8483    4.4601   -1.3510 H       1  UNL1        0.0236
     60 H           5.7426    4.7174    0.1226 H       1  UNL1        0.0236
     61 H           4.1669    5.0742    0.2468 H       1  UNL1        0.0236
     62 H           5.6421    0.9069   -0.1607 H       1  UNL1        0.0310
     63 H           6.4610    3.0093   -1.6622 H       1  UNL1        0.0269
     64 H           7.2702    1.5278   -1.1290 H       1  UNL1        0.0269
     65 H           6.9407    3.6969    0.6557 H       1  UNL1        0.0297
     66 H           7.2793    2.2644    1.2940 H       1  UNL1        0.0297
     67 H           5.1866    1.8929    3.4889 H       1  UNL1        0.2108
     68 H           1.3427    0.7928    1.3212 H       1  UNL1        0.0779
     69 H           0.7498    2.1863    1.3309 H       1  UNL1        0.0779
     70 H          -1.8605   -0.5369    3.5225 H       1  UNL1        0.0382
     71 H          -0.7553   -1.9362    3.2341 H       1  UNL1        0.0382
     72 H          -2.0023   -2.5448    1.1618 H       1  UNL1        0.0364
     73 H          -2.9408   -1.0505    1.2234 H       1  UNL1        0.0364
     74 H          -4.5789   -2.9682    1.0286 H       1  UNL1        0.1487
     75 H          -5.9793   -2.8476    3.5087 H       1  UNL1        0.0462
     76 H          -5.1100   -4.3895    3.4522 H       1  UNL1        0.0462
     77 H          -6.2568   -4.9422    1.2876 H       1  UNL1        0.0297
     78 H          -7.0910   -3.3967    1.3565 H       1  UNL1        0.0297
     79 H          -8.2299   -4.0994    3.4931 H       1  UNL1        0.0494
     80 H          -7.3351   -5.6293    3.4507 H       1  UNL1        0.0494
     81 H          -9.0704   -3.8544    0.5295 H       1  UNL1        0.0871
     82 H         -10.7954   -5.8002   -0.6050 H       1  UNL1        0.1392
     83 H         -10.6935   -7.7177    0.9933 H       1  UNL1        0.4538
     84 H          -9.1510   -7.3177    2.9820 H       1  UNL1        0.1600
@<TRIPOS>UNITY_ATOM_ATTR
39 1
charge 1
@<TRIPOS>BOND
     1     2     3    1
     2     3     4    1
     3     4     5    1
     4     5     7    1
     5     7     8    2
     6     2     8    1
     7     8     9    1
     8     9    10    1
     9    10    11    1
    10    11    12    1
    11     2    12    1
    12    12    13    1
    13    13    14    1
    14    14    15    1
    15    15    17    1
    16    11    17    1
    17    17    18    1
    18    18    19    1
    19    19    20    1
    20    15    20    1
    21    22    23    2
    22    22    24    1
    23    24    25    1
    24    25    26    1
    25    26    27    2
    26    26    28    1
    27    28    29    1
    28    29    30    1
    29    30    31    2
    30    30    32   am
    31    32    33    1
    32    33    34    1
    33    34    35    1
    34    35    36    1
    35    36    37   ar
    36    37    38   ar
    37    38    39   ar
    38    39    40   ar
    39    36    40   ar
    40     1     2    1
    41     5     6    2
    42    15    16    1
    43    20    21    1
    44    20    22    1
    45     1    41    1
    46     1    42    1
    47     1    43    1
    48     3    44    1
    49     3    45    1
    50     4    46    1
    51     4    47    1
    52     7    48    1
    53     9    49    1
    54     9    50    1
    55    10    51    1
    56    10    52    1
    57    11    53    1
    58    12    54    1
    59    13    55    1
    60    13    56    1
    61    14    57    1
    62    14    58    1
    63    16    59    1
    64    16    60    1
    65    16    61    1
    66    17    62    1
    67    18    63    1
    68    18    64    1
    69    19    65    1
    70    19    66    1
    71    21    67    1
    72    24    68    1
    73    24    69    1
    74    28    70    1
    75    28    71    1
    76    29    72    1
    77    29    73    1
    78    32    74    1
    79    33    75    1
    80    33    76    1
    81    34    77    1
    82    34    78    1
    83    35    79    1
    84    35    80    1
    85    37    81    1
    86    38    82    1
    87    39    83    1
    88    40    84    1
