REMARK  8 active torsions:
REMARK  status: ('A' for Active; 'I' for Inactive)
REMARK    1  A    between atoms: C_2  and  O_3 
REMARK    2  A    between atoms: O_3  and  C_4 
REMARK    3  A    between atoms: C_4  and  C_6 
REMARK    4  A    between atoms: C_9  and  N_10 
REMARK    5  A    between atoms: C_11  and  N_12 
REMARK    6  A    between atoms: C_13  and  C_14 
REMARK       I    between atoms: C_14  and  N_16 
REMARK    7  A    between atoms: N_16  and  C_17 
REMARK    8  A    between atoms: C_17  and  C_18 
ROOT
ATOM      1  N   UNL d   1       6.188   0.088  -7.488  0.00  0.00    -0.279 N 
ATOM      2  C   UNL d   1       6.582  -1.037  -8.281  0.00  0.00     0.126 C 
ATOM      3  C   UNL d   1       7.221  -0.582  -9.440  0.00  0.00     0.108 C 
ATOM      4  C   UNL d   1       7.490   0.742  -9.110  0.00  0.00     0.123 C 
ATOM      5  N   UNL d   1       8.416   1.625  -9.559  0.00  0.00    -0.242 NA
ATOM      6  C   UNL d   1       8.116   2.850  -9.108  0.00  0.00     0.086 C 
ATOM      7  C   UNL d   1       8.538   3.418  -7.893  0.00  0.00     0.034 C 
ATOM      8  C   UNL d   1       8.012   4.666  -7.513  0.00  0.00     0.002 C 
ATOM      9  C   UNL d   1       7.377   5.376  -8.515  0.00  0.00     0.002 C 
ATOM     10  C   UNL d   1       6.883   4.605  -9.554  0.00  0.00     0.034 C 
ATOM     11  C   UNL d   1       6.847   3.241  -9.275  0.00  0.00     0.088 C 
ATOM     12  N   UNL d   1       5.958   2.486  -8.482  0.00  0.00    -0.226 NA
ATOM     13  C   UNL d   1       6.394   1.183  -8.360  0.00  0.00     0.167 C 
ENDROOT
BRANCH   1  14
ATOM     14  C   UNL d   1       5.756   0.070  -6.083  0.00  0.00     0.043 A 
ATOM     15  C   UNL d   1       6.344  -0.807  -5.138  0.00  0.00     0.031 A 
ATOM     16  C   UNL d   1       5.915  -0.850  -3.772  0.00  0.00     0.020 A 
ATOM     17  C   UNL d   1       4.845  -0.062  -3.316  0.00  0.00     0.039 A 
ATOM     18  C   UNL d   1       4.277   0.821  -4.244  0.00  0.00     0.020 A 
ATOM     19  C   UNL d   1       4.751   0.916  -5.595  0.00  0.00     0.031 A 
BRANCH  17  20
ATOM     20  C   UNL d   1       4.419  -0.113  -1.861  0.00  0.00     0.293 C 
ATOM     21  O   UNL d   1       5.227  -0.274  -0.952  0.00  0.00    -0.259 OA
BRANCH  20  22
ATOM     22  O   UNL d   1       3.067   0.008  -1.680  0.00  0.00    -0.318 OA
BRANCH  22  23
ATOM     23  C   UNL d   1       2.619  -0.026  -0.294  0.00  0.00     0.174 C 
ATOM     24  C   UNL d   1       1.094  -0.034  -0.208  0.00  0.00     0.034 C 
ENDBRANCH  22  23
ENDBRANCH  20  22
ENDBRANCH  17  20
ENDBRANCH   1  14
BRANCH   2  25
ATOM     25  N   UNL d   1       6.286  -2.311  -7.940  0.00  0.00    -0.384 N 
ATOM     26  H   UNL d   1       5.707  -2.561  -7.144  0.00  0.00     0.157 HD
ATOM     27  H   UNL d   1       6.382  -3.048  -8.642  0.00  0.00     0.157 HD
ENDBRANCH   2  25
BRANCH   3  28
ATOM     28  C   UNL d   1       7.563  -1.247 -10.704  0.00  0.00     0.258 C 
ATOM     29  O   UNL d   1       7.346  -2.458 -10.896  0.00  0.00    -0.267 OA
ATOM     30  N   UNL d   1       8.038  -0.415 -11.704  0.00  0.00    -0.351 N 
ATOM     31  H   UNL d   1       8.271   0.537 -11.439  0.00  0.00     0.163 HD
BRANCH  30  32
ATOM     32  C   UNL d   1       8.357  -0.825 -13.069  0.00  0.00     0.187 C 
BRANCH  32  33
ATOM     33  C   UNL d   1       8.739   0.358 -13.915  0.00  0.00     0.070 A 
ATOM     34  C   UNL d   1       8.480   1.717 -13.856  0.00  0.00     0.036 A 
ATOM     35  C   UNL d   1       9.107   2.312 -14.980  0.00  0.00     0.027 A 
ATOM     36  C   UNL d   1       9.705   1.285 -15.668  0.00  0.00     0.142 A 
ATOM     37  O   UNL d   1       9.490   0.100 -15.034  0.00  0.00    -0.325 OA
ENDBRANCH  32  33
ENDBRANCH  30  32
ENDBRANCH   3  28
TORSDOF 8
