REMARK  5 active torsions:
REMARK  status: ('A' for Active; 'I' for Inactive)
REMARK    1  A    between atoms: C_2  and  C_3 
REMARK       I    between atoms: C_2  and  N_10 
REMARK    2  A    between atoms: C_3  and  C_4 
REMARK    3  A    between atoms: N_10  and  N_11 
REMARK       I    between atoms: N_11  and  C_12 
REMARK    4  A    between atoms: C_12  and  C_14 
REMARK    5  A    between atoms: C_19  and  O_20 
ROOT
ATOM      1  N   UNL d   1       4.526   0.872   0.816  0.00  0.00    -0.263 N 
ATOM      2  C   UNL d   1       5.155   1.830   1.592  0.00  0.00     0.272 C 
ATOM      3  O   UNL d   1       4.551   2.628   2.313  0.00  0.00    -0.266 OA
ATOM      4  H   UNL d   1       5.070   0.339   0.144  0.00  0.00     0.190 HD
ENDROOT
BRANCH   1   5
ATOM      5  N   UNL d   1       3.134   0.902   0.725  0.00  0.00    -0.267 N 
ATOM      6  C   UNL d   1       2.355   0.017   0.021  0.00  0.00     0.240 C 
ATOM      7  O   UNL d   1       1.131   0.103   0.131  0.00  0.00    -0.272 OA
ATOM      8  H   UNL d   1       2.650   1.578   1.317  0.00  0.00     0.190 HD
BRANCH   6   9
ATOM      9  C   UNL d   1       3.062  -1.010  -0.868  0.00  0.00     0.143 C 
BRANCH   9  10
ATOM     10  C   UNL d   1       2.138  -1.964  -1.605  0.00  0.00    -0.049 A 
ATOM     11  C   UNL d   1       0.985  -1.509  -2.262  0.00  0.00     0.007 A 
ATOM     12  C   UNL d   1       0.067  -2.413  -2.796  0.00  0.00     0.001 A 
ATOM     13  C   UNL d   1       0.348  -3.776  -2.790  0.00  0.00     0.000 A 
ATOM     14  C   UNL d   1       1.530  -4.237  -2.216  0.00  0.00     0.001 A 
ATOM     15  C   UNL d   1       2.418  -3.338  -1.622  0.00  0.00     0.007 A 
ENDBRANCH   9  10
ENDBRANCH   6   9
ENDBRANCH   1   5
BRANCH   2  16
ATOM     16  C   UNL d   1       6.642   1.859   1.531  0.00  0.00     0.066 A 
ATOM     17  C   UNL d   1       7.363   2.100   2.711  0.00  0.00     0.020 A 
ATOM     18  C   UNL d   1       8.751   2.262   2.669  0.00  0.00     0.001 A 
ATOM     19  C   UNL d   1       9.431   2.144   1.457  0.00  0.00     0.003 A 
ATOM     20  C   UNL d   1       8.724   1.885   0.281  0.00  0.00     0.037 A 
ATOM     21  C   UNL d   1       7.335   1.735   0.320  0.00  0.00     0.081 A 
BRANCH  21  22
ATOM     22  O   UNL d   1       6.649   1.466  -0.834  0.00  0.00    -0.360 OA
ATOM     23  H   UNL d   1       7.268   1.493  -1.584  0.00  0.00     0.217 HD
ENDBRANCH  21  22
ENDBRANCH   2  16
TORSDOF 5
