@<TRIPOS>MOLECULE
*****
 57 60 0 0 0
SMALL
GASTEIGER

@<TRIPOS>ATOM
      1 C           0.7989    1.9878    0.3954 C.3     1  UNL1       -0.0366
      2 C          -0.2202    0.9213    0.2064 C.ar    1  UNL1       -0.0109
      3 C           0.2939   -0.3917    0.0921 C.ar    1  UNL1        0.0456
      4 CL          1.9969   -0.7367    0.0190 Cl      1  UNL1       -0.0832
      5 C          -0.5527   -1.4789    0.0176 C.ar    1  UNL1       -0.0430
      6 C          -1.9246   -1.2655    0.0039 C.ar    1  UNL1       -0.0586
      7 C          -2.4581    0.0443    0.0272 C.ar    1  UNL1       -0.0401
      8 C          -1.6298    1.1836    0.1395 C.ar    1  UNL1        0.0391
      9 N          -2.2781    2.5110    0.0917 N.am    1  UNL1       -0.2689
     10 C          -1.6824    3.7522    0.3163 C.2     1  UNL1        0.3082
     11 O          -0.6137    3.9214    0.9047 O.2     1  UNL1       -0.2522
     12 N          -2.3350    4.8940   -0.1306 N.am    1  UNL1       -0.2675
     13 C          -1.5119    6.1090   -0.1856 C.ar    1  UNL1        0.0576
     14 C          -1.8557    7.2458    0.6131 C.ar    1  UNL1       -0.0174
     15 C          -1.1201    8.4511    0.5169 C.ar    1  UNL1        0.0355
     16 N          -1.5847    9.6727    1.1142 N.am    1  UNL1       -0.2814
     17 C          -1.0555   10.9341    0.8094 C.2     1  UNL1        0.2483
     18 O          -0.0962   11.1717    0.0787 O.2     1  UNL1       -0.2699
     19 C          -1.6741   12.1528    1.3861 C.ar    1  UNL1        0.0372
     20 C          -1.6098   13.3348    0.6153 C.ar    1  UNL1       -0.0469
     21 C          -1.8896   14.5737    1.1892 C.ar    1  UNL1       -0.0257
     22 C          -2.3074   14.6212    2.5107 C.ar    1  UNL1        0.1234
     23 F          -2.6149   15.8032    3.0600 F       1  UNL1       -0.2055
     24 C          -2.4086   13.4588    3.2755 C.ar    1  UNL1       -0.0257
     25 C          -2.0832   12.2160    2.7182 C.ar    1  UNL1       -0.0469
     26 C           0.0445    8.4346   -0.2474 C.ar    1  UNL1       -0.0386
     27 C           0.4263    7.3177   -0.9844 C.ar    1  UNL1       -0.0371
     28 C          -0.3313    6.1436   -1.0030 C.ar    1  UNL1        0.0514
     29 N           0.0940    5.1543   -1.8704 N.pl3   1  UNL1       -0.3285
     30 C          -0.7906    4.4531   -2.7747 C.3     1  UNL1        0.0123
     31 C          -0.2911    3.0232   -2.7357 C.3     1  UNL1       -0.0358
     32 C           1.2207    3.1784   -2.5659 C.3     1  UNL1       -0.0358
     33 C           1.4049    4.4982   -1.7712 C.3     1  UNL1        0.0123
     34 H           1.8455    1.7466    0.2205 H       1  UNL1        0.0279
     35 H           0.7389    2.4055    1.3966 H       1  UNL1        0.0279
     36 H           0.5837    2.7039   -0.3673 H       1  UNL1        0.0279
     37 H          -0.1319   -2.4807   -0.0165 H       1  UNL1        0.0632
     38 H          -2.5748   -2.1372   -0.0298 H       1  UNL1        0.0619
     39 H          -3.5416    0.1294   -0.0271 H       1  UNL1        0.0636
     40 H          -3.2778    2.5069   -0.0730 H       1  UNL1        0.1564
     41 H          -3.2876    5.0089    0.1842 H       1  UNL1        0.1564
     42 H          -2.6565    7.1667    1.3441 H       1  UNL1        0.0655
     43 H          -2.4514    9.6306    1.6340 H       1  UNL1        0.1551
     44 H          -1.2860   13.2930   -0.4252 H       1  UNL1        0.0626
     45 H          -1.7505   15.4928    0.6272 H       1  UNL1        0.0646
     46 H          -2.6977   13.5385    4.3187 H       1  UNL1        0.0646
     47 H          -2.0835   11.3307    3.3450 H       1  UNL1        0.0626
     48 H           0.6989    9.2933   -0.3343 H       1  UNL1        0.0637
     49 H           1.2928    7.4184   -1.6338 H       1  UNL1        0.0637
     50 H          -0.6447    4.8547   -3.7799 H       1  UNL1        0.0464
     51 H          -1.8492    4.5362   -2.5263 H       1  UNL1        0.0464
     52 H          -0.5768    2.4326   -3.6064 H       1  UNL1        0.0281
     53 H          -0.7488    2.5162   -1.8950 H       1  UNL1        0.0281
     54 H           1.6910    3.2539   -3.5482 H       1  UNL1        0.0281
     55 H           1.6899    2.3111   -2.0846 H       1  UNL1        0.0281
     56 H           2.2065    5.0866   -2.2287 H       1  UNL1        0.0464
     57 H           1.7046    4.3273   -0.7282 H       1  UNL1        0.0464
@<TRIPOS>BOND
     1     1     2    1
     2     2     3   ar
     3     3     4    1
     4     3     5   ar
     5     5     6   ar
     6     6     7   ar
     7     7     8   ar
     8     2     8   ar
     9     8     9    1
    10     9    10   am
    11    10    11    2
    12    10    12   am
    13    12    13    1
    14    13    14   ar
    15    14    15   ar
    16    15    16    1
    17    16    17   am
    18    17    18    2
    19    17    19    1
    20    19    20   ar
    21    20    21   ar
    22    21    22   ar
    23    22    23    1
    24    22    24   ar
    25    24    25   ar
    26    19    25   ar
    27    15    26   ar
    28    26    27   ar
    29    27    28   ar
    30    13    28   ar
    31    28    29    1
    32    29    30    1
    33    30    31    1
    34    31    32    1
    35    32    33    1
    36    29    33    1
    37     1    34    1
    38     1    35    1
    39     1    36    1
    40     5    37    1
    41     6    38    1
    42     7    39    1
    43     9    40    1
    44    12    41    1
    45    14    42    1
    46    16    43    1
    47    20    44    1
    48    21    45    1
    49    24    46    1
    50    25    47    1
    51    26    48    1
    52    27    49    1
    53    30    50    1
    54    30    51    1
    55    31    52    1
    56    31    53    1
    57    32    54    1
    58    32    55    1
    59    33    56    1
    60    33    57    1
