REMARK  6 active torsions:
REMARK  status: ('A' for Active; 'I' for Inactive)
REMARK       I    between atoms: C_2  and  N_3 
REMARK    1  A    between atoms: C_2  and  C_18 
REMARK    2  A    between atoms: N_3  and  C_4 
REMARK    3  A    between atoms: C_4  and  C_5 
REMARK    4  A    between atoms: C_9  and  N_10 
REMARK       I    between atoms: N_10  and  C_11 
REMARK    5  A    between atoms: C_11  and  C_13 
REMARK    6  A    between atoms: C_22  and  N_23 
ROOT
ATOM      1  O   UNL d   1       1.004  -0.375   0.029  0.00  0.00    -0.266 OA
ATOM      2  C   UNL d   1       2.209  -0.253  -0.019  0.00  0.00     0.268 C 
ATOM      3  N   UNL d   1       2.828   0.987  -0.262  0.00  0.00    -0.351 N 
ATOM      4  H   UNL d   1       3.818   1.040  -0.172  0.00  0.00     0.163 HD
ENDROOT
BRANCH   3   5
ATOM      5  C   UNL d   1       2.209   2.273  -0.575  0.00  0.00     0.161 C 
BRANCH   5   6
ATOM      6  C   UNL d   1       3.214   3.409  -0.823  0.00  0.00    -0.038 A 
ATOM      7  C   UNL d   1       4.582   3.253  -1.043  0.00  0.00     0.009 A 
ATOM      8  C   UNL d   1       5.430   4.371  -1.104  0.00  0.00     0.003 A 
ATOM      9  C   UNL d   1       4.916   5.676  -1.066  0.00  0.00     0.029 A 
ATOM     10  C   UNL d   1       3.541   5.875  -0.919  0.00  0.00     0.035 A 
ATOM     11  C   UNL d   1       2.727   4.728  -0.814  0.00  0.00     0.038 A 
BRANCH  10  12
ATOM     12  N   UNL d   1       3.011   7.204  -0.845  0.00  0.00    -0.327 N 
ATOM     13  C   UNL d   1       1.665   7.489  -0.614  0.00  0.00     0.226 C 
ATOM     14  O   UNL d   1       0.797   6.619  -0.437  0.00  0.00    -0.273 OA
ATOM     15  H   UNL d   1       3.672   7.971  -0.909  0.00  0.00     0.169 HD
BRANCH  13  16
ATOM     16  C   UNL d   1       1.152   8.906  -0.550  0.00  0.00     0.078 C 
ATOM     17  C   UNL d   1       1.227   9.654   0.806  0.00  0.00     0.014 C 
ATOM     18  C   UNL d   1       1.084  10.952  -0.012  0.00  0.00     0.002 C 
ATOM     19  C   UNL d   1       1.741  10.171  -1.187  0.00  0.00     0.014 C 
ENDBRANCH  13  16
ENDBRANCH  10  12
ENDBRANCH   5   6
ENDBRANCH   3   5
BRANCH   2  20
ATOM     20  C   UNL d   1       3.198  -1.358   0.198  0.00  0.00     0.102 C 
ATOM     21  C   UNL d   1       4.538  -1.137   0.398  0.00  0.00     0.049 C 
ATOM     22  C   UNL d   1       5.136  -2.284   0.903  0.00  0.00    -0.005 C 
ATOM     23  C   UNL d   1       6.360  -2.426   1.543  0.00  0.00     0.050 C 
ATOM     24  C   UNL d   1       4.375  -3.368   0.504  0.00  0.00     0.043 C 
ATOM     25  C   UNL d   1       7.011  -3.645   1.548  0.00  0.00     0.103 C 
ATOM     26  C   UNL d   1       6.387  -4.751   0.966  0.00  0.00     0.038 C 
ATOM     27  C   UNL d   1       5.040  -4.646   0.449  0.00  0.00     0.033 C 
ATOM     28  N   UNL d   1       3.082  -2.777   0.331  0.00  0.00    -0.351 N 
ATOM     29  H   UNL d   1       2.193  -3.251   0.467  0.00  0.00     0.166 HD
BRANCH  25  30
ATOM     30  N   UNL d   1       8.389  -3.644   2.070  0.00  0.00    -0.116 N 
ATOM     31  O   UNL d   1       8.826  -2.572   2.525  0.00  0.00    -0.532 OA
ATOM     32  O   UNL d   1       9.043  -4.691   2.010  0.00  0.00    -0.532 OA
ENDBRANCH  25  30
ENDBRANCH   2  20
TORSDOF 6
