@<TRIPOS>MOLECULE
*****
 39 40 0 0 0
SMALL
GASTEIGER

@<TRIPOS>ATOM
      1 C           1.0460    0.0226    0.1002 C.3     1  UNL1       -0.0650
      2 C           2.5711    0.0275    0.1162 C.3     1  UNL1       -0.0525
      3 C           3.1272    0.4479    1.4882 C.3     1  UNL1       -0.0346
      4 C           4.6412    0.4643    1.5411 C.2     1  UNL1       -0.0791
      5 C           5.3678    0.7970    2.6304 C.2     1  UNL1       -0.0023
      6 C           6.8722    0.7897    2.6080 C.2     1  UNL1        0.2527
      7 O           7.5061    0.4888    1.5976 O.2     1  UNL1       -0.2693
      8 N           7.4923    1.1459    3.7974 N.am    1  UNL1       -0.2305
      9 N           8.9237    1.1723    3.8499 N.am    1  UNL1       -0.2276
     10 C           9.6072    1.4743    5.0328 C.2     1  UNL1        0.2957
     11 O           8.9789    1.7184    6.0711 O.2     1  UNL1       -0.2653
     12 C          11.0725    1.5145    4.9382 C.ar    1  UNL1        0.1948
     13 O          11.8510    1.0313    5.9739 O.2     1  UNL1       -0.4499
     14 C          13.1690    1.2234    5.6429 C.ar    1  UNL1        0.1362
     15 C          14.2927    0.8760    6.4049 C.ar    1  UNL1       -0.0187
     16 C          15.5552    1.1873    5.8695 C.ar    1  UNL1       -0.0582
     17 C          15.6765    1.8155    4.6305 C.ar    1  UNL1       -0.0610
     18 C          14.5359    2.1517    3.8906 C.ar    1  UNL1       -0.0507
     19 C          13.2569    1.8465    4.4051 C.ar    1  UNL1        0.0238
     20 C          11.9121    2.0496    3.9637 C.ar    1  UNL1        0.0077
     21 C          11.4915    2.7712    2.7418 C.3     1  UNL1       -0.0354
     22 H           0.6728   -0.2793   -0.8847 H       1  UNL1        0.0230
     23 H           0.6467    1.0179    0.3200 H       1  UNL1        0.0230
     24 H           0.6467   -0.6788    0.8399 H       1  UNL1        0.0230
     25 H           2.9294    0.7113   -0.6629 H       1  UNL1        0.0266
     26 H           2.9294   -0.9755   -0.1460 H       1  UNL1        0.0266
     27 H           2.7440   -0.2466    2.2458 H       1  UNL1        0.0307
     28 H           2.7439    1.4476    1.7266 H       1  UNL1        0.0307
     29 H           5.1582    0.1829    0.6234 H       1  UNL1        0.0574
     30 H           4.8736    1.0789    3.5521 H       1  UNL1        0.0667
     31 H           7.0031    1.4050    4.6514 H       1  UNL1        0.1731
     32 H           9.3991    0.8569    3.0066 H       1  UNL1        0.1732
     33 H          14.2014    0.3925    7.3708 H       1  UNL1        0.0654
     34 H          16.4583    0.9406    6.4272 H       1  UNL1        0.0619
     35 H          16.6629    2.0517    4.2333 H       1  UNL1        0.0618
     36 H          14.6446    2.6457    2.9296 H       1  UNL1        0.0625
     37 H          12.3500    3.1043    2.1532 H       1  UNL1        0.0279
     38 H          10.9059    3.6537    3.0187 H       1  UNL1        0.0279
     39 H          10.8829    2.1249    2.1062 H       1  UNL1        0.0279
@<TRIPOS>BOND
     1     1     2    1
     2     2     3    1
     3     3     4    1
     4     4     5    2
     5     5     6    1
     6     6     7    2
     7     6     8   am
     8     8     9    1
     9     9    10   am
    10    10    11    2
    11    10    12    1
    12    12    13   ar
    13    13    14   ar
    14    14    15   ar
    15    15    16   ar
    16    16    17   ar
    17    17    18   ar
    18    18    19   ar
    19    14    19   ar
    20    19    20   ar
    21    12    20   ar
    22    20    21    1
    23     1    22    1
    24     1    23    1
    25     1    24    1
    26     2    25    1
    27     2    26    1
    28     3    27    1
    29     3    28    1
    30     4    29    1
    31     5    30    1
    32     8    31    1
    33     9    32    1
    34    15    33    1
    35    16    34    1
    36    17    35    1
    37    18    36    1
    38    21    37    1
    39    21    38    1
    40    21    39    1
