@<TRIPOS>MOLECULE
*****
 38 40 0 0 0
SMALL
GASTEIGER

@<TRIPOS>ATOM
      1 O           1.0952    0.0202   -0.1368 O.2     1  UNL1       -0.2702
      2 C           2.3205   -0.0859   -0.1746 C.2     1  UNL1        0.2443
      3 N           2.9692   -1.2939   -0.4513 N.am    1  UNL1       -0.3085
      4 C           2.1497   -2.4636   -0.6646 C.3     1  UNL1        0.0235
      5 C           2.4498   -3.5697   -1.6330 C.3     1  UNL1       -0.0328
      6 C           2.4194   -3.8518   -0.1562 C.3     1  UNL1       -0.0328
      7 C           3.1198    1.1172    0.1582 C.ar    1  UNL1        0.0385
      8 C           4.2521    1.5212   -0.5325 C.ar    1  UNL1       -0.0495
      9 C           4.9553    2.6478   -0.0823 C.ar    1  UNL1       -0.0593
     10 C           4.4930    3.4051    1.0133 C.ar    1  UNL1       -0.0404
     11 C           3.3296    3.0249    1.6885 C.ar    1  UNL1        0.0344
     12 N           2.8882    3.7428    2.8332 N.am    1  UNL1       -0.2814
     13 C           1.8005    3.3861    3.6155 C.2     1  UNL1        0.2518
     14 O           1.0634    2.4086    3.4454 O.2     1  UNL1       -0.2697
     15 C           1.4240    4.2200    4.7736 C.ar    1  UNL1        0.0797
     16 C           0.7815    3.5566    5.8374 C.ar    1  UNL1       -0.0277
     17 C           0.0801    4.2856    6.7870 C.ar    1  UNL1        0.0419
     18 CL         -0.9038    3.4706    7.9397 Cl      1  UNL1       -0.0835
     19 C           0.0938    5.6770    6.7456 C.ar    1  UNL1       -0.0399
     20 C           0.7783    6.3433    5.7207 C.ar    1  UNL1       -0.0180
     21 C           1.4460    5.6139    4.7340 C.ar    1  UNL1        0.1290
     22 O           2.0914    6.2577    3.7171 O.3     1  UNL1       -0.5060
     23 C           2.6479    1.8989    1.2195 C.ar    1  UNL1       -0.0284
     24 H           3.9766   -1.3637   -0.3666 H       1  UNL1        0.1493
     25 H           1.0931   -2.1966   -0.6357 H       1  UNL1        0.0498
     26 H           3.4086   -3.6850   -2.1190 H       1  UNL1        0.0284
     27 H           1.6116   -3.8942   -2.2439 H       1  UNL1        0.0284
     28 H           3.3570   -4.1567    0.2882 H       1  UNL1        0.0284
     29 H           1.5610   -4.3807    0.2525 H       1  UNL1        0.0284
     30 H           4.5640    0.9970   -1.4298 H       1  UNL1        0.0625
     31 H           5.8805    2.9299   -0.5811 H       1  UNL1        0.0618
     32 H           5.0616    4.2813    1.3181 H       1  UNL1        0.0636
     33 H           3.3955    4.5813    3.1022 H       1  UNL1        0.1551
     34 H           0.7726    2.4672    5.8721 H       1  UNL1        0.0641
     35 H          -0.4457    6.2450    7.4994 H       1  UNL1        0.0633
     36 H           0.7342    7.4276    5.6860 H       1  UNL1        0.0655
     37 H           1.9568    7.2167    3.8036 H       1  UNL1        0.2922
     38 H           1.7129    1.5801    1.6641 H       1  UNL1        0.0644
@<TRIPOS>BOND
     1     1     2    2
     2     2     3   am
     3     3     4    1
     4     4     5    1
     5     5     6    1
     6     4     6    1
     7     2     7    1
     8     7     8   ar
     9     8     9   ar
    10     9    10   ar
    11    10    11   ar
    12    11    12    1
    13    12    13   am
    14    13    14    2
    15    13    15    1
    16    15    16   ar
    17    16    17   ar
    18    17    18    1
    19    17    19   ar
    20    19    20   ar
    21    20    21   ar
    22    15    21   ar
    23    21    22    1
    24    11    23   ar
    25     7    23   ar
    26     3    24    1
    27     4    25    1
    28     5    26    1
    29     5    27    1
    30     6    28    1
    31     6    29    1
    32     8    30    1
    33     9    31    1
    34    10    32    1
    35    12    33    1
    36    16    34    1
    37    19    35    1
    38    20    36    1
    39    22    37    1
    40    23    38    1
