@<TRIPOS>MOLECULE
*****
 72 73 0 0 0
SMALL
GASTEIGER

@<TRIPOS>ATOM
      1 C           8.1427   10.5564   -4.4247 C.3     1  UNL1       -0.0653
      2 C           7.6503   10.0001   -3.1140 C.3     1  UNL1       -0.0559
      3 C           8.3897    8.7402   -2.7506 C.3     1  UNL1       -0.0533
      4 C           7.8248    8.2732   -1.4119 C.3     1  UNL1       -0.0516
      5 C           8.5260    7.0146   -1.0896 C.3     1  UNL1       -0.0371
      6 C           8.1773    6.3079    0.1714 C.3     1  UNL1        0.0158
      7 N           8.9029    5.0274    0.3113 N.am    1  UNL1       -0.2854
      8 C          10.0724    4.7981   -0.3965 C.2     1  UNL1        0.2208
      9 O          11.0458    4.3482    0.2252 O.2     1  UNL1       -0.2752
     10 C          10.4252    5.2154   -1.8181 C.3     1  UNL1        0.0496
     11 C          11.1201    4.2652   -2.7626 C.ar    1  UNL1       -0.0357
     12 C          11.4771    4.8253   -4.0113 C.ar    1  UNL1       -0.0579
     13 C          12.0576    4.0401   -4.9982 C.ar    1  UNL1       -0.0615
     14 C          12.3017    2.6960   -4.7489 C.ar    1  UNL1       -0.0615
     15 C          11.9520    2.1360   -3.5304 C.ar    1  UNL1       -0.0586
     16 C          11.3374    2.8977   -2.5432 C.ar    1  UNL1       -0.0468
     17 C          11.0087    2.1743   -1.2817 C.3     1  UNL1       -0.0394
     18 C           8.5393    4.2394    1.5938 C.3     1  UNL1        0.1341
     19 C           6.9849    4.0925    1.4387 C.2     1  UNL1        0.2383
     20 O           6.4484    3.4583    0.5234 O.2     1  UNL1       -0.2734
     21 N           6.2133    4.9097    2.2547 N.am    1  UNL1       -0.3135
     22 C           4.7739    4.8233    2.1466 C.3     1  UNL1        0.0116
     23 C           4.0804    5.9550    2.8777 C.3     1  UNL1       -0.0376
     24 C           2.5658    5.7922    2.8073 C.3     1  UNL1       -0.0545
     25 C           1.8795    6.9251    3.5460 C.3     1  UNL1       -0.0652
     26 C           9.2626    2.8950    1.8617 C.ar    1  UNL1        0.0648
     27 C          10.6442    2.8191    2.1602 C.ar    1  UNL1        0.1292
     28 O          11.3737    3.9422    2.4791 O.3     1  UNL1       -0.5062
     29 C          11.3739    1.6240    2.0703 C.ar    1  UNL1        0.0219
     30 C          10.6912    0.4390    1.8525 C.ar    1  UNL1        0.1238
     31 O          11.3197   -0.7673    1.7775 O.3     1  UNL1       -0.5065
     32 C           9.3118    0.4419    1.7563 C.ar    1  UNL1        0.0219
     33 C           8.6162    1.6511    1.8031 C.ar    1  UNL1        0.1292
     34 O           7.2613    1.5624    1.9377 O.3     1  UNL1       -0.5062
     35 H           7.5916   11.4693   -4.6578 H       1  UNL1        0.0230
     36 H           7.9899    9.8346   -5.2327 H       1  UNL1        0.0230
     37 H           9.2096   10.7921   -4.3670 H       1  UNL1        0.0230
     38 H           6.5797    9.7759   -3.1764 H       1  UNL1        0.0263
     39 H           7.7919   10.7342   -2.3136 H       1  UNL1        0.0263
     40 H           9.4733    8.9207   -2.6825 H       1  UNL1        0.0265
     41 H           8.2620    7.9712   -3.5286 H       1  UNL1        0.0265
     42 H           6.7562    8.0589   -1.4932 H       1  UNL1        0.0266
     43 H           8.0049    9.0035   -0.6217 H       1  UNL1        0.0266
     44 H           9.5922    7.2564   -1.0766 H       1  UNL1        0.0280
     45 H           8.2088    6.3412   -1.8865 H       1  UNL1        0.0280
     46 H           7.1036    6.1117    0.1384 H       1  UNL1        0.0465
     47 H           8.3904    6.9426    1.0413 H       1  UNL1        0.0465
     48 H          11.1089    6.0681   -1.6712 H       1  UNL1        0.0407
     49 H           9.5903    5.5012   -2.4368 H       1  UNL1        0.0407
     50 H          11.2745    5.8765   -4.2266 H       1  UNL1        0.0620
     51 H          12.3150    4.4729   -5.9587 H       1  UNL1        0.0618
     52 H          12.7616    2.0652   -5.4984 H       1  UNL1        0.0618
     53 H          12.1505    1.0878   -3.3282 H       1  UNL1        0.0620
     54 H          11.1273    1.0911   -1.3394 H       1  UNL1        0.0278
     55 H           9.9657    2.3551   -1.0095 H       1  UNL1        0.0278
     56 H          11.7442    2.4858   -0.5410 H       1  UNL1        0.0278
     57 H           8.7447    4.8940    2.4535 H       1  UNL1        0.0650
     58 H           6.6365    5.6894    2.7420 H       1  UNL1        0.1487
     59 H           4.4847    3.8528    2.5654 H       1  UNL1        0.0462
     60 H           4.4861    4.8253    1.0878 H       1  UNL1        0.0462
     61 H           4.3744    6.9141    2.4331 H       1  UNL1        0.0280
     62 H           4.4078    5.9739    3.9238 H       1  UNL1        0.0280
     63 H           2.2707    4.8335    3.2502 H       1  UNL1        0.0263
     64 H           2.2347    5.7816    1.7618 H       1  UNL1        0.0263
     65 H           2.1819    6.9378    4.5980 H       1  UNL1        0.0230
     66 H           0.7935    6.8080    3.5005 H       1  UNL1        0.0230
     67 H           2.1422    7.8903    3.1015 H       1  UNL1        0.0230
     68 H          11.1377    4.5887    1.7767 H       1  UNL1        0.2922
     69 H          12.4597    1.6566    2.1020 H       1  UNL1        0.0691
     70 H          12.2732   -0.6299    1.8979 H       1  UNL1        0.2921
     71 H           8.7788   -0.4986    1.6733 H       1  UNL1        0.0691
     72 H           6.9303    0.8179    1.4078 H       1  UNL1        0.2922
@<TRIPOS>BOND
     1     1     2    1
     2     2     3    1
     3     3     4    1
     4     4     5    1
     5     5     6    1
     6     6     7    1
     7     7     8   am
     8     8     9    2
     9     8    10    1
    10    10    11    1
    11    11    12   ar
    12    12    13   ar
    13    13    14   ar
    14    14    15   ar
    15    15    16   ar
    16    11    16   ar
    17    16    17    1
    18    19    20    2
    19    19    21   am
    20    21    22    1
    21    22    23    1
    22    23    24    1
    23    24    25    1
    24    18    26    1
    25    26    27   ar
    26    27    28    1
    27    27    29   ar
    28    29    30   ar
    29    30    31    1
    30    30    32   ar
    31    32    33   ar
    32    26    33   ar
    33    33    34    1
    34    18    19    1
    35    18     7    1
    36     1    35    1
    37     1    36    1
    38     1    37    1
    39     2    38    1
    40     2    39    1
    41     3    40    1
    42     3    41    1
    43     4    42    1
    44     4    43    1
    45     5    44    1
    46     5    45    1
    47     6    46    1
    48     6    47    1
    49    10    48    1
    50    10    49    1
    51    12    50    1
    52    13    51    1
    53    14    52    1
    54    15    53    1
    55    17    54    1
    56    17    55    1
    57    17    56    1
    58    18    57    1
    59    21    58    1
    60    22    59    1
    61    22    60    1
    62    23    61    1
    63    23    62    1
    64    24    63    1
    65    24    64    1
    66    25    65    1
    67    25    66    1
    68    25    67    1
    69    28    68    1
    70    29    69    1
    71    31    70    1
    72    32    71    1
    73    34    72    1
