@<TRIPOS>MOLECULE
*****
 68 71 0 0 0
SMALL
GASTEIGER

@<TRIPOS>ATOM
      1 C           7.6419    9.0756    2.3999 C.3     1  UNL1        0.0788
      2 O           6.6211    8.3545    1.7341 O.3     1  UNL1       -0.4951
      3 C           6.3735    7.1315    2.2714 C.ar    1  UNL1        0.1201
      4 C           5.7731    6.2254    1.4281 C.ar    1  UNL1       -0.0196
      5 C           5.1867    5.1017    1.9854 C.ar    1  UNL1       -0.0529
      6 C           5.5064    4.6389    3.2616 C.ar    1  UNL1       -0.0180
      7 C           5.3293    3.1854    3.7324 C.3     1  UNL1        0.1280
      8 C           5.0912    2.0921    2.5350 C.2     1  UNL1        0.2383
      9 O           5.3318    0.9205    2.7649 O.2     1  UNL1       -0.2734
     10 N           4.7040    2.5272    1.2566 N.am    1  UNL1       -0.3106
     11 C           4.0331    1.8178    0.1290 C.3     1  UNL1        0.0232
     12 C           4.2019    0.3183    0.2132 C.3     1  UNL1       -0.0345
     13 C           3.2919   -0.5230   -0.6732 C.3     1  UNL1       -0.0514
     14 C           1.8273   -0.0848   -0.8228 C.3     1  UNL1       -0.0529
     15 C           1.6833    1.4239   -0.9699 C.3     1  UNL1       -0.0514
     16 C           2.6097    2.3491   -0.1505 C.3     1  UNL1       -0.0345
     17 N           4.6120    3.0769    5.0816 N.am    1  UNL1       -0.2771
     18 C           3.2949    2.5031    5.1953 C.3     1  UNL1        0.0411
     19 C           2.7744    1.5977    4.1698 C.ar    1  UNL1       -0.0301
     20 C           1.9346    2.1436    3.2156 C.ar    1  UNL1       -0.0571
     21 C           1.3226    1.2778    2.3558 C.ar    1  UNL1       -0.0615
     22 C           1.8273   -0.0181    2.3056 C.ar    1  UNL1       -0.0617
     23 C           2.7091   -0.5769    3.1956 C.ar    1  UNL1       -0.0615
     24 C           3.1254    0.2274    4.2045 C.ar    1  UNL1       -0.0571
     25 C           5.2225    3.5398    6.3033 C.2     1  UNL1        0.2577
     26 O           6.3903    3.8488    6.3625 O.2     1  UNL1       -0.2693
     27 C           4.4179    3.5485    7.5298 C.ar    1  UNL1        0.1153
     28 S           4.1431    4.9457    8.4783 S.2     1  UNL1        0.0190
     29 N           3.2525    4.1832    9.6898 N.ar    1  UNL1       -0.2031
     30 C           3.2116    2.8704    9.4152 C.ar    1  UNL1        0.1554
     31 C           2.5290    1.8564   10.2441 C.2     1  UNL1        0.2624
     32 N           1.9638    2.2524   11.4217 N.am    1  UNL1       -0.3240
     33 O           2.4422    0.6787    9.9207 O.2     1  UNL1       -0.2687
     34 C           3.9289    2.4806    8.2360 C.ar    1  UNL1        0.0765
     35 N           4.1104    1.1915    7.8718 N.pl3   1  UNL1       -0.3551
     36 C           6.1200    5.5804    4.0790 C.ar    1  UNL1       -0.0529
     37 C           6.5128    6.8198    3.6113 C.ar    1  UNL1       -0.0196
     38 H           7.6208   10.0935    2.0135 H       1  UNL1        0.0660
     39 H           8.6025    8.6084    2.1712 H       1  UNL1        0.0660
     40 H           7.4985    9.1547    3.4812 H       1  UNL1        0.0660
     41 H           5.6690    6.4222    0.3656 H       1  UNL1        0.0654
     42 H           4.4152    4.6467    1.3817 H       1  UNL1        0.0622
     43 H           6.3570    2.8795    4.0002 H       1  UNL1        0.0648
     44 H           5.3780    3.1763    0.8823 H       1  UNL1        0.1490
     45 H           4.5859    2.1450   -0.7611 H       1  UNL1        0.0498
     46 H           4.0670   -0.0166    1.2295 H       1  UNL1        0.0283
     47 H           5.2591    0.0828    0.0292 H       1  UNL1        0.0283
     48 H           3.3437   -1.5572   -0.3061 H       1  UNL1        0.0266
     49 H           3.7298   -0.5186   -1.6734 H       1  UNL1        0.0266
     50 H           1.1106   -0.4445   -0.0796 H       1  UNL1        0.0265
     51 H           1.3954   -0.6172   -1.6775 H       1  UNL1        0.0265
     52 H           0.6318    1.6986   -0.7970 H       1  UNL1        0.0266
     53 H           1.8851    1.6273   -2.0219 H       1  UNL1        0.0266
     54 H           2.1595    2.7184    0.7649 H       1  UNL1        0.0283
     55 H           2.6507    3.3073   -0.6881 H       1  UNL1        0.0283
     56 H           2.5629    3.2595    5.4868 H       1  UNL1        0.0514
     57 H           3.2948    1.8034    6.0067 H       1  UNL1        0.0514
     58 H           1.8734    3.2248    3.0898 H       1  UNL1        0.0621
     59 H           0.6812    1.6627    1.5697 H       1  UNL1        0.0618
     60 H           1.8422   -0.5658    1.4002 H       1  UNL1        0.0618
     61 H           3.2204   -1.5006    2.9296 H       1  UNL1        0.0618
     62 H           3.8936   -0.1586    4.8658 H       1  UNL1        0.0621
     63 H           1.9997    3.2052   11.7451 H       1  UNL1        0.1453
     64 H           1.5229    1.5241   11.9661 H       1  UNL1        0.1453
     65 H           3.4765    0.4755    8.2408 H       1  UNL1        0.1424
     66 H           4.6164    0.9077    7.0379 H       1  UNL1        0.1424
     67 H           6.2817    5.4442    5.1318 H       1  UNL1        0.0622
     68 H           6.8965    7.5033    4.3551 H       1  UNL1        0.0654
@<TRIPOS>BOND
     1     1     2    1
     2     2     3    1
     3     3     4   ar
     4     4     5   ar
     5     5     6   ar
     6     8     9    2
     7     8    10   am
     8    10    11    1
     9    11    12    1
    10    12    13    1
    11    13    14    1
    12    14    15    1
    13    15    16    1
    14    11    16    1
    15     7    17    1
    16    17    18    1
    17    18    19    1
    18    19    20   ar
    19    20    21   ar
    20    21    22   ar
    21    22    23   ar
    22    23    24   ar
    23    19    24   ar
    24    17    25   am
    25    25    26    2
    26    25    27    1
    27    27    28   ar
    28    28    29   ar
    29    29    30   ar
    30    30    31    1
    31    31    32   am
    32    31    33    2
    33    30    34   ar
    34    27    34   ar
    35    34    35    1
    36     6    36   ar
    37    36    37   ar
    38     3    37   ar
    39     7     8    1
    40     7     6    1
    41     1    38    1
    42     1    39    1
    43     1    40    1
    44     4    41    1
    45     5    42    1
    46     7    43    1
    47    10    44    1
    48    11    45    1
    49    12    46    1
    50    12    47    1
    51    13    48    1
    52    13    49    1
    53    14    50    1
    54    14    51    1
    55    15    52    1
    56    15    53    1
    57    16    54    1
    58    16    55    1
    59    18    56    1
    60    18    57    1
    61    20    58    1
    62    21    59    1
    63    22    60    1
    64    23    61    1
    65    24    62    1
    66    32    63    1
    67    32    64    1
    68    35    65    1
    69    35    66    1
    70    36    67    1
    71    37    68    1
