@<TRIPOS>MOLECULE
*****
 51 54 0 0 0
SMALL
GASTEIGER

@<TRIPOS>ATOM
      1 C           3.2238    0.7028    0.6952 C.3     1  UNL1       -0.0216
      2 C           2.6944    0.1800   -0.5764 C.3     1  UNL1       -0.0234
      3 C           3.1417    1.3646   -1.3850 C.3     1  UNL1       -0.0097
      4 C           4.6864    1.5356   -1.3079 C.3     1  UNL1       -0.0432
      5 C           5.2803    0.2802   -1.8867 C.3     1  UNL1       -0.0123
      6 C           4.9135   -0.9468   -1.0940 C.3     1  UNL1       -0.0313
      7 N           3.4028   -1.1398   -0.9126 N.4     1  UNL1        0.2416
      8 C           2.7478   -1.8731   -2.0265 C.3     1  UNL1        0.0142
      9 C           3.3471   -3.1604   -2.4511 C.ar    1  UNL1        0.1234
     10 C           4.3757   -4.0348   -2.0137 C.ar    1  UNL1        0.1773
     11 C           5.3894   -4.0616   -0.8511 C.2     1  UNL1        0.2854
     12 O           6.4497   -4.7223   -0.9783 O.2     1  UNL1       -0.2666
     13 N           5.1499   -3.3038    0.3234 N.am    1  UNL1       -0.2016
     14 N           6.1275   -2.9146    1.2338 N.2     1  UNL1       -0.1874
     15 C           5.9358   -2.0437    2.2032 C.2     1  UNL1        0.0533
     16 C           4.7366   -1.2835    2.6407 C.ar    1  UNL1        0.0015
     17 C           3.3199   -1.6588    2.6299 C.ar    1  UNL1       -0.0461
     18 C           2.4620   -0.6380    3.0800 C.ar    1  UNL1       -0.0237
     19 S           3.3882    0.6712    3.7720 S.2     1  UNL1       -0.1044
     20 C           4.8541    0.0489    3.0656 C.ar    1  UNL1       -0.0157
     21 N           4.4895   -4.9988   -2.9992 N.ar    1  UNL1       -0.1239
     22 N           3.5058   -4.8843   -3.8788 N.ar    1  UNL1       -0.0581
     23 N           2.7805   -3.7841   -3.6045 N.ar    1  UNL1       -0.1868
     24 C           1.7017   -3.3267   -4.4432 C.ar    1  UNL1        0.2404
     25 N           0.6903   -4.1419   -4.7561 N.ar    1  UNL1       -0.0272
     26 O          -0.2014   -3.3264   -5.4734 O.2     1  UNL1       -0.2388
     27 N           0.2892   -2.0272   -5.5903 N.ar    1  UNL1       -0.0319
     28 C           1.4681   -2.0426   -4.9762 C.ar    1  UNL1        0.2064
     29 N           2.2954   -0.9762   -4.8957 N.pl3   1  UNL1       -0.3375
     30 H           2.7790    1.6292    1.0610 H       1  UNL1        0.0284
     31 H           4.3002    0.6933    0.7858 H       1  UNL1        0.0284
     32 H           3.0135   -0.0749    1.3122 H       1  UNL1        0.0284
     33 H           1.6201   -0.0482   -0.4661 H       1  UNL1        0.0848
     34 H           2.6722    2.2562   -0.9433 H       1  UNL1        0.0320
     35 H           2.7775    1.2659   -2.3992 H       1  UNL1        0.0320
     36 H           5.1467    1.6886   -0.3136 H       1  UNL1        0.0269
     37 H           4.9906    2.4520   -1.7971 H       1  UNL1        0.0269
     38 H           6.3708    0.3469   -1.8934 H       1  UNL1        0.0317
     39 H           4.9168    0.1583   -2.9057 H       1  UNL1        0.0317
     40 H           5.3546   -0.9009   -0.1007 H       1  UNL1        0.0814
     41 H           5.3434   -1.7916   -1.6237 H       1  UNL1        0.0814
     42 H           3.1502   -1.7543   -0.1354 H       1  UNL1        0.2040
     43 H           1.6961   -2.0431   -1.7497 H       1  UNL1        0.0883
     44 H           2.7745   -1.1328   -2.8040 H       1  UNL1        0.0883
     45 H           4.2878   -2.8380    0.4459 H       1  UNL1        0.1776
     46 H           6.8312   -1.7856    2.8075 H       1  UNL1        0.0851
     47 H           2.9441   -2.4947    2.0518 H       1  UNL1        0.0629
     48 H           1.4565   -0.4059    2.6841 H       1  UNL1        0.0693
     49 H           5.6971    0.7332    2.9290 H       1  UNL1        0.0700
     50 H           2.0795   -0.1978   -5.5204 H       1  UNL1        0.1439
     51 H           3.2998   -1.1224   -4.8396 H       1  UNL1        0.1439
@<TRIPOS>UNITY_ATOM_ATTR
7 1
charge 1
@<TRIPOS>BOND
     1     2     3    1
     2     3     4    1
     3     4     5    1
     4     5     6    1
     5     6     7    1
     6     2     7    1
     7     8     9    1
     8     9    10   ar
     9    10    11    1
    10    11    12    2
    11    11    13   am
    12    13    14    1
    13    14    15    2
    14    15    16    1
    15    16    17   ar
    16    17    18   ar
    17    18    19   ar
    18    19    20   ar
    19    16    20   ar
    20    10    21   ar
    21    21    22   ar
    22    22    23   ar
    23     9    23   ar
    24    23    24    1
    25    24    25   ar
    26    25    26   ar
    27    26    27   ar
    28    27    28   ar
    29    24    28   ar
    30    28    29    1
    31     2     1    1
    32     7     8    1
    33     1    30    1
    34     1    31    1
    35     1    32    1
    36     2    33    1
    37     3    34    1
    38     3    35    1
    39     4    36    1
    40     4    37    1
    41     5    38    1
    42     5    39    1
    43     6    40    1
    44     6    41    1
    45     7    42    1
    46     8    43    1
    47     8    44    1
    48    13    45    1
    49    15    46    1
    50    17    47    1
    51    18    48    1
    52    20    49    1
    53    29    50    1
    54    29    51    1
