REMARK  5 active torsions:
REMARK  status: ('A' for Active; 'I' for Inactive)
REMARK    1  A    between atoms: C_2  and  N_3 
REMARK       I    between atoms: N_3  and  C_4 
REMARK       I    between atoms: C_4  and  N_6 
REMARK       I    between atoms: C_7  and  N_8 
REMARK       I    between atoms: C_7  and  N_21 
REMARK    2  A    between atoms: N_8  and  C_9 
REMARK    3  A    between atoms: C_9  and  C_10 
REMARK    4  A    between atoms: C_10  and  C_11 
REMARK    5  A    between atoms: N_21  and  C_22 
ROOT
ATOM      1  N   UNL d   1       2.797   0.080  -1.577  0.00  0.00    -0.341 N 
ATOM      2  C   UNL d   1       4.167   0.086  -1.699  0.00  0.00     0.357 C 
ATOM      3  O   UNL d   1       4.677  -0.013  -0.583  0.00  0.00    -0.244 OA
ATOM      4  N   UNL d   1       4.788   0.187  -2.937  0.00  0.00    -0.006 NA
ATOM      5  C   UNL d   1       6.103   0.214  -3.120  0.00  0.00     0.719 C 
ATOM      6  N   UNL d   1       7.136   0.207  -2.185  0.00  0.00    -0.223 N 
ATOM      7  N   UNL d   1       6.621   0.360  -4.414  0.00  0.00    -0.017 N 
ATOM      8  H   UNL d   1       2.202   0.140  -2.385  0.00  0.00     0.164 HD
ATOM      9  H   UNL d   1       8.068   0.007  -2.537  0.00  0.00     0.177 HD
ATOM     10  H   UNL d   1       5.992   0.585  -5.166  0.00  0.00     0.203 HD
ENDROOT
BRANCH   6  11
ATOM     11  C   UNL d   1       6.939   0.015  -0.778  0.00  0.00     0.142 C 
BRANCH  11  12
ATOM     12  C   UNL d   1       8.059  -0.072   0.215  0.00  0.00     0.061 C 
BRANCH  12  13
ATOM     13  C   UNL d   1       7.464  -0.189   1.612  0.00  0.00    -0.029 A 
ATOM     14  C   UNL d   1       7.020   0.855   2.407  0.00  0.00     0.096 A 
ATOM     15  N   UNL d   1       6.574   0.344   3.598  0.00  0.00    -0.365 N 
ATOM     16  C   UNL d   1       6.678  -1.026   3.595  0.00  0.00     0.043 A 
ATOM     17  H   UNL d   1       6.221   0.890   4.372  0.00  0.00     0.165 HD
ATOM     18  C   UNL d   1       6.377  -1.954   4.603  0.00  0.00     0.033 A 
ATOM     19  C   UNL d   1       7.171  -1.394   2.339  0.00  0.00     0.001 A 
ATOM     20  C   UNL d   1       6.556  -3.307   4.306  0.00  0.00     0.044 A 
ATOM     21  C   UNL d   1       6.994  -3.697   3.046  0.00  0.00     0.117 A 
ATOM     22  F   UNL d   1       7.143  -5.003   2.785  0.00  0.00    -0.206 F 
ATOM     23  C   UNL d   1       7.300  -2.767   2.052  0.00  0.00     0.056 A 
ENDBRANCH  12  13
ENDBRANCH  11  12
ENDBRANCH   6  11
BRANCH   7  24
ATOM     24  C   UNL d   1       7.971   0.347  -4.817  0.00  0.00     0.741 A 
ATOM     25  N   UNL d   1       8.807  -0.494  -4.175  0.00  0.00    -0.067 NA
ATOM     26  C   UNL d   1      10.117  -0.498  -4.492  0.00  0.00     0.051 A 
ATOM     27  C   UNL d   1      10.970  -1.503  -3.781  0.00  0.00     0.071 C 
ATOM     28  C   UNL d   1      10.653   0.384  -5.399  0.00  0.00     0.054 A 
ATOM     29  C   UNL d   1       9.755   1.227  -6.026  0.00  0.00     0.051 A 
ATOM     30  C   UNL d   1      10.276   2.248  -7.007  0.00  0.00     0.071 C 
ATOM     31  N   UNL d   1       8.412   1.187  -5.779  0.00  0.00    -0.067 NA
ENDBRANCH   7  24
BRANCH   1  32
ATOM     32  C   UNL d   1       2.306  -0.040  -0.194  0.00  0.00     0.120 C 
ATOM     33  C   UNL d   1       0.814  -0.050  -0.065  0.00  0.00     0.026 C 
ENDBRANCH   1  32
TORSDOF 5
