@<TRIPOS>MOLECULE
*****
 41 42 0 0 0
SMALL
GASTEIGER

@<TRIPOS>ATOM
      1 C           1.0538    0.0165    0.0858 C.3     1  UNL1        0.0833
      2 O           2.4929    0.0244    0.0991 O.3     1  UNL1       -0.4535
      3 C           3.0184   -0.4046    1.2813 C.2     1  UNL1        0.4043
      4 O           2.3151   -0.7689    2.2257 O.2     1  UNL1       -0.2261
      5 N           4.3953   -0.3265    1.2919 N.am    1  UNL1       -0.2512
      6 C           5.1973   -0.8025    2.3553 C.ar    1  UNL1        0.0365
      7 C           6.4059   -0.1919    2.7006 C.ar    1  UNL1       -0.0401
      8 C           7.2123   -0.7351    3.7297 C.ar    1  UNL1       -0.0553
      9 C           6.8109   -1.8779    4.4547 C.ar    1  UNL1       -0.0302
     10 C           7.6304   -2.3715    5.6415 C.3     1  UNL1        0.0373
     11 N           7.0929   -3.5282    6.3453 N.am    1  UNL1       -0.3035
     12 C           7.6649   -4.1007    7.4659 C.2     1  UNL1        0.2996
     13 O           8.6914   -3.7339    8.0170 O.2     1  UNL1       -0.2652
     14 C           6.8642   -5.3216    8.0045 C.2     1  UNL1        0.3031
     15 O           5.8508   -5.6490    7.3935 O.2     1  UNL1       -0.2648
     16 N           7.3532   -5.9096    9.1686 N.am    1  UNL1       -0.2777
     17 C           6.8384   -7.1128    9.7139 C.ar    1  UNL1        0.0352
     18 C           6.8617   -7.3507   11.0953 C.ar    1  UNL1       -0.0404
     19 C           6.4423   -8.5906   11.6096 C.ar    1  UNL1       -0.0586
     20 C           5.9748   -9.5871   10.7518 C.ar    1  UNL1       -0.0433
     21 C           5.9529   -9.3496    9.3821 C.ar    1  UNL1        0.0427
     22 CL          5.4700  -10.5981    8.3000 Cl      1  UNL1       -0.0835
     23 C           6.3706   -8.1228    8.8677 C.ar    1  UNL1       -0.0221
     24 C           5.6153   -2.4855    4.0607 C.ar    1  UNL1       -0.0553
     25 C           4.8194   -1.9499    3.0460 C.ar    1  UNL1       -0.0401
     26 H           0.7027    0.3640   -0.8905 H       1  UNL1        0.0661
     27 H           0.6584    0.6975    0.8486 H       1  UNL1        0.0661
     28 H           0.6622   -0.9954    0.2456 H       1  UNL1        0.0661
     29 H           4.8402    0.1367    0.5105 H       1  UNL1        0.1582
     30 H           6.7062    0.7470    2.2388 H       1  UNL1        0.0636
     31 H           8.1574   -0.2446    3.9658 H       1  UNL1        0.0621
     32 H           7.7026   -1.5602    6.3761 H       1  UNL1        0.0512
     33 H           8.6460   -2.6233    5.3160 H       1  UNL1        0.0512
     34 H           6.2164   -3.9515    6.0616 H       1  UNL1        0.1495
     35 H           8.1171   -5.4401    9.6475 H       1  UNL1        0.1553
     36 H           7.1454   -6.5706   11.7986 H       1  UNL1        0.0636
     37 H           6.4852   -8.7892   12.6793 H       1  UNL1        0.0619
     38 H           5.6368  -10.5412   11.1493 H       1  UNL1        0.0632
     39 H           6.3799   -7.9854    7.7912 H       1  UNL1        0.0651
     40 H           5.2491   -3.3970    4.5160 H       1  UNL1        0.0621
     41 H           3.9067   -2.4798    2.7881 H       1  UNL1        0.0636
@<TRIPOS>BOND
     1     1     2    1
     2     2     3    1
     3     3     4    2
     4     3     5   am
     5     5     6    1
     6     6     7   ar
     7     7     8   ar
     8     8     9   ar
     9     9    10    1
    10    10    11    1
    11    11    12   am
    12    12    13    2
    13    12    14    1
    14    14    15    2
    15    14    16   am
    16    16    17    1
    17    17    18   ar
    18    18    19   ar
    19    19    20   ar
    20    20    21   ar
    21    21    22    1
    22    21    23   ar
    23    17    23   ar
    24     9    24   ar
    25    24    25   ar
    26     6    25   ar
    27     1    26    1
    28     1    27    1
    29     1    28    1
    30     5    29    1
    31     7    30    1
    32     8    31    1
    33    10    32    1
    34    10    33    1
    35    11    34    1
    36    16    35    1
    37    18    36    1
    38    19    37    1
    39    20    38    1
    40    23    39    1
    41    24    40    1
    42    25    41    1
