@<TRIPOS>MOLECULE
*****
 64 66 0 0 0
SMALL
GASTEIGER

@<TRIPOS>ATOM
      1 C           1.0067    0.0917    0.0450 C.3     1  UNL1       -0.0652
      2 C           2.5250    0.0938    0.0306 C.3     1  UNL1       -0.0528
      3 C           3.0575   -0.0752   -1.3902 C.3     1  UNL1       -0.0189
      4 C           4.5805   -0.0557   -1.4136 C.3     1  UNL1        0.0896
      5 O           5.0160   -0.0951   -2.7811 O.3     1  UNL1       -0.4919
      6 C           6.3661   -0.2264   -2.9658 C.ar    1  UNL1        0.1223
      7 C           6.9372    0.3697   -4.0774 C.ar    1  UNL1       -0.0198
      8 C           8.2887    0.1455   -4.3685 C.ar    1  UNL1       -0.0566
      9 C           9.0903   -0.6369   -3.5162 C.ar    1  UNL1       -0.0402
     10 C           8.5206   -1.2459   -2.3949 C.ar    1  UNL1        0.0369
     11 N           9.2821   -2.1053   -1.5506 N.am    1  UNL1       -0.2841
     12 C           8.7525   -2.7905   -0.4571 C.2     1  UNL1        0.2343
     13 O           7.5916   -2.7166   -0.0429 O.2     1  UNL1       -0.2738
     14 C           9.7049   -3.7034    0.3143 C.3     1  UNL1        0.0861
     15 N           8.9052   -4.4322    1.3030 N.pl3   1  UNL1       -0.3354
     16 C           9.3881   -5.1255    2.3829 C.ar    1  UNL1        0.0283
     17 C           8.5943   -6.1397    2.9247 C.ar    1  UNL1       -0.0394
     18 C           8.9965   -6.8470    4.0496 C.ar    1  UNL1       -0.0409
     19 C          10.2405   -6.5999    4.6158 C.ar    1  UNL1        0.0532
     20 CL         10.6318   -7.6604    5.9359 Cl      1  UNL1       -0.0828
     21 C          11.0659   -5.5854    4.0799 C.ar    1  UNL1        0.0567
     22 C          12.3399   -5.2258    4.7326 C.2     1  UNL1        0.2458
     23 O          12.6341   -5.8726    5.7357 O.2     1  UNL1       -0.2701
     24 N          13.1402   -4.1993    4.2438 N.am    1  UNL1       -0.3085
     25 C          14.3964   -3.7756    4.8866 C.3     1  UNL1        0.0234
     26 C          14.2816   -2.3418    5.4276 C.3     1  UNL1       -0.0345
     27 C          15.5339   -1.9205    6.2045 C.3     1  UNL1       -0.0514
     28 C          15.8861   -2.9125    7.3094 C.3     1  UNL1       -0.0529
     29 C          16.0951   -4.3025    6.7322 C.3     1  UNL1       -0.0514
     30 C          14.8552   -4.7289    5.9945 C.3     1  UNL1       -0.0345
     31 C          10.6326   -4.8764    2.9510 C.ar    1  UNL1       -0.0273
     32 C           7.1635   -1.0200   -2.1546 C.ar    1  UNL1        0.0013
     33 H           0.6348    0.2256    1.0651 H       1  UNL1        0.0230
     34 H           0.6152   -0.8549   -0.3410 H       1  UNL1        0.0230
     35 H           0.6124    0.9047   -0.5727 H       1  UNL1        0.0230
     36 H           2.8952   -0.7140    0.6736 H       1  UNL1        0.0264
     37 H           2.8902    1.0367    0.4541 H       1  UNL1        0.0264
     38 H           2.6725    0.7162   -2.0424 H       1  UNL1        0.0298
     39 H           2.6997   -1.0227   -1.8148 H       1  UNL1        0.0298
     40 H           4.9172   -0.9137   -0.8220 H       1  UNL1        0.0696
     41 H           4.9575    0.8665   -0.9583 H       1  UNL1        0.0696
     42 H           6.3293    1.0056   -4.7145 H       1  UNL1        0.0654
     43 H           8.7073    0.5699   -5.2788 H       1  UNL1        0.0619
     44 H          10.1411   -0.7587   -3.7658 H       1  UNL1        0.0636
     45 H          10.2529   -2.2513   -1.8027 H       1  UNL1        0.1549
     46 H          10.4783   -3.0773    0.7666 H       1  UNL1        0.0557
     47 H          10.1415   -4.4365   -0.3667 H       1  UNL1        0.0557
     48 H           7.9547   -4.0552    1.4128 H       1  UNL1        0.1466
     49 H           7.6569   -6.4124    2.4464 H       1  UNL1        0.0636
     50 H           8.3393   -7.5943    4.4857 H       1  UNL1        0.0633
     51 H          12.8714   -3.6701    3.4289 H       1  UNL1        0.1493
     52 H          15.1481   -3.7759    4.0855 H       1  UNL1        0.0498
     53 H          13.4044   -2.2643    6.0826 H       1  UNL1        0.0283
     54 H          14.1140   -1.6372    4.6028 H       1  UNL1        0.0283
     55 H          15.3810   -0.9280    6.6412 H       1  UNL1        0.0266
     56 H          16.3817   -1.8439    5.5130 H       1  UNL1        0.0266
     57 H          15.0754   -2.9337    8.0509 H       1  UNL1        0.0265
     58 H          16.7940   -2.6014    7.8328 H       1  UNL1        0.0265
     59 H          16.2747   -5.0215    7.5399 H       1  UNL1        0.0266
     60 H          16.9538   -4.3287    6.0566 H       1  UNL1        0.0266
     61 H          14.0806   -4.7650    6.7705 H       1  UNL1        0.0283
     62 H          14.9986   -5.7348    5.5825 H       1  UNL1        0.0283
     63 H          11.2390   -4.0923    2.5238 H       1  UNL1        0.0644
     64 H           6.6737   -1.5039   -1.3338 H       1  UNL1        0.0673
@<TRIPOS>BOND
     1     1     2    1
     2     2     3    1
     3     3     4    1
     4     4     5    1
     5     5     6    1
     6     6     7   ar
     7     7     8   ar
     8     8     9   ar
     9     9    10   ar
    10    10    11    1
    11    11    12   am
    12    12    13    2
    13    12    14    1
    14    14    15    1
    15    15    16    1
    16    16    17   ar
    17    17    18   ar
    18    18    19   ar
    19    19    20    1
    20    19    21   ar
    21    21    22    1
    22    22    23    2
    23    22    24   am
    24    24    25    1
    25    25    26    1
    26    26    27    1
    27    27    28    1
    28    28    29    1
    29    29    30    1
    30    25    30    1
    31    21    31   ar
    32    16    31   ar
    33    10    32   ar
    34     6    32   ar
    35     1    33    1
    36     1    34    1
    37     1    35    1
    38     2    36    1
    39     2    37    1
    40     3    38    1
    41     3    39    1
    42     4    40    1
    43     4    41    1
    44     7    42    1
    45     8    43    1
    46     9    44    1
    47    11    45    1
    48    14    46    1
    49    14    47    1
    50    15    48    1
    51    17    49    1
    52    18    50    1
    53    24    51    1
    54    25    52    1
    55    26    53    1
    56    26    54    1
    57    27    55    1
    58    27    56    1
    59    28    57    1
    60    28    58    1
    61    29    59    1
    62    29    60    1
    63    30    61    1
    64    30    62    1
    65    31    63    1
    66    32    64    1
