REMARK  14 active torsions:
REMARK  status: ('A' for Active; 'I' for Inactive)
REMARK    1  A    between atoms: O_2  and  C_3 
REMARK    2  A    between atoms: C_6  and  N_7 
REMARK    3  A    between atoms: N_7  and  S_8 
REMARK    4  A    between atoms: S_8  and  C_11 
REMARK    5  A    between atoms: C_14  and  N_15 
REMARK       I    between atoms: N_15  and  C_16 
REMARK    6  A    between atoms: C_16  and  C_18 
REMARK    7  A    between atoms: C_18  and  C_19 
REMARK    8  A    between atoms: C_19  and  C_20 
REMARK    9  A    between atoms: C_20  and  C_21 
REMARK   10  A    between atoms: C_21  and  O_23 
REMARK   11  A    between atoms: O_23  and  C_24 
REMARK   12  A    between atoms: C_24  and  C_25 
REMARK   13  A    between atoms: C_25  and  C_26 
REMARK   14  A    between atoms: C_26  and  C_27 
ROOT
ATOM      1  C   UNL d   1       5.940   2.910   6.810  0.00  0.00     0.080 A 
ATOM      2  C   UNL d   1       6.755   2.248   7.739  0.00  0.00     0.027 A 
ATOM      3  C   UNL d   1       7.433   2.980   8.747  0.00  0.00     0.031 A 
ATOM      4  C   UNL d   1       7.351   4.381   8.791  0.00  0.00     0.034 A 
ATOM      5  C   UNL d   1       6.506   4.998   7.859  0.00  0.00     0.031 A 
ATOM      6  C   UNL d   1       5.812   4.288   6.882  0.00  0.00     0.027 A 
ENDROOT
BRANCH   4   7
ATOM      7  N   UNL d   1       8.121   5.140   9.733  0.00  0.00    -0.327 N 
ATOM      8  C   UNL d   1       8.162   6.533   9.755  0.00  0.00     0.222 C 
ATOM      9  O   UNL d   1       7.511   7.260   9.006  0.00  0.00    -0.273 OA
ATOM     10  H   UNL d   1       8.730   4.625  10.358  0.00  0.00     0.169 HD
BRANCH   8  11
ATOM     11  C   UNL d   1       9.094   7.198  10.767  0.00  0.00     0.103 C 
BRANCH  11  12
ATOM     12  C   UNL d   1       8.942   8.730  10.622  0.00  0.00     0.019 C 
BRANCH  12  13
ATOM     13  C   UNL d   1       9.802   9.569  11.564  0.00  0.00     0.111 C 
BRANCH  13  14
ATOM     14  C   UNL d   1       9.553  11.051  11.322  0.00  0.00     0.258 C 
ATOM     15  O   UNL d   1       8.776  11.504  10.490  0.00  0.00    -0.265 OA
BRANCH  14  16
ATOM     16  O   UNL d   1      10.310  11.824  12.152  0.00  0.00    -0.321 OA
BRANCH  16  17
ATOM     17  C   UNL d   1      10.108  13.237  11.954  0.00  0.00     0.179 C 
BRANCH  17  18
ATOM     18  C   UNL d   1      11.004  13.996  12.915  0.00  0.00     0.031 C 
BRANCH  18  19
ATOM     19  C   UNL d   1      10.871  15.514  12.770  0.00  0.00     0.041 C 
BRANCH  19  20
ATOM     20  C   UNL d   1      11.700  16.302  13.762  0.00  0.00    -0.058 A 
ATOM     21  C   UNL d   1      12.508  15.686  14.729  0.00  0.00     0.007 A 
ATOM     22  C   UNL d   1      13.079  16.427  15.759  0.00  0.00     0.001 A 
ATOM     23  C   UNL d   1      12.942  17.811  15.774  0.00  0.00     0.000 A 
ATOM     24  C   UNL d   1      12.207  18.448  14.776  0.00  0.00     0.001 A 
ATOM     25  C   UNL d   1      11.584  17.698  13.777  0.00  0.00     0.007 A 
ENDBRANCH  19  20
ENDBRANCH  18  19
ENDBRANCH  17  18
ENDBRANCH  16  17
ENDBRANCH  14  16
ENDBRANCH  13  14
ENDBRANCH  12  13
ENDBRANCH  11  12
ENDBRANCH   8  11
ENDBRANCH   4   7
BRANCH   1  26
ATOM     26  S   UNL d   1       4.778   2.027   5.788  0.00  0.00     0.263 S 
ATOM     27  O   UNL d   1       3.550   2.809   5.817  0.00  0.00    -0.200 OA
ATOM     28  O   UNL d   1       4.780   0.652   6.223  0.00  0.00    -0.200 OA
BRANCH  26  29
ATOM     29  N   UNL d   1       5.389   2.074   4.212  0.00  0.00    -0.281 N 
ATOM     30  H   UNL d   1       6.185   2.675   4.016  0.00  0.00     0.179 HD
BRANCH  29  31
ATOM     31  C   UNL d   1       4.580   1.596   3.117  0.00  0.00     0.042 A 
ATOM     32  C   UNL d   1       5.038   1.720   1.800  0.00  0.00     0.033 A 
ATOM     33  C   UNL d   1       4.245   1.276   0.721  0.00  0.00     0.039 A 
ATOM     34  C   UNL d   1       3.023   0.635   0.946  0.00  0.00     0.068 A 
ATOM     35  C   UNL d   1       2.587   0.478   2.253  0.00  0.00     0.039 A 
ATOM     36  C   UNL d   1       3.359   0.947   3.319  0.00  0.00     0.033 A 
BRANCH  34  37
ATOM     37  O   UNL d   1       2.389   0.113  -0.148  0.00  0.00    -0.356 OA
ATOM     38  C   UNL d   1       0.970  -0.009  -0.059  0.00  0.00     0.210 C 
ENDBRANCH  34  37
ENDBRANCH  29  31
ENDBRANCH  26  29
ENDBRANCH   1  26
TORSDOF 14
