@<TRIPOS>MOLECULE
*****
 32 34 0 0 0
SMALL
GASTEIGER

@<TRIPOS>ATOM
      1 O           0.9996    0.0931   -0.0634 O.2     1  UNL1       -0.2649
      2 C           2.2332    0.0515   -0.0971 C.2     1  UNL1        0.3018
      3 N           2.9675    0.4447    1.0236 N.am    1  UNL1       -0.3052
      4 C           2.2877    0.9724    2.2043 C.3     1  UNL1        0.0352
      5 C           3.2357    1.4488    3.3073 C.3     1  UNL1        0.0597
      6 O           2.5225    1.9088    4.4507 O.3     1  UNL1       -0.3935
      7 C           2.9791   -0.3409   -1.2878 C.ar    1  UNL1        0.3136
      8 N           2.6662   -0.0544   -2.5364 N.ar    1  UNL1       -0.1831
      9 C           3.6440   -0.7001   -3.2620 C.ar    1  UNL1        0.2032
     10 C           3.7118   -0.6025   -4.7137 C.ar    1  UNL1        0.0316
     11 C           3.7881    0.6460   -5.3564 C.ar    1  UNL1       -0.0502
     12 C           3.8417    0.7373   -6.7495 C.ar    1  UNL1       -0.0591
     13 C           3.7977   -0.4074   -7.5508 C.ar    1  UNL1       -0.0378
     14 C           3.7313   -1.6476   -6.9024 C.ar    1  UNL1        0.0471
     15 N           3.6978   -2.9216   -7.4299 N.ar    1  UNL1       -0.3606
     16 C           3.6841   -3.8483   -6.4229 C.ar    1  UNL1        0.0028
     17 C           3.6501   -3.1698   -5.2277 C.ar    1  UNL1       -0.0360
     18 C           3.6960   -1.7735   -5.5070 C.ar    1  UNL1        0.0104
     19 N           4.5363   -1.3583   -2.4996 N.ar    1  UNL1       -0.0555
     20 O           4.1053   -1.1086   -1.1876 O.2     1  UNL1       -0.3276
     21 H           3.9786    0.4777    0.9709 H       1  UNL1        0.1492
     22 H           1.6189    0.1964    2.5961 H       1  UNL1        0.0485
     23 H           1.6371    1.8021    1.8973 H       1  UNL1        0.0485
     24 H           3.8781    2.2610    2.9515 H       1  UNL1        0.0573
     25 H           3.8835    0.6284    3.6305 H       1  UNL1        0.0573
     26 H           1.9794    2.6726    4.1885 H       1  UNL1        0.2095
     27 H           3.8207    1.5572   -4.7634 H       1  UNL1        0.0625
     28 H           3.9208    1.7151   -7.2212 H       1  UNL1        0.0618
     29 H           3.8283   -0.3290   -8.6343 H       1  UNL1        0.0638
     30 H           3.7088   -3.1375   -8.4179 H       1  UNL1        0.1653
     31 H           3.6981   -4.9083   -6.6370 H       1  UNL1        0.0807
     32 H           3.6231   -3.6221   -4.2454 H       1  UNL1        0.0639
@<TRIPOS>BOND
     1     1     2    2
     2     2     3   am
     3     3     4    1
     4     4     5    1
     5     5     6    1
     6     2     7    1
     7     7     8   ar
     8     8     9   ar
     9     9    10    1
    10    10    11   ar
    11    11    12   ar
    12    12    13   ar
    13    13    14   ar
    14    14    15   ar
    15    15    16   ar
    16    16    17   ar
    17    17    18   ar
    18    10    18   ar
    19    14    18   ar
    20     9    19   ar
    21    19    20   ar
    22     7    20   ar
    23     3    21    1
    24     4    22    1
    25     4    23    1
    26     5    24    1
    27     5    25    1
    28     6    26    1
    29    11    27    1
    30    12    28    1
    31    13    29    1
    32    15    30    1
    33    16    31    1
    34    17    32    1
