@<TRIPOS>MOLECULE
*****
 34 36 0 0 0
SMALL
GASTEIGER

@<TRIPOS>ATOM
      1 O           1.1028    0.1827    0.1314 O.2     1  UNL1       -0.2668
      2 C           2.3306    0.0124    0.0598 C.2     1  UNL1        0.2795
      3 N           3.0263   -0.8573    0.8993 N.am    1  UNL1       -0.2018
      4 N           2.3235   -1.6340    1.8038 N.2     1  UNL1       -0.1874
      5 C           2.9850   -2.2635    2.7225 C.2     1  UNL1        0.0528
      6 C           2.2829   -3.0699    3.7601 C.ar    1  UNL1       -0.0052
      7 C           1.1889   -3.8821    3.4341 C.ar    1  UNL1       -0.0497
      8 C           0.5051   -4.5846    4.4393 C.ar    1  UNL1       -0.0196
      9 C           0.9099   -4.4556    5.7651 C.ar    1  UNL1        0.1169
     10 O           0.2602   -5.0901    6.7831 O.3     1  UNL1       -0.5068
     11 C           2.0011   -3.6591    6.0965 C.ar    1  UNL1       -0.0196
     12 C           2.7014   -2.9772    5.0929 C.ar    1  UNL1       -0.0497
     13 C           3.1085    0.7658   -0.9116 C.ar    1  UNL1        0.1045
     14 C           4.1462    0.3803   -1.7478 C.ar    1  UNL1       -0.0241
     15 C           4.3905    1.4325   -2.6847 C.ar    1  UNL1        0.0004
     16 C           5.2310    1.5714   -3.8098 C.ar    1  UNL1       -0.0526
     17 C           5.1935    2.7514   -4.5647 C.ar    1  UNL1       -0.0611
     18 C           4.3435    3.7935   -4.2049 C.ar    1  UNL1       -0.0598
     19 C           3.5029    3.6830   -3.0894 C.ar    1  UNL1       -0.0378
     20 C           3.5376    2.4841   -2.3568 C.ar    1  UNL1        0.0470
     21 N           2.7917    2.0647   -1.2753 N.ar    1  UNL1       -0.3505
     22 H           4.0400   -0.8352    0.9293 H       1  UNL1        0.1776
     23 H           4.0846   -2.2001    2.8130 H       1  UNL1        0.0851
     24 H           0.8638   -3.9730    2.4003 H       1  UNL1        0.0625
     25 H          -0.3424   -5.2095    4.1721 H       1  UNL1        0.0654
     26 H          -0.4842   -5.5992    6.4216 H       1  UNL1        0.2921
     27 H           2.2926   -3.5575    7.1392 H       1  UNL1        0.0654
     28 H           3.5387   -2.3450    5.3734 H       1  UNL1        0.0625
     29 H           4.6040   -0.5982   -1.7754 H       1  UNL1        0.0646
     30 H           5.8878    0.7604   -4.1092 H       1  UNL1        0.0624
     31 H           5.8273    2.8494   -5.4438 H       1  UNL1        0.0618
     32 H           4.3246    4.7002   -4.8078 H       1  UNL1        0.0618
     33 H           2.8339    4.4969   -2.8261 H       1  UNL1        0.0638
     34 H           2.0486    2.6022   -0.8469 H       1  UNL1        0.1660
@<TRIPOS>BOND
     1     1     2    2
     2     2     3   am
     3     3     4    1
     4     4     5    2
     5     5     6    1
     6     6     7   ar
     7     7     8   ar
     8     8     9   ar
     9     9    10    1
    10     9    11   ar
    11    11    12   ar
    12     6    12   ar
    13     2    13    1
    14    13    14   ar
    15    14    15   ar
    16    15    16   ar
    17    16    17   ar
    18    17    18   ar
    19    18    19   ar
    20    19    20   ar
    21    15    20   ar
    22    20    21   ar
    23    13    21   ar
    24     3    22    1
    25     5    23    1
    26     7    24    1
    27     8    25    1
    28    10    26    1
    29    11    27    1
    30    12    28    1
    31    14    29    1
    32    16    30    1
    33    17    31    1
    34    18    32    1
    35    19    33    1
    36    21    34    1
