@<TRIPOS>MOLECULE
*****
 63 66 0 0 0
SMALL
GASTEIGER

@<TRIPOS>ATOM
      1 C          11.0497    7.7560    5.7824 C.3     1  UNL1       -0.0253
      2 C          10.5319    6.7192    4.8119 C.3     1  UNL1        0.1068
      3 C           9.7433    7.5353    3.8310 C.3     1  UNL1       -0.0253
      4 C          11.6947    6.0812    4.0229 C.3     1  UNL1       -0.0253
      5 O           9.7020    5.7360    5.5270 O.3     1  UNL1       -0.4447
      6 C           9.1646    4.7659    4.7301 C.2     1  UNL1        0.4011
      7 O           9.3492    4.7628    3.5442 O.2     1  UNL1       -0.2265
      8 N           8.3700    3.8227    5.3592 N.am    1  UNL1       -0.2741
      9 C           7.5551    2.8597    4.5572 C.3     1  UNL1        0.0709
     10 C           8.4601    1.9332    3.6267 C.3     1  UNL1       -0.0024
     11 C           9.1686    2.5264    2.4194 C.2     1  UNL1        0.0095
     12 C           8.6724    3.2489    1.3910 C.ar    1  UNL1        0.0509
     13 C           7.3664    3.6302    0.9552 C.ar    1  UNL1       -0.0482
     14 C           7.1864    4.7685    0.2810 C.ar    1  UNL1       -0.0608
     15 C           8.2985    5.4646   -0.3114 C.ar    1  UNL1       -0.0555
     16 C           9.5784    5.1126   -0.0856 C.ar    1  UNL1        0.0098
     17 C           9.8384    3.9808    0.8432 C.ar    1  UNL1        0.2086
     18 N          10.9426    3.5576    1.3297 N.2     1  UNL1       -0.2369
     19 C          10.6817    2.5937    2.4223 C.3     1  UNL1        0.1661
     20 C           6.3898    3.5271    3.7449 C.3     1  UNL1        0.1433
     21 N           5.1055    3.8453    4.3308 N.3     1  UNL1       -0.2248
     22 N           5.0592    5.2912    4.4584 N.3     1  UNL1       -0.2181
     23 C           6.3639    5.7619    3.9932 C.3     1  UNL1        0.1723
     24 S           6.4212    7.4673    3.4411 S.3     1  UNL1       -0.1081
     25 C           7.4125    7.5996    1.8783 C.3     1  UNL1        0.0252
     26 C           7.5310    9.0122    1.3345 C.ar    1  UNL1       -0.0009
     27 C           8.7556    9.6151    0.9228 C.ar    1  UNL1        0.0463
     28 CL         10.3102    8.8380    0.8911 Cl      1  UNL1       -0.0832
     29 C           8.7637   10.8611    0.2941 C.ar    1  UNL1       -0.0430
     30 C           7.5699   11.3965   -0.1535 C.ar    1  UNL1       -0.0590
     31 C           6.3700   10.8573    0.2763 C.ar    1  UNL1       -0.0430
     32 C           6.3426    9.7063    1.0454 C.ar    1  UNL1        0.0463
     33 CL          4.7451    9.1644    1.4425 Cl      1  UNL1       -0.0832
     34 O           6.8387    4.7516    3.1478 O.3     1  UNL1       -0.3303
     35 H          11.6519    8.5042    5.2484 H       1  UNL1        0.0268
     36 H          11.6502    7.2800    6.5510 H       1  UNL1        0.0268
     37 H          10.2109    8.2810    6.2543 H       1  UNL1        0.0268
     38 H          10.3461    8.3052    3.3533 H       1  UNL1        0.0268
     39 H           8.8703    8.0210    4.2613 H       1  UNL1        0.0268
     40 H           9.4732    6.8287    3.0730 H       1  UNL1        0.0268
     41 H          12.2971    6.8385    3.5096 H       1  UNL1        0.0268
     42 H          11.3593    5.4303    3.2125 H       1  UNL1        0.0268
     43 H          12.3125    5.4682    4.6747 H       1  UNL1        0.0268
     44 H           8.0972    4.0069    6.3137 H       1  UNL1        0.1524
     45 H           7.0842    2.1721    5.2762 H       1  UNL1        0.0542
     46 H           7.8760    1.0837    3.2512 H       1  UNL1        0.0332
     47 H           9.2123    1.4862    4.2965 H       1  UNL1        0.0332
     48 H           6.4639    3.1965    1.3375 H       1  UNL1        0.0626
     49 H           6.1878    5.2168    0.2988 H       1  UNL1        0.0618
     50 H           8.0189    6.3065   -0.9435 H       1  UNL1        0.0620
     51 H          10.3777    5.6720   -0.5504 H       1  UNL1        0.0683
     52 H          11.8497    3.9214    1.0520 H       1  UNL1        0.4459
     53 H          11.1258    2.9817    3.3497 H       1  UNL1        0.1077
     54 H          11.1224    1.6290    2.1693 H       1  UNL1        0.1077
     55 H           6.1279    2.7476    3.0250 H       1  UNL1        0.0799
     56 H           4.8350    3.2739    5.1236 H       1  UNL1        0.1434
     57 H           4.9447    5.5886    5.4243 H       1  UNL1        0.1442
     58 H           6.9935    5.8104    4.8813 H       1  UNL1        0.0904
     59 H           6.9143    7.0472    1.1004 H       1  UNL1        0.0427
     60 H           8.4085    7.1968    1.8707 H       1  UNL1        0.0427
     61 H           9.6960   11.3821    0.0821 H       1  UNL1        0.0632
     62 H           7.5650   12.2211   -0.8562 H       1  UNL1        0.0618
     63 H           5.4299   11.3219    0.0011 H       1  UNL1        0.0632
@<TRIPOS>UNITY_ATOM_ATTR
18 1
charge 1
@<TRIPOS>BOND
     1     1     2    1
     2     2     3    1
     3     2     4    1
     4     2     5    1
     5     5     6    1
     6     6     7    2
     7     6     8   am
     8     8     9    1
     9     9    10    1
    10    10    11    1
    11    11    12    2
    12    12    13   ar
    13    13    14   ar
    14    14    15   ar
    15    15    16   ar
    16    16    17   ar
    17    12    17   ar
    18    17    18    2
    19    18    19    1
    20    11    19    1
    21    20    21    1
    22    21    22    1
    23    22    23    1
    24    24    25    1
    25    25    26    1
    26    26    27   ar
    27    27    28    1
    28    27    29   ar
    29    29    30   ar
    30    30    31   ar
    31    31    32   ar
    32    26    32   ar
    33    32    33    1
    34    23    34    1
    35    20    34    1
    36    23    24    1
    37    20     9    1
    38     1    35    1
    39     1    36    1
    40     1    37    1
    41     3    38    1
    42     3    39    1
    43     3    40    1
    44     4    41    1
    45     4    42    1
    46     4    43    1
    47     8    44    1
    48     9    45    1
    49    10    46    1
    50    10    47    1
    51    13    48    1
    52    14    49    1
    53    15    50    1
    54    16    51    1
    55    18    52    1
    56    19    53    1
    57    19    54    1
    58    20    55    1
    59    21    56    1
    60    22    57    1
    61    23    58    1
    62    25    59    1
    63    25    60    1
    64    29    61    1
    65    30    62    1
    66    31    63    1
