REMARK  7 active torsions:
REMARK  status: ('A' for Active; 'I' for Inactive)
REMARK    1  A    between atoms: O_2  and  C_3 
REMARK    2  A    between atoms: C_5  and  O_6 
REMARK    3  A    between atoms: C_9  and  C_10 
REMARK       I    between atoms: C_10  and  N_12 
REMARK       I    between atoms: C_13  and  N_14 
REMARK       I    between atoms: C_13  and  N_26 
REMARK    4  A    between atoms: N_14  and  C_15 
REMARK    5  A    between atoms: C_15  and  C_16 
REMARK    6  A    between atoms: C_16  and  C_17 
REMARK    7  A    between atoms: N_26  and  C_27 
ROOT
ATOM      1  C   UNL d   1       3.313  -2.221  -4.274  0.00  0.00     0.294 C 
ATOM      2  O   UNL d   1       4.034  -2.976  -4.907  0.00  0.00    -0.265 OA
ATOM      3  N   UNL d   1       2.229  -1.543  -4.782  0.00  0.00    -0.023 NA
ATOM      4  C   UNL d   1       1.863  -1.767  -6.008  0.00  0.00     0.704 C 
ATOM      5  N   UNL d   1       0.697  -1.198  -6.444  0.00  0.00    -0.224 N 
ATOM      6  N   UNL d   1       2.475  -2.600  -6.911  0.00  0.00    -0.190 N 
ATOM      7  H   UNL d   1       0.420  -1.425  -7.391  0.00  0.00     0.177 HD
ATOM      8  H   UNL d   1       3.321  -3.054  -6.548  0.00  0.00     0.184 HD
ENDROOT
BRANCH   5   9
ATOM      9  C   UNL d   1       0.057  -0.089  -5.773  0.00  0.00     0.142 C 
BRANCH   9  10
ATOM     10  C   UNL d   1      -0.972   0.578  -6.669  0.00  0.00     0.057 C 
BRANCH  10  11
ATOM     11  C   UNL d   1      -1.890   1.564  -6.015  0.00  0.00    -0.048 A 
ATOM     12  C   UNL d   1      -2.850   2.151  -6.726  0.00  0.00    -0.006 A 
ATOM     13  C   UNL d   1      -3.195   2.013  -8.094  0.00  0.00     0.014 A 
ATOM     14  C   UNL d   1      -3.541   3.077  -5.824  0.00  0.00     0.038 A 
ATOM     15  C   UNL d   1      -4.139   2.814  -8.592  0.00  0.00     0.001 A 
ATOM     16  C   UNL d   1      -4.882   3.722  -7.732  0.00  0.00     0.002 A 
ATOM     17  C   UNL d   1      -4.631   3.888  -6.415  0.00  0.00     0.030 A 
ATOM     18  N   UNL d   1      -3.063   3.014  -4.638  0.00  0.00    -0.385 N 
ATOM     19  C   UNL d   1      -1.925   2.036  -4.590  0.00  0.00     0.155 A 
ATOM     20  H   UNL d   1      -3.443   3.559  -3.864  0.00  0.00     0.160 HD
ENDBRANCH  10  11
ENDBRANCH   9  10
ENDBRANCH   5   9
BRANCH   6  21
ATOM     21  C   UNL d   1       2.376  -2.683  -8.315  0.00  0.00     0.055 A 
ATOM     22  C   UNL d   1       2.426  -3.970  -8.894  0.00  0.00     0.032 A 
ATOM     23  C   UNL d   1       2.290  -4.154 -10.273  0.00  0.00     0.026 A 
ATOM     24  C   UNL d   1       2.033  -3.056 -11.082  0.00  0.00     0.034 A 
ATOM     25 CL   UNL d   1       1.702  -3.270 -12.755  0.00  0.00    -0.084 Cl
ATOM     26  C   UNL d   1       2.015  -1.774 -10.539  0.00  0.00     0.032 A 
ATOM     27  C   UNL d   1       2.222  -1.567  -9.164  0.00  0.00    -0.033 A 
ATOM     28  C   UNL d   1       2.332  -0.143  -8.688  0.00  0.00     0.050 C 
ENDBRANCH   6  21
BRANCH   1  29
ATOM     29  C   UNL d   1       3.578  -2.002  -2.821  0.00  0.00     0.040 A 
ATOM     30  C   UNL d   1       4.665  -2.674  -2.254  0.00  0.00     0.054 A 
ATOM     31  C   UNL d   1       5.043  -2.420  -0.939  0.00  0.00     0.071 A 
ATOM     32  C   UNL d   1       4.249  -1.580  -0.153  0.00  0.00     0.073 A 
ATOM     33  C   UNL d   1       3.143  -0.922  -0.703  0.00  0.00     0.071 A 
ATOM     34  C   UNL d   1       2.818  -1.117  -2.046  0.00  0.00     0.054 A 
BRANCH  31  35
ATOM     35  O   UNL d   1       6.182  -2.910  -0.356  0.00  0.00    -0.356 OA
ATOM     36  C   UNL d   1       7.081  -3.600  -1.228  0.00  0.00     0.210 C 
ENDBRANCH  31  35
BRANCH  33  37
ATOM     37  O   UNL d   1       2.524  -0.003   0.101  0.00  0.00    -0.356 OA
ATOM     38  C   UNL d   1       1.103  -0.000   0.039  0.00  0.00     0.210 C 
ENDBRANCH  33  37
ENDBRANCH   1  29
TORSDOF 7
