REMARK  9 active torsions:
REMARK  status: ('A' for Active; 'I' for Inactive)
REMARK    1  A    between atoms: C_2  and  C_3 
REMARK    2  A    between atoms: C_3  and  C_5 
REMARK    3  A    between atoms: C_8  and  O_9 
REMARK    4  A    between atoms: C_10  and  N_11 
REMARK    5  A    between atoms: N_11  and  C_12 
REMARK    6  A    between atoms: C_12  and  N_14 
REMARK       I    between atoms: N_14  and  C_15 
REMARK    7  A    between atoms: C_15  and  C_17 
REMARK    8  A    between atoms: C_20  and  N_21 
REMARK    9  A    between atoms: C_26  and  N_27 
ROOT
ATOM      1  N   UNL d   1       9.634  -0.583   4.242  0.00  0.00    -0.299 N 
ATOM      2  C   UNL d   1      11.022  -0.631   4.463  0.00  0.00     0.257 C 
ATOM      3  O   UNL d   1      11.899  -0.153   3.715  0.00  0.00    -0.267 OA
ATOM      4  H   UNL d   1       9.027  -0.963   4.960  0.00  0.00     0.171 HD
ENDROOT
BRANCH   1   5
ATOM      5  C   UNL d   1       9.065  -0.132   3.019  0.00  0.00     0.179 C 
ATOM      6  S   UNL d   1      10.068   0.075   1.673  0.00  0.00    -0.040 SA
BRANCH   5   7
ATOM      7  N   UNL d   1       7.654   0.051   3.024  0.00  0.00    -0.331 N 
ATOM      8  H   UNL d   1       7.123  -0.364   3.784  0.00  0.00     0.168 HD
BRANCH   7   9
ATOM      9  C   UNL d   1       6.810   0.618   1.954  0.00  0.00     0.068 C 
ATOM     10  C   UNL d   1       7.267   1.339   0.835  0.00  0.00     0.092 C 
ATOM     11  C   UNL d   1       6.481   1.710  -0.251  0.00  0.00     0.039 C 
ATOM     12  C   UNL d   1       5.121   1.602  -0.160  0.00  0.00     0.010 C 
ATOM     13  C   UNL d   1       4.553   1.036   0.986  0.00  0.00    -0.052 C 
ATOM     14  C   UNL d   1       5.402   0.499   2.014  0.00  0.00     0.039 C 
BRANCH  10  15
ATOM     15  O   UNL d   1       8.455   2.010   0.777  0.00  0.00    -0.358 OA
ATOM     16  H   UNL d   1       9.013   1.483   0.171  0.00  0.00     0.217 HD
ENDBRANCH  10  15
BRANCH  13  17
ATOM     17  C   UNL d   1       3.030   1.046   1.024  0.00  0.00     0.014 C 
ATOM     18  C   UNL d   1       2.474   0.967   2.442  0.00  0.00     0.015 C 
BRANCH  17  19
ATOM     19  C   UNL d   1       2.490  -0.071   0.110  0.00  0.00     0.004 C 
ATOM     20  C   UNL d   1       0.972  -0.090   0.038  0.00  0.00     0.006 C 
ENDBRANCH  17  19
ENDBRANCH  13  17
ENDBRANCH   7   9
ENDBRANCH   5   7
ENDBRANCH   1   5
BRANCH   2  21
ATOM     21  C   UNL d   1      11.658  -1.264   5.619  0.00  0.00     0.035 A 
ATOM     22  C   UNL d   1      12.875  -0.719   6.050  0.00  0.00     0.019 A 
ATOM     23  C   UNL d   1      13.727  -1.443   6.881  0.00  0.00     0.033 A 
ATOM     24  C   UNL d   1      13.393  -2.726   7.367  0.00  0.00     0.063 A 
ATOM     25  C   UNL d   1      12.167  -3.272   6.891  0.00  0.00     0.130 A 
ATOM     26  C   UNL d   1      11.311  -2.538   6.021  0.00  0.00     0.055 A 
BRANCH  24  27
ATOM     27  N   UNL d   1      14.326  -3.261   8.233  0.00  0.00    -0.379 N 
ATOM     28  C   UNL d   1      14.866  -4.612   8.187  0.00  0.00     0.123 C 
ATOM     29  C   UNL d   1      14.646  -5.131   9.604  0.00  0.00     0.021 C 
ATOM     30  C   UNL d   1      14.906  -3.901  10.459  0.00  0.00     0.021 C 
ATOM     31  C   UNL d   1      14.443  -2.717   9.597  0.00  0.00     0.123 C 
ENDBRANCH  24  27
BRANCH  25  32
ATOM     32  N   UNL d   1      11.637  -4.610   7.218  0.00  0.00    -0.113 N 
ATOM     33  O   UNL d   1      12.209  -5.316   8.057  0.00  0.00    -0.532 OA
ATOM     34  O   UNL d   1      10.603  -4.972   6.650  0.00  0.00    -0.532 OA
ENDBRANCH  25  32
ENDBRANCH   2  21
TORSDOF 9
