@<TRIPOS>MOLECULE
*****
 63 66 0 0 0
SMALL
GASTEIGER

@<TRIPOS>ATOM
      1 C           1.3174   -0.0211   -0.9041 C.3     1  UNL1        0.0790
      2 O           2.7000    0.0567   -0.5782 O.3     1  UNL1       -0.4914
      3 C           3.2104    0.8502    0.4142 C.ar    1  UNL1        0.1617
      4 C           4.4390    1.4870    0.1187 C.ar    1  UNL1       -0.0131
      5 C           5.2266    2.1898    1.1008 C.ar    1  UNL1       -0.0195
      6 C           4.8737    2.1637    2.4435 C.ar    1  UNL1        0.1035
      7 N           5.4381    2.9712    3.4907 N.pl3   1  UNL1       -0.2449
      8 C           4.9498    3.2146    4.7964 C.2     1  UNL1        0.3842
      9 N           3.8636    2.8250    5.4070 N.am    1  UNL1        0.0006
     10 C           2.7360    2.6389    4.6474 C.2     1  UNL1        0.3406
     11 O           2.4018    3.3898    3.7688 O.2     1  UNL1       -0.2484
     12 C           1.7068    1.6911    5.1757 C.ar    1  UNL1        0.0588
     13 C           1.5521    0.3090    4.9231 C.ar    1  UNL1       -0.0477
     14 C           0.2779   -0.2722    5.0225 C.ar    1  UNL1       -0.0554
     15 C          -0.7901    0.4857    5.5008 C.ar    1  UNL1       -0.0152
     16 C          -2.1266   -0.1218    5.7612 C.3     1  UNL1       -0.0370
     17 C          -0.5828    1.8266    5.8192 C.ar    1  UNL1        0.1271
     18 F          -1.5900    2.5846    6.2630 F       1  UNL1       -0.2052
     19 C           0.6410    2.4272    5.6543 C.ar    1  UNL1       -0.0125
     20 N           5.7579    4.0355    5.6068 N.pl3   1  UNL1       -0.2767
     21 C           5.1884    4.5311    6.8946 C.3     1  UNL1        0.0684
     22 C           6.0780    5.5071    7.6654 C.3     1  UNL1        0.0059
     23 C           5.6345    5.9046    9.0605 C.2     1  UNL1        0.0106
     24 C           6.4183    6.6282    9.8677 C.ar    1  UNL1        0.0510
     25 C           7.7239    7.1609    9.6906 C.ar    1  UNL1       -0.0482
     26 C           8.3431    7.6887   10.7538 C.ar    1  UNL1       -0.0608
     27 C           7.6640    7.8369   12.0326 C.ar    1  UNL1       -0.0555
     28 C           6.3945    7.4392   12.2559 C.ar    1  UNL1        0.0098
     29 C           5.6943    6.7716   11.1401 C.ar    1  UNL1        0.2086
     30 N           4.5331    6.2417   11.0854 N.2     1  UNL1       -0.2369
     31 C           4.3594    5.5338    9.7824 C.3     1  UNL1        0.1661
     32 C           3.8598    1.2580    2.6803 C.ar    1  UNL1        0.0222
     33 C           2.8686    0.8659    1.7415 C.ar    1  UNL1        0.1647
     34 O           1.6857    0.6800    2.3751 O.3     1  UNL1       -0.4913
     35 C           0.5994    0.0033    1.8217 C.3     1  UNL1        0.0790
     36 H           1.2131   -0.5492   -1.8546 H       1  UNL1        0.0660
     37 H           0.8506    0.9644   -0.9786 H       1  UNL1        0.0660
     38 H           0.7393   -0.6943   -0.2751 H       1  UNL1        0.0660
     39 H           4.7959    1.4501   -0.9089 H       1  UNL1        0.0656
     40 H           6.1382    2.6820    0.7756 H       1  UNL1        0.0653
     41 H           6.1688    3.5839    3.1576 H       1  UNL1        0.2646
     42 H           2.3190   -0.3133    4.4586 H       1  UNL1        0.0626
     43 H           0.0986   -1.2732    4.6198 H       1  UNL1        0.0621
     44 H          -2.1883   -1.1496    5.3932 H       1  UNL1        0.0278
     45 H          -2.9258    0.4637    5.2970 H       1  UNL1        0.0278
     46 H          -2.2676   -0.1375    6.8458 H       1  UNL1        0.0278
     47 H           0.7559    3.4944    5.7987 H       1  UNL1        0.0654
     48 H           6.4157    4.6576    5.1507 H       1  UNL1        0.2577
     49 H           5.0230    3.6614    7.5389 H       1  UNL1        0.0658
     50 H           4.2193    5.0253    6.7345 H       1  UNL1        0.0658
     51 H           6.1918    6.4322    7.0839 H       1  UNL1        0.0343
     52 H           7.0783    5.0634    7.7489 H       1  UNL1        0.0343
     53 H           8.2076    7.0925    8.7223 H       1  UNL1        0.0626
     54 H           9.3749    8.0208   10.6670 H       1  UNL1        0.0618
     55 H           8.2441    8.3212   12.8167 H       1  UNL1        0.0620
     56 H           5.9284    7.5751   13.2251 H       1  UNL1        0.0683
     57 H           3.8633    6.2977   11.8527 H       1  UNL1        0.4459
     58 H           3.4497    5.9017    9.3042 H       1  UNL1        0.1077
     59 H           4.2938    4.4639   10.0054 H       1  UNL1        0.1077
     60 H           3.7754    0.8912    3.6890 H       1  UNL1        0.0690
     61 H          -0.1904   -0.1911    2.5483 H       1  UNL1        0.0660
     62 H           0.9552   -0.9845    1.5310 H       1  UNL1        0.0660
     63 H           0.1073    0.6360    1.0827 H       1  UNL1        0.0660
@<TRIPOS>UNITY_ATOM_ATTR
30 1
charge 1
@<TRIPOS>BOND
     1     1     2    1
     2     2     3    1
     3     3     4   ar
     4     4     5   ar
     5     5     6   ar
     6     6     7    1
     7     7     8    1
     8     8     9    2
     9     9    10    1
    10    10    11    2
    11    10    12    1
    12    12    13   ar
    13    13    14   ar
    14    14    15   ar
    15    15    16    1
    16    15    17   ar
    17    17    18    1
    18    17    19   ar
    19    12    19   ar
    20     8    20    1
    21    20    21    1
    22    21    22    1
    23    22    23    1
    24    23    24    2
    25    24    25   ar
    26    25    26   ar
    27    26    27   ar
    28    27    28   ar
    29    28    29   ar
    30    24    29   ar
    31    29    30    2
    32    30    31    1
    33    23    31    1
    34     6    32   ar
    35    32    33   ar
    36     3    33   ar
    37    33    34    1
    38    34    35    1
    39     1    36    1
    40     1    37    1
    41     1    38    1
    42     4    39    1
    43     5    40    1
    44     7    41    1
    45    13    42    1
    46    14    43    1
    47    16    44    1
    48    16    45    1
    49    16    46    1
    50    19    47    1
    51    20    48    1
    52    21    49    1
    53    21    50    1
    54    22    51    1
    55    22    52    1
    56    25    53    1
    57    26    54    1
    58    27    55    1
    59    28    56    1
    60    30    57    1
    61    31    58    1
    62    31    59    1
    63    32    60    1
    64    35    61    1
    65    35    62    1
    66    35    63    1
