@<TRIPOS>MOLECULE
*****
 57 59 0 0 0
SMALL
GASTEIGER

@<TRIPOS>ATOM
      1 C           1.0317    0.0539    0.0453 C.3     1  UNL1        0.0820
      2 O           2.4682    0.0396    0.0408 O.3     1  UNL1       -0.4645
      3 C           3.0299    1.0165   -0.7130 C.2     1  UNL1        0.3389
      4 O           2.4157    1.8691   -1.3534 O.2     1  UNL1       -0.2450
      5 C           4.5139    0.9548   -0.6885 C.ar    1  UNL1        0.0591
      6 C           5.2603    2.1386   -0.7021 C.ar    1  UNL1       -0.0460
      7 C           6.6599    2.0976   -0.8622 C.ar    1  UNL1       -0.0401
      8 C           7.3561    0.8799   -0.9296 C.ar    1  UNL1        0.0275
      9 N           8.7330    0.8640   -1.0835 N.pl3   1  UNL1       -0.3354
     10 C           9.5542   -0.3568   -0.9923 C.3     1  UNL1        0.0861
     11 C          11.0566    0.0011   -0.9552 C.2     1  UNL1        0.2343
     12 O          11.4138    1.1804   -0.8948 O.2     1  UNL1       -0.2738
     13 N          11.9423   -1.0787   -1.0197 N.am    1  UNL1       -0.2842
     14 C          13.3501   -0.9150   -0.9392 C.ar    1  UNL1        0.0335
     15 C          14.2167   -1.7124   -1.6911 C.ar    1  UNL1       -0.0398
     16 C          15.6127   -1.5526   -1.5622 C.ar    1  UNL1       -0.0479
     17 C          16.1630   -0.5800   -0.7036 C.ar    1  UNL1        0.0368
     18 C          17.6530   -0.3845   -0.6858 C.2     1  UNL1        0.2445
     19 O          18.3548   -1.1218   -1.3727 O.2     1  UNL1       -0.2702
     20 N          18.1804    0.6462    0.0750 N.am    1  UNL1       -0.3048
     21 C          19.6123    0.9759    0.0874 C.3     1  UNL1        0.0458
     22 C          20.0998    1.3376   -1.3227 C.3     1  UNL1       -0.0424
     23 C          19.8531    2.1202    1.0766 C.ar    1  UNL1       -0.0275
     24 C          19.7775    1.8923    2.4598 C.ar    1  UNL1       -0.0568
     25 C          19.7525    2.9698    3.3534 C.ar    1  UNL1       -0.0614
     26 C          19.8979    4.2772    2.8902 C.ar    1  UNL1       -0.0617
     27 C          20.0592    4.5137    1.5329 C.ar    1  UNL1       -0.0614
     28 C          20.0362    3.4462    0.6399 C.ar    1  UNL1       -0.0568
     29 C          15.2869    0.1872    0.0634 C.ar    1  UNL1       -0.0479
     30 C          13.9014    0.0218   -0.0617 C.ar    1  UNL1       -0.0398
     31 C           6.5854   -0.2887   -0.9274 C.ar    1  UNL1       -0.0401
     32 C           5.1859   -0.2621   -0.8011 C.ar    1  UNL1       -0.0460
     33 H           0.6762   -0.7322    0.7192 H       1  UNL1        0.0661
     34 H           0.6423   -0.1560   -0.9568 H       1  UNL1        0.0661
     35 H           0.6465    1.0125    0.4109 H       1  UNL1        0.0661
     36 H           4.7581    3.0998   -0.6039 H       1  UNL1        0.0626
     37 H           7.1980    3.0406   -0.9512 H       1  UNL1        0.0636
     38 H           9.2511    1.7274   -0.9094 H       1  UNL1        0.1466
     39 H           9.3635   -0.9741   -1.8750 H       1  UNL1        0.0557
     40 H           9.3185   -0.9201   -0.0816 H       1  UNL1        0.0557
     41 H          11.5952   -1.9992   -1.2632 H       1  UNL1        0.1549
     42 H          13.8409   -2.4083   -2.4385 H       1  UNL1        0.0636
     43 H          16.2769   -2.1854   -2.1524 H       1  UNL1        0.0626
     44 H          17.5867    1.2418    0.6312 H       1  UNL1        0.1496
     45 H          20.1533    0.0825    0.4260 H       1  UNL1        0.0545
     46 H          19.5373    2.1875   -1.7279 H       1  UNL1        0.0251
     47 H          19.9655    0.5245   -2.0374 H       1  UNL1        0.0251
     48 H          21.1645    1.5950   -1.3106 H       1  UNL1        0.0251
     49 H          19.7103    0.8787    2.8508 H       1  UNL1        0.0621
     50 H          19.5932    2.7938    4.4142 H       1  UNL1        0.0618
     51 H          19.8879    5.1130    3.5838 H       1  UNL1        0.0618
     52 H          20.1701    5.5258    1.1526 H       1  UNL1        0.0618
     53 H          20.1471    3.6883   -0.4128 H       1  UNL1        0.0621
     54 H          15.6346    0.9251    0.7753 H       1  UNL1        0.0626
     55 H          13.2545    0.6296    0.5655 H       1  UNL1        0.0636
     56 H           7.0633   -1.2547   -1.0525 H       1  UNL1        0.0636
     57 H           4.6345   -1.1971   -0.8299 H       1  UNL1        0.0626
@<TRIPOS>BOND
     1     1     2    1
     2     2     3    1
     3     3     4    2
     4     3     5    1
     5     5     6   ar
     6     6     7   ar
     7     7     8   ar
     8     8     9    1
     9     9    10    1
    10    10    11    1
    11    11    12    2
    12    11    13   am
    13    13    14    1
    14    14    15   ar
    15    15    16   ar
    16    16    17   ar
    17    17    18    1
    18    18    19    2
    19    18    20   am
    20    20    21    1
    21    21    22    1
    22    21    23    1
    23    23    24   ar
    24    24    25   ar
    25    25    26   ar
    26    26    27   ar
    27    27    28   ar
    28    23    28   ar
    29    17    29   ar
    30    29    30   ar
    31    14    30   ar
    32     8    31   ar
    33    31    32   ar
    34     5    32   ar
    35     1    33    1
    36     1    34    1
    37     1    35    1
    38     6    36    1
    39     7    37    1
    40     9    38    1
    41    10    39    1
    42    10    40    1
    43    13    41    1
    44    15    42    1
    45    16    43    1
    46    20    44    1
    47    21    45    1
    48    22    46    1
    49    22    47    1
    50    22    48    1
    51    24    49    1
    52    25    50    1
    53    26    51    1
    54    27    52    1
    55    28    53    1
    56    29    54    1
    57    30    55    1
    58    31    56    1
    59    32    57    1
