@<TRIPOS>MOLECULE
*****
 50 52 0 0 0
SMALL
GASTEIGER

@<TRIPOS>ATOM
      1 C           0.9903    0.0934    0.0764 C.3     1  UNL1        0.0788
      2 O           2.4072    0.2246    0.1290 O.3     1  UNL1       -0.4951
      3 C           3.0692   -0.5928    1.0006 C.ar    1  UNL1        0.1202
      4 C           4.2847   -0.1105    1.4869 C.ar    1  UNL1       -0.0182
      5 C           5.1225   -0.9266    2.2673 C.ar    1  UNL1       -0.0371
      6 C           4.7248   -2.2196    2.6430 C.ar    1  UNL1        0.0311
      7 N           5.5402   -3.0029    3.4911 N.pl3   1  UNL1       -0.3204
      8 C           5.2510   -4.2431    4.0206 C.2     1  UNL1       -0.0026
      9 C           5.9779   -4.9649    4.8857 C.2     1  UNL1        0.0008
     10 C           5.5069   -6.3056    5.3414 C.2     1  UNL1        0.2045
     11 O           4.4525   -6.8141    4.9753 O.2     1  UNL1       -0.2858
     12 C           6.3915   -7.0562    6.3148 C.2     1  UNL1        0.1301
     13 N           6.7606   -8.2829    6.1445 N.2     1  UNL1       -0.0853
     14 O           7.6095   -8.6348    7.2236 O.2     1  UNL1       -0.3882
     15 C           7.6700   -7.5474    8.1590 C.3     1  UNL1        0.1493
     16 C           9.1517   -7.2085    8.4455 C.3     1  UNL1        0.0542
     17 N           9.8142   -8.2311    9.2845 N.pl3   1  UNL1       -0.2869
     18 C          11.2009   -8.1820    9.4213 C.ar    1  UNL1        0.2880
     19 N          11.7513   -7.0551    9.9095 N.ar    1  UNL1       -0.1965
     20 C          13.0752   -6.8560   10.0358 C.ar    1  UNL1        0.1828
     21 C          13.9688   -7.8833    9.7523 C.ar    1  UNL1        0.1196
     22 C          15.4502   -7.6155    9.8113 C.3     1  UNL1        0.4229
     23 F          15.7978   -6.6389    8.9335 F       1  UNL1       -0.1657
     24 F          15.8374   -7.1826   11.0359 F       1  UNL1       -0.1657
     25 F          16.2071   -8.6973    9.5113 F       1  UNL1       -0.1657
     26 C          13.4483   -9.1205    9.3671 C.ar    1  UNL1       -0.0182
     27 C          12.0746   -9.2554    9.1460 C.ar    1  UNL1        0.1288
     28 CL         11.4926  -10.7260    8.4682 Cl      1  UNL1       -0.0752
     29 C           6.9375   -6.3839    7.5118 C.3     1  UNL1        0.0376
     30 C           3.5013   -2.6793    2.1419 C.ar    1  UNL1       -0.0371
     31 C           2.6799   -1.8817    1.3363 C.ar    1  UNL1       -0.0182
     32 H           0.6317    0.6955   -0.7649 H       1  UNL1        0.0660
     33 H           0.5520    0.4954    0.9942 H       1  UNL1        0.0660
     34 H           0.6466   -0.9295   -0.1027 H       1  UNL1        0.0660
     35 H           4.5821    0.9099    1.2527 H       1  UNL1        0.0655
     36 H           6.0924   -0.5303    2.5577 H       1  UNL1        0.0637
     37 H           6.3813   -2.5408    3.8183 H       1  UNL1        0.1516
     38 H           4.3113   -4.6661    3.6735 H       1  UNL1        0.0782
     39 H           6.9198   -4.5948    5.2587 H       1  UNL1        0.0669
     40 H           7.1699   -7.8614    9.0828 H       1  UNL1        0.0780
     41 H           9.1877   -6.2597    8.9917 H       1  UNL1        0.0500
     42 H           9.6881   -7.0826    7.4951 H       1  UNL1        0.0500
     43 H           9.4801   -9.1822    9.0787 H       1  UNL1        0.1517
     44 H          11.1025   -6.3380   10.2247 H       1  UNL1        0.4542
     45 H          13.3882   -5.8669   10.3616 H       1  UNL1        0.1382
     46 H          14.1189   -9.9682    9.2098 H       1  UNL1        0.0642
     47 H           7.6121   -5.5786    7.2143 H       1  UNL1        0.0368
     48 H           6.1413   -5.9881    8.1459 H       1  UNL1        0.0368
     49 H           3.1558   -3.6872    2.3405 H       1  UNL1        0.0637
     50 H           1.7618   -2.3237    0.9682 H       1  UNL1        0.0655
@<TRIPOS>UNITY_ATOM_ATTR
19 1
charge 1
@<TRIPOS>BOND
     1     1     2    1
     2     2     3    1
     3     3     4   ar
     4     4     5   ar
     5     5     6   ar
     6     6     7    1
     7     7     8    1
     8     8     9    2
     9     9    10    1
    10    10    11    2
    11    10    12    1
    12    12    13    2
    13    13    14    1
    14    14    15    1
    15    15    16    1
    16    16    17    1
    17    17    18    1
    18    18    19   ar
    19    19    20   ar
    20    20    21   ar
    21    21    22    1
    22    22    23    1
    23    22    24    1
    24    22    25    1
    25    21    26   ar
    26    26    27   ar
    27    18    27   ar
    28    27    28    1
    29    15    29    1
    30    12    29    1
    31     6    30   ar
    32    30    31   ar
    33     3    31   ar
    34     1    32    1
    35     1    33    1
    36     1    34    1
    37     4    35    1
    38     5    36    1
    39     7    37    1
    40     8    38    1
    41     9    39    1
    42    15    40    1
    43    16    41    1
    44    16    42    1
    45    17    43    1
    46    19    44    1
    47    20    45    1
    48    26    46    1
    49    29    47    1
    50    29    48    1
    51    30    49    1
    52    31    50    1
