REMARK  6 active torsions:
REMARK  status: ('A' for Active; 'I' for Inactive)
REMARK    1  A    between atoms: C_2  and  N_3 
REMARK       I    between atoms: N_3  and  C_4 
REMARK       I    between atoms: C_4  and  N_6 
REMARK    2  A    between atoms: N_6  and  N_7 
REMARK       I    between atoms: N_7  and  C_8 
REMARK    3  A    between atoms: C_8  and  C_10 
REMARK    4  A    between atoms: C_10  and  C_11 
REMARK    5  A    between atoms: C_11  and  C_12 
REMARK    6  A    between atoms: C_14  and  C_15 
ROOT
ATOM      1  C   UNL d   1       8.264  -2.799  -4.036  0.00  0.00     0.112 C 
ENDROOT
BRANCH   1   2
ATOM      2  C   UNL d   1       6.746  -2.657  -3.821  0.00  0.00     0.236 C 
ATOM      3  N   UNL d   1       6.346  -1.921  -2.711  0.00  0.00    -0.266 N 
ATOM      4  H   UNL d   1       6.986  -1.482  -2.049  0.00  0.00     0.190 HD
ATOM      5  O   UNL d   1       5.926  -3.165  -4.589  0.00  0.00    -0.272 OA
BRANCH   3   6
ATOM      6  N   UNL d   1       4.945  -1.737  -2.436  0.00  0.00    -0.249 N 
ATOM      7  C   UNL d   1       4.552  -1.000  -1.328  0.00  0.00     0.334 C 
ATOM      8  N   UNL d   1       3.185  -0.885  -1.155  0.00  0.00    -0.342 N 
ATOM      9  O   UNL d   1       5.371  -0.489  -0.560  0.00  0.00    -0.246 OA
ATOM     10  H   UNL d   1       2.556  -1.323  -1.812  0.00  0.00     0.164 HD
ATOM     11  H   UNL d   1       4.298  -2.173  -3.086  0.00  0.00     0.192 HD
BRANCH   8  12
ATOM     12  C   UNL d   1       2.616  -0.137  -0.032  0.00  0.00     0.120 C 
ATOM     13  C   UNL d   1       1.090  -0.116   0.000  0.00  0.00     0.026 C 
ENDBRANCH   8  12
ENDBRANCH   3   6
ENDBRANCH   1   2
BRANCH   1  14
ATOM     14  C   UNL d   1       8.586  -3.629  -5.293  0.00  0.00     0.098 C 
BRANCH  14  15
ATOM     15  C   UNL d   1      10.041  -3.883  -5.508  0.00  0.00     0.173 A 
ATOM     16  N   UNL d   1      10.667  -5.032  -5.640  0.00  0.00    -0.204 NA
ATOM     17  C   UNL d   1      11.980  -4.647  -5.802  0.00  0.00     0.189 A 
ATOM     18  N   UNL d   1      12.162  -3.316  -5.802  0.00  0.00    -0.106 NA
ATOM     19  O   UNL d   1      10.870  -2.805  -5.633  0.00  0.00    -0.196 OA
BRANCH  17  20
ATOM     20  C   UNL d   1      13.056  -5.606  -6.002  0.00  0.00     0.014 A 
ATOM     21  C   UNL d   1      14.181  -5.611  -5.166  0.00  0.00     0.015 A 
ATOM     22  C   UNL d   1      15.260  -6.458  -5.440  0.00  0.00     0.001 A 
ATOM     23  C   UNL d   1      15.193  -7.352  -6.508  0.00  0.00     0.000 A 
ATOM     24  C   UNL d   1      14.062  -7.380  -7.322  0.00  0.00     0.001 A 
ATOM     25  C   UNL d   1      12.998  -6.509  -7.072  0.00  0.00     0.015 A 
ENDBRANCH  17  20
ENDBRANCH  14  15
ENDBRANCH   1  14
TORSDOF 6
