@<TRIPOS>MOLECULE
*****
 38 39 0 0 0
SMALL
GASTEIGER

@<TRIPOS>ATOM
      1 C           1.0503   -0.1033    0.0620 C.3     1  UNL1        0.0788
      2 O           2.4721   -0.1276    0.1821 O.3     1  UNL1       -0.4951
      3 C           3.1029   -0.9020   -0.7501 C.ar    1  UNL1        0.1201
      4 C           4.1979   -1.6591   -0.3319 C.ar    1  UNL1       -0.0197
      5 C           4.9460   -2.4225   -1.2525 C.ar    1  UNL1       -0.0547
      6 C           4.5717   -2.4827   -2.6075 C.ar    1  UNL1       -0.0384
      7 C           5.2690   -3.4405   -3.5857 C.3     1  UNL1        0.0505
      8 C           4.7090   -3.5023   -5.0295 C.2     1  UNL1        0.2334
      9 O           3.7577   -2.8425   -5.4584 O.2     1  UNL1       -0.2739
     10 N           5.3055   -4.3607   -5.9294 N.am    1  UNL1       -0.2339
     11 N           4.7595   -4.3306   -7.2468 N.am    1  UNL1       -0.2304
     12 C           5.2130   -5.1945   -8.2143 C.2     1  UNL1        0.2603
     13 O           6.0972   -6.0266   -7.9977 O.2     1  UNL1       -0.2687
     14 C           4.5957   -5.0896   -9.5712 C.ar    1  UNL1        0.0416
     15 C           4.3897   -6.2608  -10.3165 C.ar    1  UNL1       -0.0494
     16 C           3.9898   -6.1899  -11.6573 C.ar    1  UNL1       -0.0576
     17 C           3.7334   -4.9525  -12.2484 C.ar    1  UNL1       -0.0201
     18 C           3.9187   -3.7933  -11.4996 C.ar    1  UNL1        0.1176
     19 O           3.7272   -2.5587  -12.0503 O.3     1  UNL1       -0.5067
     20 C           4.3462   -3.8485  -10.1702 C.ar    1  UNL1       -0.0080
     21 C           3.5071   -1.6565   -2.9918 C.ar    1  UNL1       -0.0547
     22 C           2.7757   -0.8874   -2.0914 C.ar    1  UNL1       -0.0197
     23 H           0.6660    0.5689    0.8346 H       1  UNL1        0.0660
     24 H           0.6420   -1.1026    0.2431 H       1  UNL1        0.0660
     25 H           0.6998    0.2860   -0.8997 H       1  UNL1        0.0660
     26 H           4.4574   -1.6666    0.7241 H       1  UNL1        0.0654
     27 H           5.8178   -2.9610   -0.8844 H       1  UNL1        0.0622
     28 H           5.1858   -4.4518   -3.1619 H       1  UNL1        0.0407
     29 H           6.3367   -3.1887   -3.6288 H       1  UNL1        0.0407
     30 H           6.0691   -5.0072   -5.7480 H       1  UNL1        0.1728
     31 H           3.9663   -3.6961   -7.3712 H       1  UNL1        0.1731
     32 H           4.5554   -7.2348   -9.8598 H       1  UNL1        0.0625
     33 H           3.9033   -7.0999  -12.2479 H       1  UNL1        0.0619
     34 H           3.4026   -4.9149  -13.2831 H       1  UNL1        0.0654
     35 H           3.5077   -2.6573  -12.9924 H       1  UNL1        0.2921
     36 H           4.5286   -2.9196   -9.6395 H       1  UNL1        0.0661
     37 H           3.1838   -1.5533   -4.0168 H       1  UNL1        0.0622
     38 H           1.9724   -0.2813   -2.4942 H       1  UNL1        0.0654
@<TRIPOS>BOND
     1     1     2    1
     2     2     3    1
     3     3     4   ar
     4     4     5   ar
     5     5     6   ar
     6     6     7    1
     7     7     8    1
     8     8     9    2
     9     8    10   am
    10    10    11    1
    11    11    12   am
    12    12    13    2
    13    12    14    1
    14    14    15   ar
    15    15    16   ar
    16    16    17   ar
    17    17    18   ar
    18    18    19    1
    19    18    20   ar
    20    14    20   ar
    21     6    21   ar
    22    21    22   ar
    23     3    22   ar
    24     1    23    1
    25     1    24    1
    26     1    25    1
    27     4    26    1
    28     5    27    1
    29     7    28    1
    30     7    29    1
    31    10    30    1
    32    11    31    1
    33    15    32    1
    34    16    33    1
    35    17    34    1
    36    19    35    1
    37    20    36    1
    38    21    37    1
    39    22    38    1
