@<TRIPOS>MOLECULE
*****
 59 61 0 0 0
SMALL
GASTEIGER

@<TRIPOS>ATOM
      1 C           0.9590    0.0459   -0.0793 C.3     1  UNL1       -0.0652
      2 C           2.4803    0.0498   -0.0974 C.3     1  UNL1       -0.0528
      3 C           3.0257    0.3339   -1.5006 C.3     1  UNL1       -0.0188
      4 C           4.5565    0.3336   -1.5220 C.3     1  UNL1        0.0928
      5 O           5.0422    0.5823   -2.8566 O.3     1  UNL1       -0.4612
      6 C           6.3976    0.5230   -2.9801 C.2     1  UNL1        0.3392
      7 O           7.1977    0.3069   -2.0719 O.2     1  UNL1       -0.2450
      8 C           6.8358    0.7994   -4.3675 C.ar    1  UNL1        0.0591
      9 C           7.9214    0.1598   -4.9933 C.ar    1  UNL1       -0.0460
     10 C           8.4046    0.5797   -6.2792 C.ar    1  UNL1       -0.0397
     11 C           7.7784    1.6286   -6.9741 C.ar    1  UNL1        0.0326
     12 N           8.1321    2.0240   -8.3478 N.am    1  UNL1       -0.2966
     13 C           7.4439    2.9801   -9.1680 C.2     1  UNL1        0.1411
     14 S           6.0784    3.8678   -8.7146 S.2     1  UNL1       -0.0182
     15 N           7.9661    3.1766  -10.4724 N.am    1  UNL1       -0.2636
     16 C           7.4606    4.1577  -11.3698 C.2     1  UNL1        0.2497
     17 O           6.5483    4.9572  -11.1655 O.2     1  UNL1       -0.2698
     18 C           7.9870    4.3288  -12.7278 C.ar    1  UNL1        0.0436
     19 C           8.0660    5.6269  -13.2468 C.ar    1  UNL1       -0.0474
     20 C           8.3192    5.8335  -14.6079 C.ar    1  UNL1       -0.0333
     21 C           8.5415    4.7679  -15.5106 C.ar    1  UNL1        0.1079
     22 N           8.8798    5.1336  -16.7957 N.pl3   1  UNL1       -0.3247
     23 C           8.2915    4.6286  -18.0288 C.3     1  UNL1        0.0124
     24 C           9.5095    4.3417  -18.9026 C.3     1  UNL1       -0.0358
     25 C          10.4333    5.5047  -18.5723 C.3     1  UNL1       -0.0358
     26 C          10.1446    5.8277  -17.0946 C.3     1  UNL1        0.0124
     27 C           8.3845    3.4623  -14.9651 C.ar    1  UNL1        0.2946
     28 N           8.5310    2.2077  -15.7288 N.pl3   1  UNL1        0.0815
     29 O           8.9488    2.2248  -16.8855 O.2     1  UNL1        0.0415
     30 O           8.2549    1.1507  -15.1375 O.co2   1  UNL1       -0.5760
     31 C           8.1039    3.2554  -13.5856 C.ar    1  UNL1        0.0296
     32 C           6.7680    2.2631   -6.2452 C.ar    1  UNL1       -0.0397
     33 C           6.2617    1.8631   -5.0137 C.ar    1  UNL1       -0.0460
     34 H           0.5879   -0.1591    0.9303 H       1  UNL1        0.0230
     35 H           0.5623   -0.7239   -0.7488 H       1  UNL1        0.0230
     36 H           0.5621    1.0156   -0.3958 H       1  UNL1        0.0230
     37 H           2.8440   -0.9222    0.2568 H       1  UNL1        0.0264
     38 H           2.8443    0.8067    0.6076 H       1  UNL1        0.0264
     39 H           2.6502    1.3008   -1.8580 H       1  UNL1        0.0298
     40 H           2.6479   -0.4164   -2.2060 H       1  UNL1        0.0298
     41 H           4.9224   -0.6430   -1.1858 H       1  UNL1        0.0697
     42 H           4.9301    1.1152   -0.8497 H       1  UNL1        0.0697
     43 H           8.3950   -0.6744   -4.4770 H       1  UNL1        0.0626
     44 H           9.2854    0.0741   -6.6721 H       1  UNL1        0.0636
     45 H           8.8802    1.4698   -8.7562 H       1  UNL1        0.1538
     46 H           8.7337    2.6029  -10.7910 H       1  UNL1        0.1568
     47 H           7.8714    6.4862  -12.6008 H       1  UNL1        0.0626
     48 H           8.2846    6.8591  -14.9811 H       1  UNL1        0.0638
     49 H           7.7076    5.4420  -18.4757 H       1  UNL1        0.0464
     50 H           7.6064    3.7872  -17.9147 H       1  UNL1        0.0464
     51 H           9.2555    4.2816  -19.9638 H       1  UNL1        0.0281
     52 H          10.0088    3.4059  -18.6302 H       1  UNL1        0.0281
     53 H          10.1839    6.3625  -19.2069 H       1  UNL1        0.0281
     54 H          11.4865    5.2601  -18.7498 H       1  UNL1        0.0281
     55 H          10.0303    6.9113  -16.9732 H       1  UNL1        0.0464
     56 H          10.9712    5.4887  -16.4594 H       1  UNL1        0.0464
     57 H           7.9170    2.2598  -13.1903 H       1  UNL1        0.0693
     58 H           6.2995    3.1742   -6.5462 H       1  UNL1        0.0636
     59 H           5.4526    2.4474   -4.5838 H       1  UNL1        0.0626
@<TRIPOS>UNITY_ATOM_ATTR
28 1
charge 1
30 1
charge -1
@<TRIPOS>BOND
     1     1     2    1
     2     2     3    1
     3     3     4    1
     4     4     5    1
     5     5     6    1
     6     6     7    2
     7     6     8    1
     8     8     9   ar
     9     9    10   ar
    10    10    11   ar
    11    11    12    1
    12    12    13    1
    13    13    14    2
    14    13    15    1
    15    15    16   am
    16    16    17    2
    17    16    18    1
    18    18    19   ar
    19    19    20   ar
    20    20    21   ar
    21    21    22    1
    22    22    23    1
    23    23    24    1
    24    24    25    1
    25    25    26    1
    26    22    26    1
    27    21    27   ar
    28    27    28    1
    29    28    29    2
    30    28    30    1
    31    27    31   ar
    32    18    31   ar
    33    11    32   ar
    34    32    33   ar
    35     8    33   ar
    36     1    34    1
    37     1    35    1
    38     1    36    1
    39     2    37    1
    40     2    38    1
    41     3    39    1
    42     3    40    1
    43     4    41    1
    44     4    42    1
    45     9    43    1
    46    10    44    1
    47    12    45    1
    48    15    46    1
    49    19    47    1
    50    20    48    1
    51    23    49    1
    52    23    50    1
    53    24    51    1
    54    24    52    1
    55    25    53    1
    56    25    54    1
    57    26    55    1
    58    26    56    1
    59    31    57    1
    60    32    58    1
    61    33    59    1
