@<TRIPOS>MOLECULE
*****
 33 34 0 0 0
SMALL
GASTEIGER

@<TRIPOS>ATOM
      1 C           1.1219   -0.0528   -0.2114 C.3     1  UNL1       -0.0447
      2 C           2.5932    0.0440    0.0165 C.2     1  UNL1       -0.0642
      3 C           3.1887    0.5205    1.1351 C.2     1  UNL1        0.0474
      4 N           2.5206    0.9775    2.2820 N.pl3   1  UNL1       -0.2640
      5 N           1.1157    0.9786    2.4889 N.am    1  UNL1       -0.2320
      6 C           0.4654    1.5190    3.5830 C.2     1  UNL1        0.2667
      7 O           1.0705    2.0144    4.5379 O.2     1  UNL1       -0.2681
      8 C          -1.0053    1.4321    3.4768 C.ar    1  UNL1        0.0753
      9 C          -1.8003    0.4011    2.9858 C.ar    1  UNL1       -0.0425
     10 C          -3.2025    0.6717    3.0877 C.ar    1  UNL1       -0.0540
     11 C          -3.4450    1.9208    3.6110 C.ar    1  UNL1       -0.0236
     12 S          -1.9898    2.7386    4.0063 S.2     1  UNL1       -0.0921
     13 C           4.7060    0.5251    1.1305 C.ar    1  UNL1       -0.0028
     14 C           5.4611    0.9700    0.0164 C.ar    1  UNL1       -0.0493
     15 C           6.8724    0.9617    0.0112 C.ar    1  UNL1       -0.0196
     16 C           7.5543    0.5061    1.1299 C.ar    1  UNL1        0.1169
     17 O           8.9167    0.4917    1.2049 O.3     1  UNL1       -0.5068
     18 C           6.8450    0.0413    2.2299 C.ar    1  UNL1       -0.0196
     19 C           5.4371    0.0489    2.2304 C.ar    1  UNL1       -0.0493
     20 H           0.8656   -0.4576   -1.1894 H       1  UNL1        0.0272
     21 H           0.6773    0.9489   -0.1641 H       1  UNL1        0.0272
     22 H           0.6786   -0.7273    0.5312 H       1  UNL1        0.0272
     23 H           3.1892   -0.3203   -0.8179 H       1  UNL1        0.0588
     24 H           3.0856    1.3388    3.0538 H       1  UNL1        0.1700
     25 H           0.5296    0.7687    1.7047 H       1  UNL1        0.1731
     26 H          -1.4104   -0.5384    2.6131 H       1  UNL1        0.0630
     27 H          -3.9935   -0.0156    2.8034 H       1  UNL1        0.0623
     28 H          -4.4093    2.3809    3.7947 H       1  UNL1        0.0693
     29 H           4.9566    1.3329   -0.8772 H       1  UNL1        0.0625
     30 H           7.4091    1.3123   -0.8669 H       1  UNL1        0.0654
     31 H           9.2973    0.8761    0.3983 H       1  UNL1        0.2921
     32 H           7.3908   -0.3316    3.0930 H       1  UNL1        0.0654
     33 H           4.9229   -0.3465    3.1018 H       1  UNL1        0.0625
@<TRIPOS>BOND
     1     1     2    1
     2     2     3    2
     3     3     4    1
     4     4     5    1
     5     5     6   am
     6     6     7    2
     7     6     8    1
     8     8     9   ar
     9     9    10   ar
    10    10    11   ar
    11    11    12   ar
    12     8    12   ar
    13     3    13    1
    14    13    14   ar
    15    14    15   ar
    16    15    16   ar
    17    16    17    1
    18    16    18   ar
    19    18    19   ar
    20    13    19   ar
    21     1    20    1
    22     1    21    1
    23     1    22    1
    24     2    23    1
    25     4    24    1
    26     5    25    1
    27     9    26    1
    28    10    27    1
    29    11    28    1
    30    14    29    1
    31    15    30    1
    32    17    31    1
    33    18    32    1
    34    19    33    1
