@<TRIPOS>MOLECULE
*****
 69 71 0 0 0
SMALL
GASTEIGER

@<TRIPOS>ATOM
      1 C           7.8664  -10.8778    0.9158 C.3     1  UNL1       -0.0652
      2 C           6.8642   -9.7470    1.0524 C.3     1  UNL1       -0.0545
      3 C           7.5407   -8.4650    1.5383 C.3     1  UNL1       -0.0376
      4 C           6.5143   -7.3521    1.6597 C.3     1  UNL1        0.0116
      5 N           7.0791   -6.0828    2.0414 N.am    1  UNL1       -0.3135
      6 C           6.2115   -5.0601    2.3580 C.2     1  UNL1        0.2381
      7 O           4.9771   -5.2166    2.2202 O.2     1  UNL1       -0.2734
      8 C           6.7839   -3.6745    2.8004 C.3     1  UNL1        0.1275
      9 C           6.0323   -2.6539    1.9035 C.ar    1  UNL1       -0.0180
     10 C           6.4221   -2.5628    0.5711 C.ar    1  UNL1       -0.0529
     11 C           6.2156   -1.3759   -0.1592 C.ar    1  UNL1       -0.0199
     12 C           5.2719   -0.4788    0.2669 C.ar    1  UNL1        0.1169
     13 O           5.0671    0.6935   -0.3920 O.3     1  UNL1       -0.5068
     14 C           4.5029   -0.8292    1.3654 C.ar    1  UNL1       -0.0199
     15 C           4.9066   -1.8901    2.2187 C.ar    1  UNL1       -0.0529
     16 N           8.3309   -3.6357    2.7232 N.am    1  UNL1       -0.2830
     17 C           9.0636   -2.5016    2.1970 C.3     1  UNL1        0.0156
     18 C           8.6400   -1.3903    1.2814 C.3     1  UNL1       -0.0400
     19 C           9.4848   -0.3260    0.6308 C.3     1  UNL1       -0.0639
     20 C           9.0601   -4.4332    3.6865 C.2     1  UNL1        0.2574
     21 O           8.3985   -5.2011    4.4021 O.2     1  UNL1       -0.2716
     22 C          10.7680   -4.5097    3.7173 C.3     1  UNL1        0.1924
     23 O          11.2881   -4.8924    2.4369 O.3     1  UNL1       -0.3711
     24 C          11.4632   -3.1641    4.1668 C.ar    1  UNL1       -0.0027
     25 C          12.1289   -2.9532    5.3713 C.ar    1  UNL1       -0.0550
     26 C          12.1370   -1.7118    6.0139 C.ar    1  UNL1       -0.0614
     27 C          11.6673   -0.5979    5.3500 C.ar    1  UNL1       -0.0617
     28 C          11.3285   -0.7410    4.0228 C.ar    1  UNL1       -0.0614
     29 C          11.4218   -1.9996    3.4155 C.ar    1  UNL1       -0.0550
     30 C          11.0884   -5.7414    4.6315 C.ar    1  UNL1       -0.0027
     31 C          11.0282   -7.0601    4.1477 C.ar    1  UNL1       -0.0550
     32 C          11.1635   -8.1445    5.0276 C.ar    1  UNL1       -0.0614
     33 C          11.5341   -7.9432    6.3574 C.ar    1  UNL1       -0.0617
     34 C          11.6358   -6.6592    6.8465 C.ar    1  UNL1       -0.0614
     35 C          11.2759   -5.6083    6.0188 C.ar    1  UNL1       -0.0550
     36 H           7.3694  -11.7862    0.5625 H       1  UNL1        0.0230
     37 H           8.3376  -11.0971    1.8789 H       1  UNL1        0.0230
     38 H           8.6507  -10.6157    0.1991 H       1  UNL1        0.0230
     39 H           6.0744  -10.0440    1.7534 H       1  UNL1        0.0263
     40 H           6.3828   -9.5700    0.0829 H       1  UNL1        0.0263
     41 H           8.3348   -8.1717    0.8416 H       1  UNL1        0.0280
     42 H           8.0184   -8.6402    2.5106 H       1  UNL1        0.0280
     43 H           5.7473   -7.6238    2.3945 H       1  UNL1        0.0462
     44 H           6.0145   -7.1869    0.6984 H       1  UNL1        0.0462
     45 H           8.0004   -6.0684    2.4651 H       1  UNL1        0.1487
     46 H           6.5305   -3.5220    3.8627 H       1  UNL1        0.0648
     47 H           7.1573   -3.2928    0.2326 H       1  UNL1        0.0622
     48 H           6.9105   -1.1164   -0.9563 H       1  UNL1        0.0654
     49 H           5.7736    0.8218   -1.0511 H       1  UNL1        0.2921
     50 H           3.5859   -0.2797    1.5482 H       1  UNL1        0.0654
     51 H           4.2834   -2.1455    3.0724 H       1  UNL1        0.0622
     52 H           9.8384   -2.9861    1.6148 H       1  UNL1        0.0465
     53 H           9.2902   -1.9696    3.1034 H       1  UNL1        0.0465
     54 H           7.8384   -0.8576    1.7949 H       1  UNL1        0.0278
     55 H           8.4490   -1.9313    0.3683 H       1  UNL1        0.0278
     56 H          10.1217    0.2216    1.3127 H       1  UNL1        0.0230
     57 H           8.7796    0.3793    0.1614 H       1  UNL1        0.0230
     58 H          10.0589   -0.7548   -0.1989 H       1  UNL1        0.0230
     59 H          11.0612   -4.2237    1.7842 H       1  UNL1        0.2116
     60 H          12.6897   -3.7472    5.8513 H       1  UNL1        0.0621
     61 H          12.5103   -1.6376    7.0299 H       1  UNL1        0.0618
     62 H          11.6750    0.3804    5.8155 H       1  UNL1        0.0618
     63 H          10.9612    0.1089    3.4545 H       1  UNL1        0.0618
     64 H          11.3065   -2.0352    2.3432 H       1  UNL1        0.0621
     65 H          10.8048   -7.2607    3.1012 H       1  UNL1        0.0621
     66 H          10.9501   -9.1520    4.6836 H       1  UNL1        0.0618
     67 H          11.6823   -8.7781    7.0329 H       1  UNL1        0.0618
     68 H          11.9035   -6.4515    7.8781 H       1  UNL1        0.0618
     69 H          11.1195   -4.6656    6.5261 H       1  UNL1        0.0621
@<TRIPOS>BOND
     1     1     2    1
     2     2     3    1
     3     3     4    1
     4     4     5    1
     5     5     6   am
     6     6     7    2
     7     9    10   ar
     8    10    11   ar
     9    11    12   ar
    10    12    13    1
    11    12    14   ar
    12    14    15   ar
    13     9    15   ar
    14     8    16    1
    15    16    17    1
    16    17    18    1
    17    18    19    1
    18    16    20   am
    19    20    21    2
    20    20    22    1
    21    22    23    1
    22    22    24    1
    23    24    25   ar
    24    25    26   ar
    25    26    27   ar
    26    27    28   ar
    27    28    29   ar
    28    24    29   ar
    29    22    30    1
    30    30    31   ar
    31    31    32   ar
    32    32    33   ar
    33    33    34   ar
    34    34    35   ar
    35    30    35   ar
    36     8     9    1
    37     8     6    1
    38     1    36    1
    39     1    37    1
    40     1    38    1
    41     2    39    1
    42     2    40    1
    43     3    41    1
    44     3    42    1
    45     4    43    1
    46     4    44    1
    47     5    45    1
    48     8    46    1
    49    10    47    1
    50    11    48    1
    51    13    49    1
    52    14    50    1
    53    15    51    1
    54    17    52    1
    55    17    53    1
    56    18    54    1
    57    18    55    1
    58    19    56    1
    59    19    57    1
    60    19    58    1
    61    23    59    1
    62    25    60    1
    63    26    61    1
    64    27    62    1
    65    28    63    1
    66    29    64    1
    67    31    65    1
    68    32    66    1
    69    33    67    1
    70    34    68    1
    71    35    69    1
