@<TRIPOS>MOLECULE
*****
 37 38 0 0 0
SMALL
GASTEIGER

@<TRIPOS>ATOM
      1 C           0.9486   -0.0887   -0.0318 C.3     1  UNL1       -0.0307
      2 C           2.4681   -0.0930   -0.0277 C.3     1  UNL1        0.0870
      3 O           2.9298   -1.3968   -0.4008 O.3     1  UNL1       -0.4885
      4 C           4.2940   -1.5631   -0.4283 C.ar    1  UNL1        0.1634
      5 C           4.7955   -2.3014   -1.5183 C.ar    1  UNL1       -0.0076
      6 C           6.1671   -2.5852   -1.6380 C.ar    1  UNL1       -0.0007
      7 C           6.6957   -3.3662   -2.8041 C.2     1  UNL1        0.0529
      8 N           5.9069   -3.7913   -3.7399 N.2     1  UNL1       -0.1877
      9 N           6.4274   -4.5129   -4.7939 N.am    1  UNL1       -0.2049
     10 C           5.5380   -4.9667   -5.7756 C.2     1  UNL1        0.2625
     11 O           4.3209   -4.7455   -5.7245 O.2     1  UNL1       -0.2713
     12 C           6.1724   -5.7015   -6.9743 C.3     1  UNL1        0.1690
     13 C           5.2340   -5.7771   -8.1266 C.2     1  UNL1       -0.0265
     14 C           4.9788   -7.0716   -8.3093 C.2     1  UNL1        0.0587
     15 C           4.0220   -7.6421   -9.2981 C.3     1  UNL1       -0.0208
     16 N           5.6776   -7.8645   -7.4324 N.2     1  UNL1       -0.1585
     17 N           6.3579   -7.1431   -6.6380 N.2     1  UNL1       -0.1703
     18 C           7.0447   -2.1295   -0.6469 C.ar    1  UNL1       -0.0353
     19 C           6.5435   -1.4119    0.4496 C.ar    1  UNL1        0.0635
     20 BR          7.7533   -0.8108    1.7869 Br      1  UNL1       -0.0464
     21 C           5.1746   -1.1407    0.5731 C.ar    1  UNL1        0.1727
     22 O           4.6963   -0.5056    1.6888 O.3     1  UNL1       -0.5026
     23 H           0.5677    0.8977    0.2523 H       1  UNL1        0.0262
     24 H           0.5635   -0.8250    0.6823 H       1  UNL1        0.0262
     25 H           0.5557   -0.3530   -1.0171 H       1  UNL1        0.0262
     26 H           2.7621    0.1860    0.9841 H       1  UNL1        0.0694
     27 H           2.8456    0.6526   -0.7366 H       1  UNL1        0.0694
     28 H           4.1028   -2.6556   -2.2807 H       1  UNL1        0.0662
     29 H           7.7837   -3.5594   -2.8280 H       1  UNL1        0.0851
     30 H           7.4191   -4.7237   -4.8292 H       1  UNL1        0.1773
     31 H           7.1224   -5.2479   -7.2746 H       1  UNL1        0.0705
     32 H           4.7806   -4.9481   -8.6419 H       1  UNL1        0.0617
     33 H           3.5373   -6.8443   -9.8735 H       1  UNL1        0.0293
     34 H           3.2303   -8.2145   -8.8036 H       1  UNL1        0.0293
     35 H           4.5346   -8.2961  -10.0100 H       1  UNL1        0.0293
     36 H           8.1100   -2.3327   -0.7106 H       1  UNL1        0.0636
     37 H           5.4418   -0.2714    2.2681 H       1  UNL1        0.2923
@<TRIPOS>BOND
     1     1     2    1
     2     2     3    1
     3     3     4    1
     4     4     5   ar
     5     5     6   ar
     6     6     7    1
     7     7     8    2
     8     8     9    1
     9     9    10   am
    10    10    11    2
    11    10    12    1
    12    12    13    1
    13    13    14    2
    14    14    15    1
    15    14    16    1
    16    16    17    2
    17    12    17    1
    18     6    18   ar
    19    18    19   ar
    20    19    20    1
    21    19    21   ar
    22     4    21   ar
    23    21    22    1
    24     1    23    1
    25     1    24    1
    26     1    25    1
    27     2    26    1
    28     2    27    1
    29     5    28    1
    30     7    29    1
    31     9    30    1
    32    12    31    1
    33    13    32    1
    34    15    33    1
    35    15    34    1
    36    15    35    1
    37    18    36    1
    38    22    37    1
