@<TRIPOS>MOLECULE
*****
 43 44 0 0 0
SMALL
GASTEIGER

@<TRIPOS>ATOM
      1 C           2.4944   -0.0382    0.0041 C.3     1  UNL1       -0.0397
      2 C           0.9981   -0.0657    0.0523 C.ar    1  UNL1       -0.0487
      3 C           0.2647   -1.2456    0.0057 C.ar    1  UNL1       -0.0587
      4 C          -1.1297   -1.1920   -0.0001 C.ar    1  UNL1       -0.0598
      5 C          -1.7949    0.0437    0.0060 C.ar    1  UNL1       -0.0408
      6 C          -1.0798    1.2447    0.0574 C.ar    1  UNL1        0.0279
      7 N          -1.7258    2.4624    0.0100 N.pl3   1  UNL1       -0.3331
      8 C          -1.0584    3.7775   -0.0385 C.3     1  UNL1        0.0948
      9 C          -0.2130    3.9303   -1.3016 C.3     1  UNL1       -0.0381
     10 C          -2.1245    4.8936   -0.0835 C.2     1  UNL1        0.2372
     11 O          -3.3175    4.6037   -0.2559 O.2     1  UNL1       -0.2734
     12 N          -1.6417    6.1976    0.0578 N.am    1  UNL1       -0.2835
     13 C          -2.5070    7.3231    0.0839 C.ar    1  UNL1        0.0393
     14 C          -3.6238    7.3401    0.9443 C.ar    1  UNL1       -0.0290
     15 C          -3.9203    6.2481    1.9383 C.3     1  UNL1       -0.0379
     16 C          -4.5003    8.4374    0.9168 C.ar    1  UNL1       -0.0571
     17 C          -4.2703    9.5165    0.0706 C.ar    1  UNL1       -0.0611
     18 C          -3.1450    9.5224   -0.7482 C.ar    1  UNL1       -0.0571
     19 C          -2.2392    8.4436   -0.7378 C.ar    1  UNL1       -0.0290
     20 C          -1.0585    8.5027   -1.6683 C.3     1  UNL1       -0.0379
     21 C           0.3132    1.1498    0.1245 C.ar    1  UNL1       -0.0379
     22 H           2.9164   -1.0457    0.0064 H       1  UNL1        0.0278
     23 H           2.8851    0.5030    0.8720 H       1  UNL1        0.0278
     24 H           2.8298    0.4714   -0.9073 H       1  UNL1        0.0278
     25 H           0.7707   -2.2064   -0.0189 H       1  UNL1        0.0620
     26 H          -1.7012   -2.1166   -0.0203 H       1  UNL1        0.0618
     27 H          -2.8821    0.0499   -0.0307 H       1  UNL1        0.0636
     28 H          -2.7456    2.4930   -0.0179 H       1  UNL1        0.1468
     29 H          -0.4680    3.9072    0.8781 H       1  UNL1        0.0591
     30 H          -0.8509    3.9068   -2.1901 H       1  UNL1        0.0252
     31 H           0.5342    3.1487   -1.4380 H       1  UNL1        0.0252
     32 H           0.3350    4.8760   -1.2908 H       1  UNL1        0.0252
     33 H          -0.6688    6.3763   -0.1546 H       1  UNL1        0.1549
     34 H          -3.1161    5.5153    2.0319 H       1  UNL1        0.0278
     35 H          -4.8351    5.7238    1.6455 H       1  UNL1        0.0278
     36 H          -4.0316    6.6649    2.9419 H       1  UNL1        0.0278
     37 H          -5.3731    8.4476    1.5658 H       1  UNL1        0.0621
     38 H          -4.9669   10.3511    0.0535 H       1  UNL1        0.0618
     39 H          -2.9924   10.3717   -1.4127 H       1  UNL1        0.0621
     40 H          -1.0539    9.4261   -2.2603 H       1  UNL1        0.0278
     41 H          -1.0865    7.6654   -2.3722 H       1  UNL1        0.0278
     42 H          -0.1260    8.4771   -1.0970 H       1  UNL1        0.0278
     43 H           0.9167    2.0448    0.2180 H       1  UNL1        0.0639
@<TRIPOS>BOND
     1     1     2    1
     2     2     3   ar
     3     3     4   ar
     4     4     5   ar
     5     5     6   ar
     6     6     7    1
     7     7     8    1
     8     8     9    1
     9     8    10    1
    10    10    11    2
    11    10    12   am
    12    12    13    1
    13    13    14   ar
    14    14    15    1
    15    14    16   ar
    16    16    17   ar
    17    17    18   ar
    18    18    19   ar
    19    13    19   ar
    20    19    20    1
    21     6    21   ar
    22     2    21   ar
    23     1    22    1
    24     1    23    1
    25     1    24    1
    26     3    25    1
    27     4    26    1
    28     5    27    1
    29     7    28    1
    30     8    29    1
    31     9    30    1
    32     9    31    1
    33     9    32    1
    34    12    33    1
    35    15    34    1
    36    15    35    1
    37    15    36    1
    38    16    37    1
    39    17    38    1
    40    18    39    1
    41    20    40    1
    42    20    41    1
    43    20    42    1
    44    21    43    1
