REMARK  9 active torsions:
REMARK  status: ('A' for Active; 'I' for Inactive)
REMARK    1  A    between atoms: C_2  and  O_1 
REMARK    2  A    between atoms: C_2  and  C_24 
REMARK    3  A    between atoms: C_2  and  C_3 
REMARK    4  A    between atoms: C_3  and  N_4 
REMARK    5  A    between atoms: C_6  and  N_7 
REMARK    6  A    between atoms: N_7  and  C_8 
REMARK    7  A    between atoms: C_12  and  O_13 
REMARK    8  A    between atoms: O_13  and  C_14 
REMARK    9  A    between atoms: C_24  and  N_25 
ROOT
ATOM      1  N   UNL d   1       0.466  -0.638   1.241  0.00  0.00    -0.277 N 
ATOM      2  C   UNL d   1       1.127  -0.996   2.362  0.00  0.00     0.143 A 
ATOM      3  C   UNL d   1       0.213  -1.342   3.302  0.00  0.00     0.085 A 
ATOM      4  C   UNL d   1      -1.024  -1.228   2.636  0.00  0.00     0.170 A 
ATOM      5  N   UNL d   1      -0.872  -0.796   1.367  0.00  0.00    -0.183 NA
ENDROOT
BRANCH   3   6
ATOM      6  N   UNL d   1       0.538  -1.729   4.565  0.00  0.00    -0.185 N 
ATOM      7  H   UNL d   1      -0.078  -2.352   5.067  0.00  0.00     0.184 HD
BRANCH   6   8
ATOM      8  C   UNL d   1       1.866  -1.947   4.991  0.00  0.00     0.729 A 
ATOM      9  N   UNL d   1       2.210  -3.215   5.265  0.00  0.00    -0.075 NA
ATOM     10  C   UNL d   1       3.501  -3.446   5.561  0.00  0.00     0.141 A 
ATOM     11  C   UNL d   1       4.445  -2.460   5.666  0.00  0.00     0.079 A 
ATOM     12  C   UNL d   1       4.019  -1.182   5.389  0.00  0.00     0.190 A 
ATOM     13  N   UNL d   1       2.747  -0.921   5.020  0.00  0.00    -0.038 NA
BRANCH  12  14
ATOM     14  O   UNL d   1       4.840  -0.063   5.479  0.00  0.00    -0.291 OA
BRANCH  14  15
ATOM     15  C   UNL d   1       6.193  -0.235   5.687  0.00  0.00     0.078 A 
ATOM     16  C   UNL d   1       6.980  -0.989   4.806  0.00  0.00     0.040 A 
ATOM     17  C   UNL d   1       8.332  -1.197   5.080  0.00  0.00     0.045 A 
ATOM     18  C   UNL d   1       8.909  -0.589   6.188  0.00  0.00     0.116 A 
ATOM     19  F   UNL d   1      10.211  -0.780   6.436  0.00  0.00    -0.206 F 
ATOM     20  C   UNL d   1       8.154   0.216   7.036  0.00  0.00     0.045 A 
ATOM     21  C   UNL d   1       6.788   0.395   6.787  0.00  0.00     0.040 A 
ENDBRANCH  14  15
ENDBRANCH  12  14
ENDBRANCH   6   8
ENDBRANCH   3   6
BRANCH   1  22
ATOM     22  C   UNL d   1       1.017  -0.079   0.027  0.00  0.00     0.183 C 
BRANCH  22  23
ATOM     23  C   UNL d   1       2.568  -0.028  -0.162  0.00  0.00     0.164 C 
BRANCH  23  24
ATOM     24  C   UNL d   1       2.975  -0.720  -1.470  0.00  0.00     0.268 C 
BRANCH  24  25
ATOM     25  N   UNL d   1       4.512  -0.715  -1.560  0.00  0.00    -0.069 N 
ATOM     26  C   UNL d   1       5.095   0.588  -2.041  0.00  0.00     0.235 C 
ATOM     27  C   UNL d   1       5.117   0.397  -3.538  0.00  0.00     0.029 C 
ATOM     28  C   UNL d   1       5.522  -1.056  -3.719  0.00  0.00     0.029 C 
ATOM     29  C   UNL d   1       5.068  -1.787  -2.466  0.00  0.00     0.235 C 
ATOM     30  H   UNL d   1       4.829  -0.930  -0.599  0.00  0.00     0.280 HD
ENDBRANCH  24  25
ENDBRANCH  23  24
BRANCH  23  31
ATOM     31  O   UNL d   1       3.397  -0.733   0.778  0.00  0.00    -0.392 OA
ATOM     32  H   UNL d   1       4.001  -0.114   1.228  0.00  0.00     0.210 HD
ENDBRANCH  23  31
ENDBRANCH  22  23
ENDBRANCH   1  22
TORSDOF 9
