REMARK  7 active torsions:
REMARK  status: ('A' for Active; 'I' for Inactive)
REMARK    1  A    between atoms: C_2  and  N_3 
REMARK       I    between atoms: N_3  and  C_4 
REMARK    2  A    between atoms: C_6  and  C_4 
REMARK    3  A    between atoms: C_6  and  N_8 
REMARK       I    between atoms: N_8  and  C_9 
REMARK    4  A    between atoms: C_9  and  C_11 
REMARK    5  A    between atoms: C_13  and  N_14 
REMARK       I    between atoms: N_14  and  C_15 
REMARK    6  A    between atoms: C_15  and  C_17 
REMARK    7  A    between atoms: C_21  and  O_22 
ROOT
ATOM      1  C   UNL d   1       8.717   3.282   2.842  0.00  0.00     0.067 A 
ATOM      2  C   UNL d   1       9.453   3.385   4.057  0.00  0.00     0.049 A 
ATOM      3  C   UNL d   1      10.857   3.408   4.035  0.00  0.00     0.035 A 
ATOM      4  C   UNL d   1      11.470   3.362   2.775  0.00  0.00     0.032 A 
ATOM      5  C   UNL d   1      10.753   3.271   1.582  0.00  0.00     0.040 A 
ATOM      6  C   UNL d   1       9.374   3.216   1.614  0.00  0.00     0.081 A 
ENDROOT
BRANCH   1   7
ATOM      7  C   UNL d   1       7.242   3.357   2.870  0.00  0.00     0.255 C 
ATOM      8  N   UNL d   1       6.532   2.399   2.174  0.00  0.00    -0.344 N 
ATOM      9  H   UNL d   1       7.047   1.838   1.502  0.00  0.00     0.163 HD
ATOM     10  O   UNL d   1       6.720   4.246   3.547  0.00  0.00    -0.268 OA
BRANCH   8  11
ATOM     11  C   UNL d   1       5.060   2.376   2.105  0.00  0.00     0.172 C 
ATOM     12  C   UNL d   1       4.565   1.344   1.083  0.00  0.00     0.042 C 
BRANCH  11  13
ATOM     13  C   UNL d   1       4.457   2.030   3.496  0.00  0.00     0.240 C 
ATOM     14  N   UNL d   1       4.713   2.952   4.488  0.00  0.00    -0.360 N 
ATOM     15  H   UNL d   1       5.365   3.708   4.268  0.00  0.00     0.162 HD
ATOM     16  O   UNL d   1       3.775   1.027   3.701  0.00  0.00    -0.271 OA
BRANCH  14  17
ATOM     17  C   UNL d   1       4.361   2.713   5.864  0.00  0.00     0.118 C 
ATOM     18  C   UNL d   1       4.870   3.808   6.784  0.00  0.00     0.026 C 
ENDBRANCH  14  17
ENDBRANCH  11  13
ENDBRANCH   8  11
ENDBRANCH   1   7
BRANCH   6  19
ATOM     19  O   UNL d   1       8.673   3.119   0.446  0.00  0.00    -0.360 OA
ATOM     20  H   UNL d   1       9.295   3.147  -0.302  0.00  0.00     0.217 HD
ENDBRANCH   6  19
BRANCH   3  21
ATOM     21  N   UNL d   1      11.628   3.479   5.244  0.00  0.00    -0.327 N 
ATOM     22  C   UNL d   1      13.023   3.496   5.281  0.00  0.00     0.221 C 
ATOM     23  O   UNL d   1      13.751   3.458   4.289  0.00  0.00    -0.273 OA
ATOM     24  H   UNL d   1      11.120   3.509   6.122  0.00  0.00     0.169 HD
BRANCH  22  25
ATOM     25  C   UNL d   1      13.685   3.561   6.649  0.00  0.00     0.098 C 
ATOM     26  C   UNL d   1      15.210   3.573   6.456  0.00  0.00     0.014 C 
ENDBRANCH  22  25
ENDBRANCH   3  21
TORSDOF 7
