@<TRIPOS>MOLECULE
*****
 67 69 0 0 0
SMALL
GASTEIGER

@<TRIPOS>ATOM
      1 C           0.9397   -0.0774   -0.0407 C.3     1  UNL1       -0.0653
      2 C           2.4575   -0.0867   -0.0222 C.3     1  UNL1       -0.0559
      3 C           2.9772   -0.7392    1.2593 C.3     1  UNL1       -0.0529
      4 C           4.4979   -0.7499    1.2812 C.3     1  UNL1       -0.0448
      5 C           5.0701   -1.3995    2.5491 C.3     1  UNL1        0.0243
      6 C           6.5887   -1.3646    2.4750 C.2     1  UNL1        0.2172
      7 O           7.1557   -0.8463    1.5230 O.2     1  UNL1       -0.2755
      8 N           7.2462   -1.9783    3.5370 N.am    1  UNL1       -0.2854
      9 C           8.6572   -1.9591    3.6398 C.ar    1  UNL1        0.0351
     10 C           9.3653   -3.0471    4.1403 C.ar    1  UNL1       -0.0404
     11 C          10.7576   -2.9597    4.2663 C.ar    1  UNL1       -0.0583
     12 C          11.4380   -1.7935    3.8798 C.ar    1  UNL1       -0.0407
     13 C          10.7386   -0.6821    3.4029 C.ar    1  UNL1        0.0293
     14 N          11.3857    0.4824    3.0415 N.pl3   1  UNL1       -0.3353
     15 C          10.6612    1.7058    2.6530 C.3     1  UNL1        0.0861
     16 C          11.6425    2.8684    2.4950 C.2     1  UNL1        0.2343
     17 O          12.8449    2.6637    2.6887 O.2     1  UNL1       -0.2738
     18 N          11.0840    4.1214    2.1884 N.am    1  UNL1       -0.2842
     19 C          11.8747    5.2664    1.8800 C.ar    1  UNL1        0.0341
     20 C          11.4988    6.5750    2.1236 C.ar    1  UNL1       -0.0404
     21 C          12.3562    7.6173    1.7140 C.ar    1  UNL1       -0.0593
     22 C          13.5519    7.3527    1.0119 C.ar    1  UNL1       -0.0495
     23 C          13.9181    6.0382    0.7162 C.ar    1  UNL1        0.0390
     24 C          15.1301    5.7335   -0.1373 C.2     1  UNL1        0.2506
     25 O          15.8025    6.7217   -0.4265 O.2     1  UNL1       -0.2696
     26 N          15.4248    4.4355   -0.6590 N.am    1  UNL1       -0.2705
     27 C          14.7443    3.1455   -0.4184 C.3     1  UNL1        0.0086
     28 C          16.6311    4.2323   -1.4269 C.ar    1  UNL1        0.0363
     29 C          16.6270    3.3027   -2.4848 C.ar    1  UNL1       -0.0403
     30 C          17.7980    2.9260   -3.1311 C.ar    1  UNL1       -0.0600
     31 C          18.9925    3.5385   -2.7836 C.ar    1  UNL1       -0.0616
     32 C          19.0174    4.4866   -1.7600 C.ar    1  UNL1       -0.0600
     33 C          17.8441    4.8291   -1.0790 C.ar    1  UNL1       -0.0403
     34 C          13.0975    5.0667    1.2546 C.ar    1  UNL1       -0.0283
     35 C           9.3552   -0.8050    3.2791 C.ar    1  UNL1       -0.0196
     36 H           0.5707    0.3899   -0.9582 H       1  UNL1        0.0230
     37 H           0.5461    0.4835    0.8129 H       1  UNL1        0.0230
     38 H           0.5462   -1.0977    0.0074 H       1  UNL1        0.0230
     39 H           2.8288    0.9425   -0.0993 H       1  UNL1        0.0263
     40 H           2.8289   -0.6297   -0.8998 H       1  UNL1        0.0263
     41 H           2.6015   -1.7665    1.3279 H       1  UNL1        0.0265
     42 H           2.6008   -0.1909    2.1305 H       1  UNL1        0.0265
     43 H           4.8680    0.2809    1.1963 H       1  UNL1        0.0270
     44 H           4.8683   -1.2863    0.3971 H       1  UNL1        0.0270
     45 H           4.7311   -2.4376    2.6270 H       1  UNL1        0.0358
     46 H           4.7367   -0.8494    3.4360 H       1  UNL1        0.0358
     47 H           6.7326   -2.5548    4.1889 H       1  UNL1        0.1548
     48 H           8.8692   -3.9855    4.3684 H       1  UNL1        0.0636
     49 H          11.3215   -3.8009    4.6648 H       1  UNL1        0.0619
     50 H          12.5227   -1.7662    3.9616 H       1  UNL1        0.0636
     51 H          12.3822    0.5915    3.2233 H       1  UNL1        0.1466
     52 H           9.9417    1.9891    3.4281 H       1  UNL1        0.0557
     53 H          10.1519    1.5355    1.6988 H       1  UNL1        0.0557
     54 H          10.0766    4.2251    2.1354 H       1  UNL1        0.1549
     55 H          10.6190    6.8048    2.7167 H       1  UNL1        0.0636
     56 H          12.0985    8.6507    1.9380 H       1  UNL1        0.0618
     57 H          14.2013    8.1788    0.7218 H       1  UNL1        0.0625
     58 H          13.7370    3.1773   -0.0620 H       1  UNL1        0.0433
     59 H          15.3657    2.5465    0.2598 H       1  UNL1        0.0433
     60 H          14.5517    2.6112   -1.3446 H       1  UNL1        0.0433
     61 H          15.7020    2.8664   -2.8486 H       1  UNL1        0.0636
     62 H          17.7643    2.1584   -3.8987 H       1  UNL1        0.0618
     63 H          19.9024    3.2805   -3.3157 H       1  UNL1        0.0618
     64 H          19.9585    4.9465   -1.4723 H       1  UNL1        0.0618
     65 H          17.9061    5.5263   -0.2478 H       1  UNL1        0.0636
     66 H          13.4177    4.0635    1.2568 H       1  UNL1        0.0644
     67 H           8.7863    0.0439    2.9199 H       1  UNL1        0.0655
@<TRIPOS>BOND
     1     1     2    1
     2     2     3    1
     3     3     4    1
     4     4     5    1
     5     5     6    1
     6     6     7    2
     7     6     8   am
     8     8     9    1
     9     9    10   ar
    10    10    11   ar
    11    11    12   ar
    12    12    13   ar
    13    13    14    1
    14    14    15    1
    15    15    16    1
    16    16    17    2
    17    16    18   am
    18    18    19    1
    19    19    20   ar
    20    20    21   ar
    21    21    22   ar
    22    22    23   ar
    23    23    24    1
    24    24    25    2
    25    24    26   am
    26    26    27    1
    27    26    28    1
    28    28    29   ar
    29    29    30   ar
    30    30    31   ar
    31    31    32   ar
    32    32    33   ar
    33    28    33   ar
    34    23    34   ar
    35    19    34   ar
    36    13    35   ar
    37     9    35   ar
    38     1    36    1
    39     1    37    1
    40     1    38    1
    41     2    39    1
    42     2    40    1
    43     3    41    1
    44     3    42    1
    45     4    43    1
    46     4    44    1
    47     5    45    1
    48     5    46    1
    49     8    47    1
    50    10    48    1
    51    11    49    1
    52    12    50    1
    53    14    51    1
    54    15    52    1
    55    15    53    1
    56    18    54    1
    57    20    55    1
    58    21    56    1
    59    22    57    1
    60    27    58    1
    61    27    59    1
    62    27    60    1
    63    29    61    1
    64    30    62    1
    65    31    63    1
    66    32    64    1
    67    33    65    1
    68    34    66    1
    69    35    67    1
