REMARK  6 active torsions:
REMARK  status: ('A' for Active; 'I' for Inactive)
REMARK    1  A    between atoms: N_1  and  C_2 
REMARK    2  A    between atoms: C_4  and  S_5 
REMARK    3  A    between atoms: S_5  and  C_6 
REMARK    4  A    between atoms: C_6  and  C_7 
REMARK       I    between atoms: C_7  and  N_9 
REMARK    5  A    between atoms: N_9  and  N_10 
REMARK    6  A    between atoms: N_10  and  C_11 
ROOT
ATOM      1  C   UNL d   1       3.249   4.564  -0.045  0.00  0.00     0.245 C 
ATOM      2  O   UNL d   1       4.440   4.220  -0.050  0.00  0.00    -0.271 OA
ATOM      3  N   UNL d   1       2.913   5.920  -0.085  0.00  0.00    -0.269 N 
ATOM      4  H   UNL d   1       1.965   6.270   0.012  0.00  0.00     0.190 HD
ENDROOT
BRANCH   1   5
ATOM      5  C   UNL d   1       2.059   3.570  -0.021  0.00  0.00     0.187 C 
BRANCH   5   6
ATOM      6  S   UNL d   1       2.678   1.853  -0.020  0.00  0.00    -0.079 SA
BRANCH   6   7
ATOM      7  C   UNL d   1       1.278   0.816  -0.006  0.00  0.00     0.226 A 
ATOM      8  N   UNL d   1      -0.032   1.223   0.002  0.00  0.00    -0.035 NA
ATOM      9  C   UNL d   1      -0.700   0.092   0.003  0.00  0.00     0.716 A 
ATOM     10  N   UNL d   1       0.182  -0.952  -0.001  0.00  0.00    -0.105 N 
ATOM     11  N   UNL d   1       1.449  -0.514  -0.007  0.00  0.00    -0.132 NA
ATOM     12  H   UNL d   1      -0.010  -1.947   0.002  0.00  0.00     0.208 HD
BRANCH   9  13
ATOM     13  N   UNL d   1      -2.025  -0.099   0.010  0.00  0.00    -0.231 N 
ATOM     14  H   UNL d   1      -2.639   0.708  -0.010  0.00  0.00     0.174 HD
ATOM     15  H   UNL d   1      -2.487  -1.000  -0.044  0.00  0.00     0.174 HD
ENDBRANCH   9  13
ENDBRANCH   6   7
ENDBRANCH   5   6
ENDBRANCH   1   5
BRANCH   3  16
ATOM     16  N   UNL d   1       3.974   6.852  -0.022  0.00  0.00    -0.295 N 
ATOM     17  H   UNL d   1       4.906   6.492  -0.252  0.00  0.00     0.187 HD
BRANCH  16  18
ATOM     18  C   UNL d   1       3.736   8.244  -0.024  0.00  0.00     0.091 A 
ATOM     19  C   UNL d   1       2.764   8.858   0.795  0.00  0.00     0.065 A 
ATOM     20 CL   UNL d   1       1.799   7.950   1.912  0.00  0.00    -0.082 Cl
ATOM     21  C   UNL d   1       2.579  10.249   0.808  0.00  0.00     0.050 A 
ATOM     22  C   UNL d   1       3.333  11.064  -0.025  0.00  0.00     0.037 A 
ATOM     23 CL   UNL d   1       3.093  12.768  -0.000  0.00  0.00    -0.084 Cl
ATOM     24  C   UNL d   1       4.278  10.504  -0.873  0.00  0.00     0.050 A 
ATOM     25  C   UNL d   1       4.480   9.113  -0.864  0.00  0.00     0.065 A 
ATOM     26 CL   UNL d   1       5.687   8.497  -1.944  0.00  0.00    -0.082 Cl
ENDBRANCH  16  18
ENDBRANCH   3  16
TORSDOF 6
