@<TRIPOS>MOLECULE
*****
 63 65 0 0 0
SMALL
GASTEIGER

@<TRIPOS>ATOM
      1 C          10.8021   -2.1180   -4.2238 C.3     1  UNL1       -0.0389
      2 C          10.5271   -3.4629   -3.6040 C.ar    1  UNL1       -0.0364
      3 C          10.7856   -4.6085   -4.3853 C.ar    1  UNL1       -0.0562
      4 C          10.5393   -5.8903   -3.8905 C.ar    1  UNL1       -0.0351
      5 C          10.0310   -6.0462   -2.5970 C.ar    1  UNL1        0.1060
      6 S           9.7046   -7.7070   -2.0440 S.O2    1  UNL1        0.0588
      7 O           8.6274   -8.2214   -2.8648 O.2     1  UNL1       -0.1530
      8 O          10.9734   -8.3923   -1.9544 O.2     1  UNL1       -0.1530
      9 N           9.0724   -7.5859   -0.4681 N.3     1  UNL1       -0.1826
     10 C           8.8103   -8.9330    0.0944 C.3     1  UNL1        0.0754
     11 C           8.2472   -8.9221    1.4785 C.ar    1  UNL1        0.1202
     12 C           7.8367   -9.9817    2.2655 C.ar    1  UNL1       -0.0194
     13 C           7.3855   -9.4374    3.4862 C.ar    1  UNL1       -0.0236
     14 C           7.5453   -8.0759    3.3743 C.ar    1  UNL1        0.0921
     15 O           8.0597   -7.7482    2.1535 O.2     1  UNL1       -0.4665
     16 C           9.7801   -4.9206   -1.7980 C.ar    1  UNL1       -0.0211
     17 C          10.0195   -3.6131   -2.2892 C.ar    1  UNL1        0.0638
     18 C           9.6981   -2.4568   -1.3537 C.2     1  UNL1        0.3400
     19 O           9.2466   -2.6018   -0.2372 O.2     1  UNL1       -0.2449
     20 O           9.9696   -1.2597   -1.9232 O.3     1  UNL1       -0.4517
     21 C           9.7272   -0.0252   -1.2215 C.3     1  UNL1        0.1688
     22 C          10.1038    1.1718   -2.1715 C.2     1  UNL1        0.2581
     23 O          10.5787    0.9904   -3.2873 O.2     1  UNL1       -0.2716
     24 N           9.8213    2.4300   -1.6412 N.am    1  UNL1       -0.2374
     25 C          10.1402    3.6837   -2.1469 C.2     1  UNL1        0.3062
     26 O          10.6096    3.8683   -3.2674 O.2     1  UNL1       -0.2524
     27 N           9.9292    4.8169   -1.3804 N.am    1  UNL1       -0.2960
     28 C           9.4511    5.1084    0.0025 C.3     1  UNL1        0.0271
     29 C          10.1628    6.3265    0.6439 C.3     1  UNL1       -0.0342
     30 C          11.6679    6.0939    0.8029 C.3     1  UNL1       -0.0514
     31 C          11.9773    4.7692    1.5095 C.3     1  UNL1       -0.0527
     32 C          11.2046    3.5985    0.9042 C.3     1  UNL1       -0.0488
     33 C           9.6847    3.8999    0.8903 C.3     1  UNL1       -0.0254
     34 C           9.0811    3.9064    2.2744 C.3     1  UNL1       -0.0607
     35 H          11.1983   -2.1926   -5.2396 H       1  UNL1        0.0278
     36 H          11.5526   -1.5828   -3.6327 H       1  UNL1        0.0278
     37 H           9.8704   -1.5454   -4.2875 H       1  UNL1        0.0278
     38 H          11.1806   -4.5028   -5.3965 H       1  UNL1        0.0621
     39 H          10.7457   -6.7562   -4.5204 H       1  UNL1        0.0637
     40 H           8.2102   -7.0412   -0.4577 H       1  UNL1        0.1485
     41 H           9.7332   -9.5218    0.1111 H       1  UNL1        0.0521
     42 H           8.0756   -9.4453   -0.5386 H       1  UNL1        0.0521
     43 H           7.8676  -11.0231    1.9767 H       1  UNL1        0.0652
     44 H           6.9950   -9.9739    4.3403 H       1  UNL1        0.0649
     45 H           7.3459   -7.2514    4.0459 H       1  UNL1        0.1029
     46 H           9.4014   -5.0493   -0.7877 H       1  UNL1        0.0645
     47 H          10.3443    0.0016   -0.3146 H       1  UNL1        0.0796
     48 H           8.6670    0.0385   -0.9492 H       1  UNL1        0.0796
     49 H           9.6960    2.3290   -0.6687 H       1  UNL1        0.1592
     50 H          10.1728    5.6433   -1.9210 H       1  UNL1        0.1505
     51 H           8.3833    5.3440   -0.0805 H       1  UNL1        0.0501
     52 H           9.7413    6.5046    1.6442 H       1  UNL1        0.0283
     53 H           9.9801    7.2487    0.0807 H       1  UNL1        0.0283
     54 H          12.1162    6.9179    1.3713 H       1  UNL1        0.0266
     55 H          12.1355    6.1070   -0.1890 H       1  UNL1        0.0266
     56 H          11.7157    4.8500    2.5684 H       1  UNL1        0.0265
     57 H          13.0536    4.5712    1.4613 H       1  UNL1        0.0265
     58 H          11.4113    2.6644    1.4315 H       1  UNL1        0.0268
     59 H          11.6224    3.4522   -0.1011 H       1  UNL1        0.0268
     60 H           9.0425    3.1341    0.4780 H       1  UNL1        0.0316
     61 H           9.4930    4.6697    2.9275 H       1  UNL1        0.0233
     62 H           9.2566    2.9175    2.7153 H       1  UNL1        0.0233
     63 H           7.9981    4.0414    2.1896 H       1  UNL1        0.0233
@<TRIPOS>BOND
     1     1     2    1
     2     2     3   ar
     3     3     4   ar
     4     4     5   ar
     5     5     6    1
     6     6     7    2
     7     6     8    2
     8     6     9    1
     9     9    10    1
    10    10    11    1
    11    11    12   ar
    12    12    13   ar
    13    13    14   ar
    14    14    15   ar
    15    11    15   ar
    16     5    16   ar
    17    16    17   ar
    18     2    17   ar
    19    17    18    1
    20    18    19    2
    21    18    20    1
    22    20    21    1
    23    21    22    1
    24    22    23    2
    25    22    24   am
    26    24    25   am
    27    25    26    2
    28    25    27   am
    29    28    29    1
    30    29    30    1
    31    30    31    1
    32    31    32    1
    33    32    33    1
    34    28    33    1
    35    33    34    1
    36    28    27    1
    37     1    35    1
    38     1    36    1
    39     1    37    1
    40     3    38    1
    41     4    39    1
    42     9    40    1
    43    10    41    1
    44    10    42    1
    45    12    43    1
    46    13    44    1
    47    14    45    1
    48    16    46    1
    49    21    47    1
    50    21    48    1
    51    24    49    1
    52    27    50    1
    53    28    51    1
    54    29    52    1
    55    29    53    1
    56    30    54    1
    57    30    55    1
    58    31    56    1
    59    31    57    1
    60    32    58    1
    61    32    59    1
    62    33    60    1
    63    34    61    1
    64    34    62    1
    65    34    63    1
