@<TRIPOS>MOLECULE
*****
 35 36 0 0 0
SMALL
GASTEIGER

@<TRIPOS>ATOM
      1 C           0.9619   -0.0219   -0.0812 C.3     1  UNL1       -0.0381
      2 C           2.5005    0.0107   -0.0719 C.3     1  UNL1        0.0972
      3 N           3.0324    1.3448   -0.4195 N.am    1  UNL1       -0.3003
      4 C           2.6622    1.9760   -1.5998 C.2     1  UNL1        0.2447
      5 O           1.9659    1.4532   -2.4687 O.2     1  UNL1       -0.2702
      6 C           3.1111    3.3769   -1.8128 C.ar    1  UNL1        0.0368
      7 C           4.4352    3.7536   -1.5693 C.ar    1  UNL1       -0.0483
      8 C           4.8522    5.0603   -1.8543 C.ar    1  UNL1       -0.0427
      9 C           3.9494    5.9879   -2.3774 C.ar    1  UNL1        0.0410
     10 CL          4.4687    7.5961   -2.7030 Cl      1  UNL1       -0.0835
     11 C           2.6328    5.6164   -2.6405 C.ar    1  UNL1       -0.0427
     12 C           2.2155    4.3083   -2.3658 C.ar    1  UNL1       -0.0483
     13 C           2.9633   -0.5084    1.3246 C.2     1  UNL1        0.2373
     14 O           2.1428   -0.8508    2.1780 O.2     1  UNL1       -0.2734
     15 N           4.3341   -0.5775    1.5363 N.am    1  UNL1       -0.2827
     16 C           4.8879   -1.0482    2.7583 C.ar    1  UNL1        0.0517
     17 C           4.3455   -2.1305    3.4554 C.ar    1  UNL1       -0.0376
     18 C           4.9426   -2.5792    4.6340 C.ar    1  UNL1       -0.0418
     19 C           6.0626   -1.9125    5.0975 C.ar    1  UNL1        0.0277
     20 N           6.6140   -0.8535    4.4649 N.ar    1  UNL1       -0.2614
     21 C           6.0205   -0.4551    3.3093 C.ar    1  UNL1        0.0487
     22 H           0.5303    0.2699   -1.0403 H       1  UNL1        0.0252
     23 H           0.5542    0.6520    0.6811 H       1  UNL1        0.0252
     24 H           0.5942   -1.0324    0.1337 H       1  UNL1        0.0252
     25 H           2.8709   -0.6897   -0.8310 H       1  UNL1        0.0592
     26 H           3.4621    1.8982    0.3117 H       1  UNL1        0.1498
     27 H           5.1586    3.0308   -1.2060 H       1  UNL1        0.0625
     28 H           5.8868    5.3474   -1.6826 H       1  UNL1        0.0632
     29 H           1.9339    6.3328   -3.0674 H       1  UNL1        0.0632
     30 H           1.1912    4.0169   -2.5937 H       1  UNL1        0.0625
     31 H           4.9519   -0.1190    0.8785 H       1  UNL1        0.1549
     32 H           3.4757   -2.6618    3.0786 H       1  UNL1        0.0637
     33 H           4.5436   -3.4344    5.1691 H       1  UNL1        0.0633
     34 H           6.5607   -2.2272    6.0112 H       1  UNL1        0.0829
     35 H           6.4765    0.4230    2.8634 H       1  UNL1        0.0848
@<TRIPOS>BOND
     1     1     2    1
     2     2     3    1
     3     3     4   am
     4     4     5    2
     5     4     6    1
     6     6     7   ar
     7     7     8   ar
     8     8     9   ar
     9     9    10    1
    10     9    11   ar
    11    11    12   ar
    12     6    12   ar
    13     2    13    1
    14    13    14    2
    15    13    15   am
    16    15    16    1
    17    16    17   ar
    18    17    18   ar
    19    18    19   ar
    20    19    20   ar
    21    20    21   ar
    22    16    21   ar
    23     1    22    1
    24     1    23    1
    25     1    24    1
    26     2    25    1
    27     3    26    1
    28     7    27    1
    29     8    28    1
    30    11    29    1
    31    12    30    1
    32    15    31    1
    33    17    32    1
    34    18    33    1
    35    19    34    1
    36    21    35    1
