@<TRIPOS>MOLECULE
*****
 55 58 0 0 0
SMALL
GASTEIGER

@<TRIPOS>ATOM
      1 C           0.9551   -0.0464   -0.0860 C.3     1  UNL1       -0.0622
      2 C           2.4729   -0.0211   -0.0776 C.3     1  UNL1       -0.0215
      3 C           2.9897    0.5480    1.2356 C.3     1  UNL1        0.0893
      4 O           4.4113    0.6418    1.1660 O.3     1  UNL1       -0.4920
      5 C           5.0397    0.9594    2.3410 C.ar    1  UNL1        0.1212
      6 C           6.2372    1.6716    2.2150 C.ar    1  UNL1       -0.0199
      7 C           7.0318    1.9039    3.3315 C.ar    1  UNL1       -0.0576
      8 C           6.5904    1.4709    4.5791 C.ar    1  UNL1       -0.0494
      9 C           5.3747    0.7636    4.7256 C.ar    1  UNL1        0.0405
     10 C           5.0219    0.2755    6.0861 C.2     1  UNL1        0.2496
     11 O           5.8299    0.6259    6.9557 O.2     1  UNL1       -0.2698
     12 N           3.8671   -0.4967    6.3435 N.am    1  UNL1       -0.2636
     13 C           3.5490   -1.0813    7.5921 C.2     1  UNL1        0.1411
     14 S           4.5984   -1.0309    8.9196 S.2     1  UNL1       -0.0182
     15 N           2.2996   -1.7515    7.6305 N.am    1  UNL1       -0.2965
     16 C           1.6868   -2.2306    8.8469 C.ar    1  UNL1        0.0338
     17 C           1.0290   -3.4666    8.9211 C.ar    1  UNL1       -0.0341
     18 C           0.3719   -3.8615   10.1174 C.ar    1  UNL1       -0.0065
     19 C          -0.5591   -5.0430   10.1199 C.3     1  UNL1       -0.0362
     20 C           0.4822   -3.0598   11.2688 C.ar    1  UNL1        0.1321
     21 O          -0.1120   -3.4153   12.4516 O.3     1  UNL1       -0.5057
     22 C           1.1343   -1.8291   11.2144 C.ar    1  UNL1        0.0803
     23 C           1.2390   -0.9631   12.3822 C.ar    1  UNL1        0.2334
     24 N           1.7612   -1.2213   13.5677 N.ar    1  UNL1       -0.1890
     25 C           1.5568   -0.0674   14.2617 C.ar    1  UNL1        0.1990
     26 N           1.9149    0.1694   15.5454 N.ar    1  UNL1       -0.2331
     27 C           1.5838    1.4046   15.9862 C.ar    1  UNL1        0.0302
     28 C           0.9279    2.3878   15.2443 C.ar    1  UNL1       -0.0400
     29 C           0.5637    2.1311   13.9198 C.ar    1  UNL1       -0.0141
     30 C           0.9116    0.8669   13.4674 C.ar    1  UNL1        0.1744
     31 O           0.7126    0.3039   12.2396 O.2     1  UNL1       -0.4335
     32 C           1.6813   -1.4186    9.9920 C.ar    1  UNL1       -0.0247
     33 C           4.6065    0.5131    3.5955 C.ar    1  UNL1       -0.0078
     34 H           0.5840   -0.4477   -1.0327 H       1  UNL1        0.0231
     35 H           0.5522    0.9635    0.0414 H       1  UNL1        0.0231
     36 H           0.5682   -0.6716    0.7260 H       1  UNL1        0.0231
     37 H           2.8514    0.5718   -0.9168 H       1  UNL1        0.0295
     38 H           2.8638   -1.0372   -0.2174 H       1  UNL1        0.0295
     39 H           2.6502   -0.1232    2.0298 H       1  UNL1        0.0696
     40 H           2.5836    1.5505    1.4086 H       1  UNL1        0.0696
     41 H           6.5589    2.0399    1.2437 H       1  UNL1        0.0654
     42 H           7.9978    2.3953    3.2354 H       1  UNL1        0.0619
     43 H           7.2192    1.6772    5.4475 H       1  UNL1        0.0625
     44 H           3.2445   -0.6889    5.5739 H       1  UNL1        0.1568
     45 H           1.8803   -2.0886    6.7716 H       1  UNL1        0.1538
     46 H           1.0416   -4.1556    8.0781 H       1  UNL1        0.0640
     47 H          -0.5758   -5.5573    9.1562 H       1  UNL1        0.0279
     48 H          -1.5752   -4.6756   10.3143 H       1  UNL1        0.0279
     49 H          -0.2912   -5.7679   10.8946 H       1  UNL1        0.0279
     50 H          -0.3491   -4.3541   12.4557 H       1  UNL1        0.2922
     51 H           1.8753    1.6034   17.0158 H       1  UNL1        0.0830
     52 H           0.7069    3.3484   15.7009 H       1  UNL1        0.0634
     53 H           0.0554    2.8565   13.2996 H       1  UNL1        0.0656
     54 H           2.1265   -0.4285    9.9534 H       1  UNL1        0.0645
     55 H           3.7013   -0.0608    3.6872 H       1  UNL1        0.0662
@<TRIPOS>BOND
     1     1     2    1
     2     2     3    1
     3     3     4    1
     4     4     5    1
     5     5     6   ar
     6     6     7   ar
     7     7     8   ar
     8     8     9   ar
     9     9    10    1
    10    10    11    2
    11    10    12   am
    12    12    13    1
    13    13    14    2
    14    13    15    1
    15    15    16    1
    16    16    17   ar
    17    17    18   ar
    18    18    19    1
    19    18    20   ar
    20    20    21    1
    21    20    22   ar
    22    22    23    1
    23    23    24   ar
    24    24    25   ar
    25    25    26   ar
    26    26    27   ar
    27    27    28   ar
    28    28    29   ar
    29    29    30   ar
    30    25    30   ar
    31    30    31   ar
    32    23    31   ar
    33    22    32   ar
    34    16    32   ar
    35     9    33   ar
    36     5    33   ar
    37     1    34    1
    38     1    35    1
    39     1    36    1
    40     2    37    1
    41     2    38    1
    42     3    39    1
    43     3    40    1
    44     6    41    1
    45     7    42    1
    46     8    43    1
    47    12    44    1
    48    15    45    1
    49    17    46    1
    50    19    47    1
    51    19    48    1
    52    19    49    1
    53    21    50    1
    54    27    51    1
    55    28    52    1
    56    29    53    1
    57    32    54    1
    58    33    55    1
