@<TRIPOS>MOLECULE
*****
 62 64 0 0 0
SMALL
GASTEIGER

@<TRIPOS>ATOM
      1 C          -0.3823   -2.9935   -0.0193 C.3     1  UNL1       -0.0388
      2 C          -0.5685   -1.5097   -0.0062 C.ar    1  UNL1       -0.0330
      3 C          -1.7964   -0.9633   -0.0166 C.ar    1  UNL1        0.0265
      4 C          -2.0488    0.4857   -0.0040 C.ar    1  UNL1        0.3375
      5 O          -3.1862    0.9373    0.0025 O.2     1  UNL1       -0.2452
      6 O          -0.9398    1.2956   -0.0110 O.2     1  UNL1       -0.4221
      7 C           0.3500    0.7461   -0.0113 C.ar    1  UNL1        0.1411
      8 C           1.3609    1.6920   -0.0166 C.ar    1  UNL1        0.0026
      9 C           2.6936    1.3255    0.0306 C.ar    1  UNL1        0.0370
     10 N           3.7138    2.3205    0.0908 N.am    1  UNL1       -0.2839
     11 C           3.5109    3.7116   -0.0153 C.2     1  UNL1        0.2376
     12 O           2.4100    4.2599   -0.0918 O.2     1  UNL1       -0.2734
     13 C           4.7682    4.6344   -0.0883 C.3     1  UNL1        0.1029
     14 C           5.5916    4.3537   -1.3528 C.3     1  UNL1       -0.0230
     15 C           6.2053    2.9657   -1.3864 C.3     1  UNL1       -0.0201
     16 C           7.0643    2.7691   -2.6107 C.3     1  UNL1        0.0646
     17 N           7.6014    1.4060   -2.6338 N.pl3   1  UNL1       -0.2787
     18 C           8.3712    0.9571   -3.6344 C.cat   1  UNL1        0.3410
     19 N           8.6814    1.7363   -4.6716 N.pl3   1  UNL1       -0.2919
     20 N           8.8390   -0.2916   -3.5975 N.pl3   1  UNL1       -0.2919
     21 N           4.3382    6.0569   -0.1056 N.am    1  UNL1       -0.2698
     22 C           5.2086    7.1176   -0.1074 C.2     1  UNL1        0.4012
     23 O           6.4314    6.9867   -0.0671 O.2     1  UNL1       -0.2265
     24 O           4.5772    8.3142   -0.1947 O.3     1  UNL1       -0.4456
     25 C           5.4512    9.4778   -0.2247 C.3     1  UNL1        0.1191
     26 C           4.6675   10.7816   -0.2291 C.ar    1  UNL1       -0.0103
     27 C           5.3096   12.0283   -0.3703 C.ar    1  UNL1       -0.0554
     28 C           4.5905   13.2230   -0.2152 C.ar    1  UNL1       -0.0614
     29 C           3.2137   13.1889   -0.0044 C.ar    1  UNL1       -0.0617
     30 C           2.5632   11.9643    0.0995 C.ar    1  UNL1       -0.0614
     31 C           3.2860   10.7759   -0.0013 C.ar    1  UNL1       -0.0554
     32 C           2.9865   -0.0531    0.0372 C.ar    1  UNL1       -0.0397
     33 C           1.9421   -1.0154    0.0253 C.ar    1  UNL1       -0.0491
     34 C           0.5976   -0.6168    0.0067 C.ar    1  UNL1        0.0206
     35 H          -1.3437   -3.5191   -0.0351 H       1  UNL1        0.0278
     36 H           0.1567   -3.3244    0.8739 H       1  UNL1        0.0278
     37 H           0.1739   -3.3031   -0.9097 H       1  UNL1        0.0278
     38 H          -2.6984   -1.5631   -0.0369 H       1  UNL1        0.0692
     39 H           1.0322    2.7196   -0.0295 H       1  UNL1        0.0673
     40 H           4.6440    1.9628    0.2550 H       1  UNL1        0.1549
     41 H           5.3600    4.4922    0.8216 H       1  UNL1        0.0596
     42 H           6.4119    5.0749   -1.4324 H       1  UNL1        0.0289
     43 H           4.9679    4.5109   -2.2425 H       1  UNL1        0.0289
     44 H           5.4320    2.2046   -1.4725 H       1  UNL1        0.0296
     45 H           6.7759    2.7789   -0.4686 H       1  UNL1        0.0296
     46 H           7.8940    3.4802   -2.6106 H       1  UNL1        0.0655
     47 H           6.4365    2.9012   -3.4987 H       1  UNL1        0.0655
     48 H           7.3895    0.7658   -1.8779 H       1  UNL1        0.2578
     49 H           8.3408    2.6873   -4.7366 H       1  UNL1        0.2545
     50 H           9.2668    1.4134   -5.4286 H       1  UNL1        0.2545
     51 H           8.6338   -0.9230   -2.8340 H       1  UNL1        0.2545
     52 H           9.4302   -0.6478   -4.3376 H       1  UNL1        0.2545
     53 H           3.3368    6.2488   -0.1167 H       1  UNL1        0.1528
     54 H           6.0821    9.4317   -1.1208 H       1  UNL1        0.0749
     55 H           6.0805    9.4741    0.6750 H       1  UNL1        0.0749
     56 H           6.3747   12.0937   -0.5872 H       1  UNL1        0.0621
     57 H           5.1006   14.1844   -0.2415 H       1  UNL1        0.0618
     58 H           2.6462   14.1124    0.0808 H       1  UNL1        0.0618
     59 H           1.4933   11.9249    0.2831 H       1  UNL1        0.0618
     60 H           2.7555    9.8349    0.1111 H       1  UNL1        0.0621
     61 H           4.0084   -0.4268    0.0487 H       1  UNL1        0.0636
     62 H           2.1972   -2.0750    0.0417 H       1  UNL1        0.0625
@<TRIPOS>UNITY_ATOM_ATTR
20 1
charge 1
@<TRIPOS>BOND
     1     1     2    1
     2     2     3   ar
     3     3     4   ar
     4     4     5    2
     5     4     6   ar
     6     6     7   ar
     7     7     8   ar
     8     8     9   ar
     9     9    10    1
    10    10    11   am
    11    11    12    2
    12    11    13    1
    13    13    14    1
    14    14    15    1
    15    15    16    1
    16    16    17    1
    17    17    18    1
    18    18    19    1
    19    18    20    2
    20    13    21    1
    21    21    22   am
    22    22    23    2
    23    22    24    1
    24    24    25    1
    25    25    26    1
    26    26    27   ar
    27    27    28   ar
    28    28    29   ar
    29    29    30   ar
    30    30    31   ar
    31    26    31   ar
    32     9    32   ar
    33    32    33   ar
    34    33    34   ar
    35     2    34   ar
    36     7    34   ar
    37     1    35    1
    38     1    36    1
    39     1    37    1
    40     3    38    1
    41     8    39    1
    42    10    40    1
    43    13    41    1
    44    14    42    1
    45    14    43    1
    46    15    44    1
    47    15    45    1
    48    16    46    1
    49    16    47    1
    50    17    48    1
    51    19    49    1
    52    19    50    1
    53    20    51    1
    54    20    52    1
    55    21    53    1
    56    25    54    1
    57    25    55    1
    58    27    56    1
    59    28    57    1
    60    29    58    1
    61    30    59    1
    62    31    60    1
    63    32    61    1
    64    33    62    1
