REMARK  6 active torsions:
REMARK  status: ('A' for Active; 'I' for Inactive)
REMARK    1  A    between atoms: C_2  and  C_3 
REMARK    2  A    between atoms: C_2  and  N_17 
REMARK    3  A    between atoms: C_3  and  C_4 
REMARK       I    between atoms: C_4  and  N_6 
REMARK    4  A    between atoms: N_6  and  N_7 
REMARK       I    between atoms: N_7  and  C_8 
REMARK    5  A    between atoms: C_8  and  C_10 
REMARK       I    between atoms: N_17  and  C_18 
REMARK    6  A    between atoms: C_18  and  C_20 
ROOT
ATOM      1  C   UNL d   1       2.476  -0.389  -2.534  0.00  0.00     0.237 C 
ATOM      2  O   UNL d   1       1.834  -1.429  -2.382  0.00  0.00    -0.272 OA
ATOM      3  N   UNL d   1       2.792   0.069  -3.800  0.00  0.00    -0.267 N 
ATOM      4  H   UNL d   1       3.406   0.860  -3.992  0.00  0.00     0.190 HD
ENDROOT
BRANCH   1   5
ATOM      5  C   UNL d   1       2.953   0.485  -1.378  0.00  0.00     0.129 C 
BRANCH   5   6
ATOM      6  C   UNL d   1       2.495  -0.037   0.002  0.00  0.00     0.089 C 
ATOM      7  C   UNL d   1       0.962  -0.031   0.117  0.00  0.00     0.032 C 
BRANCH   6   8
ATOM      8  N   UNL d   1       3.057   0.777   1.092  0.00  0.00    -0.356 N 
ATOM      9  C   UNL d   1       4.409   0.847   1.363  0.00  0.00     0.222 C 
ATOM     10  O   UNL d   1       5.256   0.290   0.668  0.00  0.00    -0.273 OA
ATOM     11  H   UNL d   1       2.407   1.196   1.745  0.00  0.00     0.162 HD
BRANCH   9  12
ATOM     12  C   UNL d   1       4.814   1.717   2.555  0.00  0.00     0.078 C 
ATOM     13  C   UNL d   1       4.626   3.206   2.237  0.00  0.00     0.014 C 
ATOM     14  C   UNL d   1       4.898   4.100   3.446  0.00  0.00     0.001 C 
ATOM     15  C   UNL d   1       4.077   3.668   4.656  0.00  0.00     0.000 C 
ATOM     16  C   UNL d   1       4.355   2.211   5.007  0.00  0.00     0.001 C 
ATOM     17  C   UNL d   1       4.064   1.297   3.824  0.00  0.00     0.014 C 
ENDBRANCH   9  12
ENDBRANCH   6   8
ENDBRANCH   5   6
ENDBRANCH   1   5
BRANCH   3  18
ATOM     18  N   UNL d   1       2.317  -0.670  -4.918  0.00  0.00    -0.263 N 
ATOM     19  C   UNL d   1       2.722  -0.309  -6.190  0.00  0.00     0.270 C 
ATOM     20  O   UNL d   1       3.478   0.644  -6.396  0.00  0.00    -0.266 OA
ATOM     21  H   UNL d   1       1.796  -1.518  -4.698  0.00  0.00     0.190 HD
BRANCH  19  22
ATOM     22  C   UNL d   1       2.225  -1.116  -7.351  0.00  0.00     0.033 A 
ATOM     23  C   UNL d   1       0.908  -1.590  -7.436  0.00  0.00     0.019 A 
ATOM     24  C   UNL d   1       0.463  -2.233  -8.606  0.00  0.00     0.025 A 
ATOM     25  C   UNL d   1       1.331  -2.415  -9.685  0.00  0.00     0.034 A 
ATOM     26 CL   UNL d   1       0.777  -3.197 -11.116  0.00  0.00    -0.084 Cl
ATOM     27  C   UNL d   1       2.642  -1.955  -9.609  0.00  0.00     0.025 A 
ATOM     28  C   UNL d   1       3.084  -1.305  -8.448  0.00  0.00     0.019 A 
ENDBRANCH  19  22
ENDBRANCH   3  18
TORSDOF 6
