@<TRIPOS>MOLECULE
*****
 63 66 0 0 0
SMALL
GASTEIGER

@<TRIPOS>ATOM
      1 C           1.1808    0.0836    0.4475 C.3     1  UNL1        0.0790
      2 O           2.5506    0.0843    0.0670 O.3     1  UNL1       -0.4915
      3 C           3.0465   -0.9510   -0.6863 C.ar    1  UNL1        0.1615
      4 C           4.1415   -1.5394   -0.0550 C.ar    1  UNL1       -0.0155
      5 C           4.9319   -2.4160   -0.7647 C.ar    1  UNL1       -0.0444
      6 C           4.5840   -2.8210   -2.0814 C.ar    1  UNL1        0.0598
      7 C           5.3416   -3.9182   -2.6616 C.2     1  UNL1        0.3407
      8 O           6.1135   -4.2477   -1.7802 O.2     1  UNL1       -0.2483
      9 N           5.0750   -4.4990   -3.9107 N.am    1  UNL1        0.0006
     10 C           5.8442   -5.4032   -4.4787 C.2     1  UNL1        0.3842
     11 N           7.0430   -5.9023   -4.0216 N.pl3   1  UNL1       -0.2767
     12 C           7.4223   -5.8118   -2.6550 C.3     1  UNL1        0.0684
     13 C           8.5103   -6.6189   -2.0941 C.3     1  UNL1        0.0059
     14 C           8.9122   -6.1442   -0.7188 C.2     1  UNL1        0.0106
     15 C           9.8871   -6.8179   -0.1274 C.ar    1  UNL1        0.0510
     16 C          10.5828   -7.9523   -0.6024 C.ar    1  UNL1       -0.0482
     17 C          11.3919   -8.5805    0.2464 C.ar    1  UNL1       -0.0608
     18 C          11.6774   -8.0148    1.5542 C.ar    1  UNL1       -0.0555
     19 C          11.1019   -6.8916    2.0414 C.ar    1  UNL1        0.0098
     20 C          10.1051   -6.2160    1.1827 C.ar    1  UNL1        0.2086
     21 N           9.3631   -5.1868    1.3553 N.2     1  UNL1       -0.2369
     22 C           8.4253   -5.0249    0.1815 C.3     1  UNL1        0.1661
     23 N           5.5275   -5.9358   -5.7302 N.pl3   1  UNL1       -0.2447
     24 C           6.0689   -7.0633   -6.4227 C.ar    1  UNL1        0.1041
     25 C           6.3740   -6.9386   -7.7984 C.ar    1  UNL1       -0.0046
     26 C           6.9418   -8.0037   -8.5161 C.ar    1  UNL1        0.0442
     27 CL          7.1456   -7.9008  -10.2244 Cl      1  UNL1       -0.0834
     28 C           7.3083   -9.1761   -7.8703 C.ar    1  UNL1       -0.0429
     29 C           7.0054   -9.3269   -6.5218 C.ar    1  UNL1       -0.0542
     30 C           6.3563   -8.3045   -5.7981 C.ar    1  UNL1       -0.0119
     31 C           5.9432   -8.6333   -4.3871 C.3     1  UNL1       -0.0365
     32 C           3.5204   -2.2601   -2.7176 C.ar    1  UNL1       -0.0027
     33 C           2.7631   -1.3014   -2.0408 C.ar    1  UNL1        0.1623
     34 O           1.8489   -0.8201   -2.9373 O.3     1  UNL1       -0.4914
     35 C           0.8914    0.0255   -2.3862 C.3     1  UNL1        0.0790
     36 H           1.0562    0.6395    1.3781 H       1  UNL1        0.0660
     37 H           0.7524   -0.9187    0.5393 H       1  UNL1        0.0660
     38 H           0.6037    0.7056   -0.2339 H       1  UNL1        0.0660
     39 H           4.4102   -1.3075    0.9733 H       1  UNL1        0.0655
     40 H           5.8220   -2.8014   -0.2667 H       1  UNL1        0.0627
     41 H           7.5239   -6.5804   -4.5932 H       1  UNL1        0.2577
     42 H           6.5612   -6.1338   -2.0471 H       1  UNL1        0.0658
     43 H           7.8156   -4.7963   -2.5732 H       1  UNL1        0.0658
     44 H           9.3656   -6.5535   -2.7688 H       1  UNL1        0.0343
     45 H           8.1789   -7.6633   -2.0314 H       1  UNL1        0.0343
     46 H          10.4001   -8.3165   -1.6071 H       1  UNL1        0.0626
     47 H          11.8389   -9.5191   -0.0629 H       1  UNL1        0.0618
     48 H          12.4328   -8.5564    2.1170 H       1  UNL1        0.0620
     49 H          11.3601   -6.5211    3.0252 H       1  UNL1        0.0683
     50 H           9.4381   -4.5895    2.1798 H       1  UNL1        0.4459
     51 H           8.5572   -4.0210   -0.2333 H       1  UNL1        0.1077
     52 H           7.4030   -5.1574    0.5579 H       1  UNL1        0.1077
     53 H           4.7260   -5.5226   -6.1971 H       1  UNL1        0.2646
     54 H           6.1925   -6.0038   -8.3255 H       1  UNL1        0.0667
     55 H           7.7987   -9.9844   -8.4091 H       1  UNL1        0.0632
     56 H           7.2445  -10.2737   -6.0400 H       1  UNL1        0.0622
     57 H           6.1926   -9.6653   -4.1273 H       1  UNL1        0.0279
     58 H           4.8712   -8.4738   -4.2541 H       1  UNL1        0.0279
     59 H           6.4788   -8.0569   -3.6439 H       1  UNL1        0.0279
     60 H           3.2864   -2.5413   -3.7411 H       1  UNL1        0.0663
     61 H           0.1757    0.3753   -3.1247 H       1  UNL1        0.0660
     62 H           1.4101    0.9077   -2.0006 H       1  UNL1        0.0660
     63 H           0.3142   -0.5713   -1.6752 H       1  UNL1        0.0660
@<TRIPOS>UNITY_ATOM_ATTR
21 1
charge 1
@<TRIPOS>BOND
     1     1     2    1
     2     2     3    1
     3     3     4   ar
     4     4     5   ar
     5     5     6   ar
     6     6     7    1
     7     7     8    2
     8     7     9    1
     9     9    10    2
    10    10    11    1
    11    11    12    1
    12    12    13    1
    13    13    14    1
    14    14    15    2
    15    15    16   ar
    16    16    17   ar
    17    17    18   ar
    18    18    19   ar
    19    19    20   ar
    20    15    20   ar
    21    20    21    2
    22    21    22    1
    23    14    22    1
    24    10    23    1
    25    23    24    1
    26    24    25   ar
    27    25    26   ar
    28    26    27    1
    29    26    28   ar
    30    28    29   ar
    31    29    30   ar
    32    24    30   ar
    33    30    31    1
    34     6    32   ar
    35    32    33   ar
    36     3    33   ar
    37    33    34    1
    38    34    35    1
    39     1    36    1
    40     1    37    1
    41     1    38    1
    42     4    39    1
    43     5    40    1
    44    11    41    1
    45    12    42    1
    46    12    43    1
    47    13    44    1
    48    13    45    1
    49    16    46    1
    50    17    47    1
    51    18    48    1
    52    19    49    1
    53    21    50    1
    54    22    51    1
    55    22    52    1
    56    23    53    1
    57    25    54    1
    58    28    55    1
    59    29    56    1
    60    31    57    1
    61    31    58    1
    62    31    59    1
    63    32    60    1
    64    35    61    1
    65    35    62    1
    66    35    63    1
