REMARK  8 active torsions:
REMARK  status: ('A' for Active; 'I' for Inactive)
REMARK    1  A    between atoms: C_2  and  C_3 
REMARK    2  A    between atoms: C_3  and  C_4 
REMARK    3  A    between atoms: C_4  and  N_5 
REMARK       I    between atoms: N_5  and  C_6 
REMARK       I    between atoms: C_6  and  N_8 
REMARK    4  A    between atoms: N_8  and  N_9 
REMARK       I    between atoms: N_9  and  C_10 
REMARK    5  A    between atoms: C_10  and  C_12 
REMARK    6  A    between atoms: C_12  and  C_13 
REMARK    7  A    between atoms: C_17  and  O_18 
REMARK    8  A    between atoms: O_18  and  C_19 
ROOT
ATOM      1  N   UNL d   1       8.283   3.580   3.155  0.00  0.00    -0.266 N 
ATOM      2  C   UNL d   1       8.670   4.566   4.056  0.00  0.00     0.240 C 
ATOM      3  O   UNL d   1       7.818   5.244   4.637  0.00  0.00    -0.272 OA
ATOM      4  H   UNL d   1       8.924   2.993   2.626  0.00  0.00     0.190 HD
ENDROOT
BRANCH   2   5
ATOM      5  C   UNL d   1      10.198   4.744   4.270  0.00  0.00     0.143 C 
BRANCH   5   6
ATOM      6  C   UNL d   1      10.521   5.831   5.291  0.00  0.00    -0.047 C 
ATOM      7  C   UNL d   1      10.236   5.657   6.647  0.00  0.00     0.007 C 
ATOM      8  C   UNL d   1      10.182   6.764   7.500  0.00  0.00     0.003 C 
ATOM      9  C   UNL d   1      10.475   8.045   7.021  0.00  0.00     0.037 C 
ATOM     10  C   UNL d   1      10.840   8.221   5.686  0.00  0.00     0.069 C 
ATOM     11  C   UNL d   1      10.933   7.096   4.858  0.00  0.00     0.044 C 
BRANCH  10  12
ATOM     12  O   UNL d   1      10.989   9.519   5.263  0.00  0.00    -0.347 OA
BRANCH  12  13
ATOM     13  C   UNL d   1      11.230   9.739   3.863  0.00  0.00     0.120 C 
ATOM     14  C   UNL d   1      10.046   9.332   2.970  0.00  0.00     0.040 C 
ATOM     15  C   UNL d   1      11.463  11.235   3.648  0.00  0.00     0.040 C 
ENDBRANCH  12  13
ENDBRANCH  10  12
ENDBRANCH   5   6
ENDBRANCH   2   5
BRANCH   1  16
ATOM     16  N   UNL d   1       6.882   3.346   2.931  0.00  0.00    -0.249 N 
ATOM     17  C   UNL d   1       6.486   2.361   2.044  0.00  0.00     0.334 C 
ATOM     18  N   UNL d   1       5.120   2.207   1.906  0.00  0.00    -0.342 N 
ATOM     19  O   UNL d   1       7.305   1.675   1.426  0.00  0.00    -0.246 OA
ATOM     20  H   UNL d   1       4.492   2.794   2.437  0.00  0.00     0.164 HD
ATOM     21  H   UNL d   1       6.242   3.931   3.463  0.00  0.00     0.192 HD
BRANCH  18  22
ATOM     22  C   UNL d   1       4.553   1.203   0.999  0.00  0.00     0.124 C 
BRANCH  22  23
ATOM     23  C   UNL d   1       3.017   1.171   0.970  0.00  0.00     0.019 C 
BRANCH  23  24
ATOM     24  C   UNL d   1       2.475   0.102   0.004  0.00  0.00    -0.003 C 
ATOM     25  C   UNL d   1       0.951   0.082  -0.015  0.00  0.00     0.005 C 
ENDBRANCH  23  24
ENDBRANCH  22  23
ENDBRANCH  18  22
ENDBRANCH   1  16
TORSDOF 8
