REMARK  4 active torsions:
REMARK  status: ('A' for Active; 'I' for Inactive)
REMARK    1  A    between atoms: C_4  and  O_5 
REMARK    2  A    between atoms: C_6  and  C_7 
REMARK    3  A    between atoms: C_7  and  N_8 
REMARK    4  A    between atoms: C_18  and  C_19 
ROOT
ATOM      1  C   UNL d   1       0.885  -0.011   0.019  0.00  0.00     0.049 C 
ATOM      2  C   UNL d   1       2.375  -0.050   0.023  0.00  0.00    -0.042 A 
ATOM      3  C   UNL d   1       3.024   1.184   0.003  0.00  0.00     0.045 A 
ATOM      4  C   UNL d   1       4.402   1.255  -0.071  0.00  0.00     0.076 A 
ATOM      5  C   UNL d   1       5.225   0.143  -0.048  0.00  0.00     0.036 A 
ATOM      6  C   UNL d   1       4.564  -1.098  -0.014  0.00  0.00     0.101 A 
ATOM      7  C   UNL d   1       3.166  -1.201   0.011  0.00  0.00     0.057 A 
ATOM      8  C   UNL d   1       2.844  -2.644   0.012  0.00  0.00     0.219 A 
ATOM      9  O   UNL d   1       1.731  -3.147   0.020  0.00  0.00    -0.284 OA
ATOM     10  C   UNL d   1       4.194  -3.318   0.002  0.00  0.00     0.128 A 
ATOM     11  C   UNL d   1       4.479  -4.640  -0.008  0.00  0.00     0.053 C 
ATOM     12  O   UNL d   1       5.192  -2.330  -0.013  0.00  0.00    -0.305 OA
ENDROOT
BRANCH   5  13
ATOM     13  C   UNL d   1       6.718   0.262  -0.066  0.00  0.00     0.279 C 
BRANCH  13  14
ATOM     14  N   UNL d   1       7.497   1.620   0.074  0.00  0.00    -0.067 N 
ATOM     15  C   UNL d   1       7.189   2.857   0.923  0.00  0.00     0.235 C 
ATOM     16  C   UNL d   1       7.087   4.055  -0.027  0.00  0.00     0.029 C 
ATOM     17  C   UNL d   1       7.950   3.683  -1.207  0.00  0.00     0.029 C 
ATOM     18  C   UNL d   1       8.064   2.159  -1.229  0.00  0.00     0.235 C 
ATOM     19  H   UNL d   1       8.261   1.246   0.638  0.00  0.00     0.280 HD
ENDBRANCH  13  14
ENDBRANCH   5  13
BRANCH   4  20
ATOM     20  O   UNL d   1       4.933   2.481  -0.227  0.00  0.00    -0.360 OA
ATOM     21  H   UNL d   1       4.280   3.173  -0.025  0.00  0.00     0.217 HD
ENDBRANCH   4  20
BRANCH  11  22
ATOM     22  C   UNL d   1       5.870  -5.175  -0.013  0.00  0.00    -0.034 A 
ATOM     23  C   UNL d   1       6.335  -6.003  -1.049  0.00  0.00     0.011 A 
ATOM     24  C   UNL d   1       7.670  -6.449  -1.078  0.00  0.00     0.001 A 
ATOM     25  C   UNL d   1       8.554  -6.094  -0.063  0.00  0.00     0.000 A 
ATOM     26  C   UNL d   1       8.097  -5.314   0.995  0.00  0.00     0.001 A 
ATOM     27  C   UNL d   1       6.766  -4.869   1.024  0.00  0.00     0.011 A 
ENDBRANCH  11  22
TORSDOF 4
