REMARK  4 active torsions:
REMARK  status: ('A' for Active; 'I' for Inactive)
REMARK    1  A    between atoms: C_2  and  C_3 
REMARK       I    between atoms: C_3  and  N_5 
REMARK    2  A    between atoms: N_5  and  C_6 
REMARK    3  A    between atoms: N_24  and  C_25 
REMARK    4  A    between atoms: C_25  and  C_26 
ROOT
ATOM      1  C   UNL d   1       4.878   2.083   2.018  0.00  0.00     0.035 C 
ATOM      2  C   UNL d   1       5.851   2.980   1.612  0.00  0.00     0.032 C 
ATOM      3  C   UNL d   1       6.177   4.045   2.450  0.00  0.00     0.032 C 
ATOM      4  C   UNL d   1       5.553   4.233   3.698  0.00  0.00     0.037 C 
ATOM      5  C   UNL d   1       4.676   3.230   4.149  0.00  0.00    -0.028 C 
ATOM      6  C   UNL d   1       4.334   2.183   3.297  0.00  0.00     0.039 C 
ATOM      7  C   UNL d   1       4.032   3.248   5.513  0.00  0.00     0.072 C 
ATOM      8  C   UNL d   1       4.750   4.201   6.460  0.00  0.00     0.148 A 
ATOM      9  C   UNL d   1       3.832   4.496   7.635  0.00  0.00     0.246 A 
ATOM     10  O   UNL d   1       2.765   5.095   7.486  0.00  0.00    -0.272 OA
ATOM     11  N   UNL d   1       4.275   4.217   8.891  0.00  0.00    -0.278 N 
ATOM     12  C   UNL d   1       5.495   3.712   9.247  0.00  0.00     0.329 A 
ATOM     13  O   UNL d   1       5.817   3.551  10.390  0.00  0.00    -0.247 OA
ATOM     14  N   UNL d   1       6.335   3.438   8.210  0.00  0.00    -0.278 N 
ATOM     15  C   UNL d   1       6.099   3.607   6.884  0.00  0.00     0.246 A 
ATOM     16  O   UNL d   1       7.014   3.308   6.119  0.00  0.00    -0.272 OA
ATOM     17  C   UNL d   1       4.911   5.518   5.659  0.00  0.00     0.138 C 
ATOM     18  C   UNL d   1       5.387   6.623   6.598  0.00  0.00     0.262 C 
ATOM     19  N   UNL d   1       5.851   7.842   5.842  0.00  0.00    -0.064 N 
ATOM     20  C   UNL d   1       6.757   7.619   4.663  0.00  0.00     0.255 C 
ATOM     21  C   UNL d   1       6.182   6.569   3.749  0.00  0.00     0.151 C 
ATOM     22  N   UNL d   1       5.835   5.356   4.503  0.00  0.00    -0.371 N 
ATOM     23  H   UNL d   1       3.668   4.446   9.670  0.00  0.00     0.173 HD
ATOM     24  H   UNL d   1       7.234   3.041   8.456  0.00  0.00     0.173 HD
ATOM     25  H   UNL d   1       5.001   8.288   5.481  0.00  0.00     0.280 HD
ENDROOT
BRANCH  19  26
ATOM     26  C   UNL d   1       6.498   8.778   6.747  0.00  0.00     0.273 C 
BRANCH  26  27
ATOM     27  C   UNL d   1       7.736   8.279   7.419  0.00  0.00    -0.030 C 
ATOM     28  C   UNL d   1       8.424   7.032   7.393  0.00  0.00     0.012 C 
ATOM     29  C   UNL d   1       9.521   6.831   8.248  0.00  0.00     0.040 C 
ATOM     30  C   UNL d   1       9.677   7.797   9.217  0.00  0.00     0.105 C 
ATOM     31  C   UNL d   1       8.639   8.636   9.451  0.00  0.00     0.105 C 
ATOM     32  O   UNL d   1      10.731   8.287   9.946  0.00  0.00    -0.323 OA
ATOM     33  C   UNL d   1       8.094   9.185   8.364  0.00  0.00     0.048 C 
ATOM     34  O   UNL d   1       8.723   9.332  10.603  0.00  0.00    -0.323 OA
ATOM     35  C   UNL d   1      10.118   9.530  10.463  0.00  0.00     0.352 C 
ENDBRANCH  26  27
ENDBRANCH  19  26
BRANCH   1  36
ATOM     36  N   UNL d   1       4.385   1.107   1.134  0.00  0.00    -0.327 N 
ATOM     37  C   UNL d   1       3.008   0.976   0.986  0.00  0.00     0.221 C 
ATOM     38  O   UNL d   1       2.186   1.655   1.601  0.00  0.00    -0.273 OA
ATOM     39  H   UNL d   1       4.991   0.781   0.392  0.00  0.00     0.169 HD
BRANCH  37  40
ATOM     40  C   UNL d   1       2.568  -0.051  -0.035  0.00  0.00     0.098 C 
ATOM     41  C   UNL d   1       1.044  -0.095  -0.087  0.00  0.00     0.014 C 
ENDBRANCH  37  40
ENDBRANCH   1  36
TORSDOF 4
