@<TRIPOS>MOLECULE
*****
 54 58 0 0 0
SMALL
GASTEIGER

@<TRIPOS>ATOM
      1 N           2.1306   -0.2211   -1.2748 N.pl3   1  UNL1       -0.3375
      2 C           0.7754   -0.3258   -1.1775 C.ar    1  UNL1        0.2064
      3 N          -0.0263    0.7213   -1.3610 N.ar    1  UNL1       -0.0319
      4 O          -1.3012    0.3020   -1.0008 O.2     1  UNL1       -0.2388
      5 N          -1.2970   -1.0317   -0.5971 N.ar    1  UNL1       -0.0272
      6 C          -0.0209   -1.4183   -0.7116 C.ar    1  UNL1        0.2404
      7 N           0.3210   -2.7208   -0.2042 N.ar    1  UNL1       -0.1868
      8 N           0.0202   -3.8326   -0.9126 N.ar    1  UNL1       -0.0581
      9 N           0.6338   -4.8803   -0.3777 N.ar    1  UNL1       -0.1239
     10 C           1.2417   -4.5063    0.7965 C.ar    1  UNL1        0.1773
     11 C           2.0290   -5.4798    1.6444 C.2     1  UNL1        0.2854
     12 O           2.1501   -6.6635    1.2903 O.2     1  UNL1       -0.2666
     13 N           2.6315   -4.9932    2.8263 N.am    1  UNL1       -0.2016
     14 N           3.3846   -5.7725    3.6723 N.2     1  UNL1       -0.1874
     15 C           3.8184   -5.2189    4.7706 C.2     1  UNL1        0.0529
     16 C           4.6386   -5.9911    5.7342 C.ar    1  UNL1       -0.0018
     17 C           5.6274   -6.8347    5.1983 C.ar    1  UNL1       -0.0494
     18 C           6.3795   -7.6658    6.0293 C.ar    1  UNL1       -0.0155
     19 C           6.1131   -7.6355    7.3801 C.ar    1  UNL1        0.1663
     20 C           5.1631   -6.7935    7.9135 C.ar    1  UNL1        0.1668
     21 C           4.4190   -5.9319    7.1206 C.ar    1  UNL1       -0.0075
     22 O           5.0507   -6.9505    9.2634 O.3     1  UNL1       -0.4526
     23 C           5.9742   -8.0429    9.4971 C.3     1  UNL1        0.2332
     24 O           6.7185   -8.4097    8.3189 O.3     1  UNL1       -0.4526
     25 C           0.9632   -3.1395    0.9851 C.ar    1  UNL1        0.1234
     26 C           1.3297   -2.3920    2.2012 C.3     1  UNL1        0.0139
     27 N           1.1306   -0.9341    2.4400 N.4     1  UNL1        0.2396
     28 C           2.0470   -0.2005    1.5420 C.3     1  UNL1       -0.0315
     29 C           1.7863    1.2876    1.4311 C.3     1  UNL1       -0.0123
     30 C           0.3444    1.7592    1.5047 C.3     1  UNL1       -0.0434
     31 C          -0.3744    1.0497    2.6259 C.3     1  UNL1       -0.0123
     32 C          -0.3060   -0.4701    2.5119 C.3     1  UNL1       -0.0315
     33 H           2.5648    0.6874   -1.0827 H       1  UNL1        0.1439
     34 H           2.7780   -0.9813   -1.0925 H       1  UNL1        0.1439
     35 H           2.5595   -4.0531    3.1404 H       1  UNL1        0.1776
     36 H           3.6100   -4.1655    5.0453 H       1  UNL1        0.0851
     37 H           5.8001   -6.8523    4.1247 H       1  UNL1        0.0625
     38 H           7.1267   -8.3351    5.6192 H       1  UNL1        0.0655
     39 H           3.6685   -5.2947    7.5744 H       1  UNL1        0.0662
     40 H           5.4111   -8.9205    9.8402 H       1  UNL1        0.1166
     41 H           6.6791   -7.7554   10.2861 H       1  UNL1        0.1166
     42 H           2.4263   -2.4872    2.2266 H       1  UNL1        0.0883
     43 H           0.9362   -2.9009    3.0880 H       1  UNL1        0.0883
     44 H           1.5022   -0.7572    3.3805 H       1  UNL1        0.2037
     45 H           1.9557   -0.7885    0.6653 H       1  UNL1        0.0814
     46 H           3.0927   -0.4099    1.7999 H       1  UNL1        0.0814
     47 H           2.2618    1.7385    0.5536 H       1  UNL1        0.0317
     48 H           2.3156    1.7212    2.2803 H       1  UNL1        0.0317
     49 H          -0.2602    1.6153    0.6206 H       1  UNL1        0.0269
     50 H           0.3426    2.8519    1.5965 H       1  UNL1        0.0269
     51 H          -1.4212    1.3686    2.6141 H       1  UNL1        0.0317
     52 H           0.0777    1.3692    3.5666 H       1  UNL1        0.0317
     53 H          -0.8516   -0.8436    1.6543 H       1  UNL1        0.0814
     54 H          -0.7542   -0.9463    3.3878 H       1  UNL1        0.0814
@<TRIPOS>UNITY_ATOM_ATTR
27 1
charge 1
@<TRIPOS>BOND
     1     1     2    1
     2     2     3   ar
     3     3     4   ar
     4     4     5   ar
     5     5     6   ar
     6     2     6   ar
     7     6     7    1
     8     7     8   ar
     9     8     9   ar
    10     9    10   ar
    11    10    11    1
    12    11    12    2
    13    11    13   am
    14    13    14    1
    15    14    15    2
    16    15    16    1
    17    16    17   ar
    18    17    18   ar
    19    18    19   ar
    20    19    20   ar
    21    20    21   ar
    22    16    21   ar
    23    20    22    1
    24    22    23    1
    25    23    24    1
    26    19    24    1
    27    10    25   ar
    28     7    25   ar
    29    25    26    1
    30    26    27    1
    31    27    28    1
    32    28    29    1
    33    29    30    1
    34    30    31    1
    35    31    32    1
    36    27    32    1
    37     1    33    1
    38     1    34    1
    39    13    35    1
    40    15    36    1
    41    17    37    1
    42    18    38    1
    43    21    39    1
    44    23    40    1
    45    23    41    1
    46    26    42    1
    47    26    43    1
    48    27    44    1
    49    28    45    1
    50    28    46    1
    51    29    47    1
    52    29    48    1
    53    30    49    1
    54    30    50    1
    55    31    51    1
    56    31    52    1
    57    32    53    1
    58    32    54    1
