REMARK  9 active torsions:
REMARK  status: ('A' for Active; 'I' for Inactive)
REMARK    1  A    between atoms: C_6  and  N_7 
REMARK       I    between atoms: N_7  and  C_8 
REMARK    2  A    between atoms: C_8  and  C_10 
REMARK    3  A    between atoms: C_10  and  S_11 
REMARK    4  A    between atoms: S_11  and  C_12 
REMARK    5  A    between atoms: C_14  and  C_15 
REMARK    6  A    between atoms: C_15  and  C_16 
REMARK       I    between atoms: C_16  and  N_18 
REMARK    7  A    between atoms: N_18  and  C_19 
REMARK    8  A    between atoms: C_19  and  C_20 
REMARK    9  A    between atoms: C_20  and  C_21 
ROOT
ATOM      1  C   UNL d   1      -3.808  -7.125   0.064  0.00  0.00     0.169 A 
ATOM      2  N   UNL d   1      -5.038  -6.739  -0.022  0.00  0.00    -0.229 NA
ATOM      3  C   UNL d   1      -5.987  -7.745  -0.090  0.00  0.00     0.051 A 
ATOM      4  C   UNL d   1      -5.639  -9.043  -0.120  0.00  0.00     0.102 A 
ATOM      5  C   UNL d   1      -4.246  -9.460  -0.008  0.00  0.00     0.249 A 
ATOM      6  O   UNL d   1      -3.930 -10.629   0.010  0.00  0.00    -0.268 OA
ATOM      7  N   UNL d   1      -3.383  -8.418   0.087  0.00  0.00    -0.302 N 
ATOM      8  H   UNL d   1      -2.406  -8.647   0.173  0.00  0.00     0.171 HD
ENDROOT
BRANCH   1   9
ATOM      9  S   UNL d   1      -2.484  -6.047   0.203  0.00  0.00    -0.083 SA
BRANCH   9  10
ATOM     10  C   UNL d   1      -3.202  -4.343   0.026  0.00  0.00     0.185 C 
BRANCH  10  11
ATOM     11  C   UNL d   1      -2.005  -3.416  -0.278  0.00  0.00     0.231 C 
ATOM     12  N   UNL d   1      -2.102  -2.044  -0.001  0.00  0.00    -0.326 N 
ATOM     13  H   UNL d   1      -3.038  -1.671   0.075  0.00  0.00     0.169 HD
ATOM     14  O   UNL d   1      -1.039  -3.939  -0.839  0.00  0.00    -0.272 OA
BRANCH  12  15
ATOM     15  C   UNL d   1      -1.030  -1.043  -0.033  0.00  0.00     0.046 A 
ATOM     16  C   UNL d   1      -1.342   0.350  -0.014  0.00  0.00    -0.034 A 
ATOM     17  C   UNL d   1      -0.299   1.334   0.003  0.00  0.00     0.015 A 
ATOM     18  C   UNL d   1      -2.767   0.851   0.002  0.00  0.00     0.050 C 
ATOM     19  C   UNL d   1       1.050   0.968  -0.021  0.00  0.00    -0.061 A 
ATOM     20  C   UNL d   1       2.216   1.909   0.034  0.00  0.00     0.048 C 
ATOM     21  C   UNL d   1       1.351  -0.380  -0.042  0.00  0.00     0.015 A 
ATOM     22  C   UNL d   1       0.350  -1.364   0.006  0.00  0.00    -0.034 A 
ATOM     23  C   UNL d   1       0.894  -2.737   0.197  0.00  0.00     0.050 C 
ENDBRANCH  12  15
ENDBRANCH  10  11
ENDBRANCH   9  10
ENDBRANCH   1   9
BRANCH   3  24
ATOM     24  C   UNL d   1      -7.427  -7.247  -0.104  0.00  0.00     0.162 C 
BRANCH  24  25
ATOM     25  C   UNL d   1      -8.481  -8.352  -0.117  0.00  0.00     0.223 C 
ATOM     26  O   UNL d   1      -8.240  -9.557  -0.112  0.00  0.00    -0.273 OA
ATOM     27  N   UNL d   1      -9.798  -7.972  -0.136  0.00  0.00    -0.360 N 
ATOM     28  H   UNL d   1     -10.096  -7.007  -0.128  0.00  0.00     0.162 HD
BRANCH  27  29
ATOM     29  C   UNL d   1     -10.730  -9.070  -0.181  0.00  0.00     0.127 C 
BRANCH  29  30
ATOM     30  C   UNL d   1     -12.187  -8.672  -0.214  0.00  0.00     0.058 C 
BRANCH  30  31
ATOM     31  C   UNL d   1     -13.113  -9.868  -0.225  0.00  0.00    -0.057 A 
ATOM     32  C   UNL d   1     -14.487  -9.658  -0.074  0.00  0.00     0.007 A 
ATOM     33  C   UNL d   1     -15.349 -10.746   0.073  0.00  0.00     0.001 A 
ATOM     34  C   UNL d   1     -14.864 -12.049  -0.024  0.00  0.00     0.000 A 
ATOM     35  C   UNL d   1     -13.509 -12.272  -0.227  0.00  0.00     0.001 A 
ATOM     36  C   UNL d   1     -12.642 -11.190  -0.324  0.00  0.00     0.007 A 
ENDBRANCH  30  31
ENDBRANCH  29  30
ENDBRANCH  27  29
ENDBRANCH  24  25
ENDBRANCH   3  24
TORSDOF 9
