@<TRIPOS>MOLECULE
*****
 67 69 0 0 0
SMALL
GASTEIGER

@<TRIPOS>ATOM
      1 C           1.0004    0.0753   -0.0713 C.3     1  UNL1       -0.0626
      2 C           2.5277    0.0757   -0.0486 C.3     1  UNL1       -0.0436
      3 C           3.0151    0.7123    1.2559 C.3     1  UNL1       -0.0626
      4 C           3.0595   -1.3568   -0.2256 C.3     1  UNL1       -0.0163
      5 C           4.5835   -1.4008   -0.2660 C.3     1  UNL1        0.0898
      6 O           5.0151   -2.7375   -0.5471 O.3     1  UNL1       -0.4919
      7 C           6.3662   -2.9386   -0.4423 C.ar    1  UNL1        0.1223
      8 C           6.9435   -3.8822   -1.2722 C.ar    1  UNL1       -0.0198
      9 C           8.2948   -4.2101   -1.1142 C.ar    1  UNL1       -0.0566
     10 C           9.0912   -3.5529   -0.1569 C.ar    1  UNL1       -0.0402
     11 C           8.5160   -2.6005    0.6882 C.ar    1  UNL1        0.0369
     12 N           9.2696   -1.9695    1.7208 N.am    1  UNL1       -0.2841
     13 C           8.7315   -1.0617    2.6357 C.2     1  UNL1        0.2343
     14 O           7.5737   -0.6338    2.6466 O.2     1  UNL1       -0.2738
     15 C           9.6771   -0.5228    3.7058 C.3     1  UNL1        0.0861
     16 N           8.8805    0.2635    4.6605 N.pl3   1  UNL1       -0.3354
     17 C           9.4051    1.1789    5.5444 C.ar    1  UNL1        0.0283
     18 C           8.6731    1.5138    6.6854 C.ar    1  UNL1       -0.0394
     19 C           9.1465    2.4595    7.5908 C.ar    1  UNL1       -0.0409
     20 C          10.3965    3.0444    7.4042 C.ar    1  UNL1        0.0532
     21 CL         10.8878    4.1114    8.6800 Cl      1  UNL1       -0.0828
     22 C          11.1539    2.7217    6.2613 C.ar    1  UNL1        0.0567
     23 C          12.4552    3.3716    5.9854 C.2     1  UNL1        0.2458
     24 O          12.9379    4.0937    6.8563 O.2     1  UNL1       -0.2701
     25 N          13.0958    3.1720    4.7697 N.am    1  UNL1       -0.3085
     26 C          14.3849    3.7937    4.4693 C.3     1  UNL1        0.0234
     27 C          14.4148    5.2835    4.8497 C.3     1  UNL1       -0.0345
     28 C          15.7718    5.9303    4.6720 C.3     1  UNL1       -0.0514
     29 C          16.8483    5.1290    5.3970 C.3     1  UNL1       -0.0529
     30 C          16.8770    3.6865    4.9049 C.3     1  UNL1       -0.0514
     31 C          15.5293    3.0013    5.1103 C.3     1  UNL1       -0.0345
     32 C          10.6442    1.7817    5.3544 C.ar    1  UNL1       -0.0273
     33 C           7.1586   -2.3227    0.5175 C.ar    1  UNL1        0.0013
     34 H           0.6124    1.0952    0.0211 H       1  UNL1        0.0232
     35 H           0.5959   -0.5168    0.7567 H       1  UNL1        0.0232
     36 H           0.6222   -0.3456   -1.0082 H       1  UNL1        0.0232
     37 H           2.8839    0.6870   -0.8880 H       1  UNL1        0.0297
     38 H           2.6898    0.1234    2.1203 H       1  UNL1        0.0232
     39 H           2.6246    1.7286    1.3648 H       1  UNL1        0.0232
     40 H           4.1056    0.7900    1.2896 H       1  UNL1        0.0232
     41 H           2.6644   -1.8006   -1.1468 H       1  UNL1        0.0300
     42 H           2.7008   -1.9961    0.5926 H       1  UNL1        0.0300
     43 H           4.9377   -1.0512    0.7050 H       1  UNL1        0.0696
     44 H           4.9622   -0.7387   -1.0523 H       1  UNL1        0.0696
     45 H           6.3377   -4.3585   -2.0373 H       1  UNL1        0.0654
     46 H           8.7165   -4.9998   -1.7319 H       1  UNL1        0.0619
     47 H          10.1424   -3.8203   -0.0920 H       1  UNL1        0.0636
     48 H          10.2415   -2.2444    1.8093 H       1  UNL1        0.1549
     49 H          10.4421    0.0651    3.1916 H       1  UNL1        0.0557
     50 H          10.1277   -1.3523    4.2538 H       1  UNL1        0.0557
     51 H           7.9469    0.5004    4.2992 H       1  UNL1        0.1466
     52 H           7.7363    1.0059    6.9032 H       1  UNL1        0.0636
     53 H           8.5409    2.7370    8.4500 H       1  UNL1        0.0633
     54 H          12.7860    2.4706    4.1156 H       1  UNL1        0.1493
     55 H          14.4969    3.7239    3.3777 H       1  UNL1        0.0498
     56 H          14.1990    5.4321    5.9071 H       1  UNL1        0.0283
     57 H          13.6345    5.8246    4.3032 H       1  UNL1        0.0283
     58 H          15.7283    6.9428    5.0898 H       1  UNL1        0.0266
     59 H          16.0042    6.0158    3.6072 H       1  UNL1        0.0266
     60 H          16.6602    5.1398    6.4795 H       1  UNL1        0.0265
     61 H          17.8219    5.6013    5.2361 H       1  UNL1        0.0265
     62 H          17.6563    3.1284    5.4346 H       1  UNL1        0.0266
     63 H          17.1360    3.6743    3.8394 H       1  UNL1        0.0266
     64 H          15.3433    2.8783    6.1841 H       1  UNL1        0.0283
     65 H          15.5667    1.9883    4.6879 H       1  UNL1        0.0283
     66 H          11.2009    1.5198    4.4694 H       1  UNL1        0.0644
     67 H           6.6703   -1.6327    1.1751 H       1  UNL1        0.0673
@<TRIPOS>BOND
     1     1     2    1
     2     2     3    1
     3     2     4    1
     4     4     5    1
     5     5     6    1
     6     6     7    1
     7     7     8   ar
     8     8     9   ar
     9     9    10   ar
    10    10    11   ar
    11    11    12    1
    12    12    13   am
    13    13    14    2
    14    13    15    1
    15    15    16    1
    16    16    17    1
    17    17    18   ar
    18    18    19   ar
    19    19    20   ar
    20    20    21    1
    21    20    22   ar
    22    22    23    1
    23    23    24    2
    24    23    25   am
    25    25    26    1
    26    26    27    1
    27    27    28    1
    28    28    29    1
    29    29    30    1
    30    30    31    1
    31    26    31    1
    32    22    32   ar
    33    17    32   ar
    34    11    33   ar
    35     7    33   ar
    36     1    34    1
    37     1    35    1
    38     1    36    1
    39     2    37    1
    40     3    38    1
    41     3    39    1
    42     3    40    1
    43     4    41    1
    44     4    42    1
    45     5    43    1
    46     5    44    1
    47     8    45    1
    48     9    46    1
    49    10    47    1
    50    12    48    1
    51    15    49    1
    52    15    50    1
    53    16    51    1
    54    18    52    1
    55    19    53    1
    56    25    54    1
    57    26    55    1
    58    27    56    1
    59    27    57    1
    60    28    58    1
    61    28    59    1
    62    29    60    1
    63    29    61    1
    64    30    62    1
    65    30    63    1
    66    31    64    1
    67    31    65    1
    68    32    66    1
    69    33    67    1
