@<TRIPOS>MOLECULE
*****
 51 53 0 0 0
SMALL
GASTEIGER

@<TRIPOS>ATOM
      1 C           0.9570   -0.0367   -0.0450 C.3     1  UNL1       -0.0307
      2 C           2.4732   -0.0456   -0.0333 C.3     1  UNL1        0.0868
      3 O           2.9300    1.3030   -0.1176 O.3     1  UNL1       -0.4922
      4 C           4.2823    1.4614   -0.2708 C.ar    1  UNL1        0.1212
      5 C           4.8207    2.5910    0.3519 C.ar    1  UNL1       -0.0199
      6 C           6.1619    2.9050    0.1750 C.ar    1  UNL1       -0.0576
      7 C           6.9619    2.0733   -0.6147 C.ar    1  UNL1       -0.0494
      8 C           6.4365    0.9290   -1.2613 C.ar    1  UNL1        0.0405
      9 C           7.3788    0.1369   -2.1358 C.2     1  UNL1        0.2497
     10 O           8.5273    0.5484   -2.1696 O.2     1  UNL1       -0.2698
     11 N           6.9264   -0.9995   -2.8618 N.am    1  UNL1       -0.2627
     12 C           7.6960   -1.8101   -3.7296 C.2     1  UNL1        0.1533
     13 S           9.3324   -1.5962   -4.0800 S.2     1  UNL1       -0.0170
     14 N           6.9876   -2.8713   -4.3278 N.am    1  UNL1       -0.2454
     15 N           7.6878   -3.7555   -5.2423 N.am    1  UNL1       -0.2323
     16 C           7.0620   -4.8369   -5.8618 C.2     1  UNL1        0.2667
     17 O           5.8642   -5.0669   -5.6812 O.2     1  UNL1       -0.2705
     18 C           8.0079   -5.7149   -6.7751 C.3     1  UNL1        0.1666
     19 O           7.3834   -6.9020   -7.2865 O.3     1  UNL1       -0.4816
     20 C           8.0047   -7.7115   -8.2208 C.ar    1  UNL1        0.1357
     21 C           7.1997   -7.9616   -9.3374 C.ar    1  UNL1       -0.0182
     22 C           7.5980   -8.8608  -10.3270 C.ar    1  UNL1       -0.0505
     23 C           8.8356   -9.5044  -10.2624 C.ar    1  UNL1       -0.0166
     24 C           9.2904  -10.1877  -11.3929 C.ar    1  UNL1       -0.0540
     25 C          10.5934  -10.6398  -11.4376 C.ar    1  UNL1       -0.0612
     26 C          11.0130  -11.1791  -10.2533 C.ar    1  UNL1       -0.0611
     27 C          10.7224  -10.4233   -9.1094 C.ar    1  UNL1       -0.0529
     28 C           9.6346   -9.4491   -9.1038 C.ar    1  UNL1       -0.0004
     29 C           9.1920   -8.4906   -8.0825 C.ar    1  UNL1        0.0672
     30 BR         10.2619   -8.3448   -6.5127 Br      1  UNL1       -0.0459
     31 C           5.0846    0.6366   -1.0790 C.ar    1  UNL1       -0.0078
     32 H           0.5686   -1.0524    0.0700 H       1  UNL1        0.0262
     33 H           0.5867    0.3731   -0.9914 H       1  UNL1        0.0262
     34 H           0.5611    0.5944    0.7559 H       1  UNL1        0.0262
     35 H           2.8006   -0.6464   -0.8853 H       1  UNL1        0.0694
     36 H           2.8417   -0.4932    0.8961 H       1  UNL1        0.0694
     37 H           4.1927    3.2315    0.9688 H       1  UNL1        0.0654
     38 H           6.5812    3.8004    0.6308 H       1  UNL1        0.0619
     39 H           8.0114    2.3429   -0.7370 H       1  UNL1        0.0625
     40 H           5.9582   -1.2511   -2.7712 H       1  UNL1        0.1569
     41 H           6.0053   -3.0959   -4.1780 H       1  UNL1        0.1718
     42 H           8.6811   -3.5519   -5.3548 H       1  UNL1        0.1729
     43 H           8.8472   -5.9939   -6.1391 H       1  UNL1        0.0795
     44 H           8.3612   -5.0788   -7.5967 H       1  UNL1        0.0795
     45 H           6.2444   -7.4529   -9.4579 H       1  UNL1        0.0655
     46 H           6.9412   -9.0393  -11.1774 H       1  UNL1        0.0625
     47 H           8.6723  -10.3406  -12.2696 H       1  UNL1        0.0624
     48 H          11.2863   -9.7822  -11.6601 H       1  UNL1        0.0618
     49 H          11.6402  -12.0647  -10.3171 H       1  UNL1        0.0618
     50 H          11.3333  -10.6157   -8.2300 H       1  UNL1        0.0624
     51 H           4.6398   -0.1995   -1.5939 H       1  UNL1        0.0662
@<TRIPOS>BOND
     1     1     2    1
     2     2     3    1
     3     3     4    1
     4     4     5   ar
     5     5     6   ar
     6     6     7   ar
     7     7     8   ar
     8     8     9    1
     9     9    10    2
    10     9    11   am
    11    11    12    1
    12    12    13    2
    13    12    14    1
    14    14    15    1
    15    15    16   am
    16    16    17    2
    17    16    18    1
    18    18    19    1
    19    19    20    1
    20    20    21   ar
    21    21    22   ar
    22    22    23   ar
    23    23    24   ar
    24    24    25   ar
    25    25    26   ar
    26    26    27   ar
    27    27    28   ar
    28    23    28   ar
    29    28    29   ar
    30    20    29   ar
    31    29    30    1
    32     8    31   ar
    33     4    31   ar
    34     1    32    1
    35     1    33    1
    36     1    34    1
    37     2    35    1
    38     2    36    1
    39     5    37    1
    40     6    38    1
    41     7    39    1
    42    11    40    1
    43    14    41    1
    44    15    42    1
    45    18    43    1
    46    18    44    1
    47    21    45    1
    48    22    46    1
    49    24    47    1
    50    25    48    1
    51    26    49    1
    52    27    50    1
    53    31    51    1
