REMARK  7 active torsions:
REMARK  status: ('A' for Active; 'I' for Inactive)
REMARK    1  A    between atoms: C_2  and  C_14 
REMARK    2  A    between atoms: C_2  and  O_3 
REMARK    3  A    between atoms: O_3  and  C_4 
REMARK    4  A    between atoms: C_4  and  C_6 
REMARK       I    between atoms: C_14  and  N_16 
REMARK    5  A    between atoms: N_16  and  C_17 
REMARK    6  A    between atoms: C_20  and  S_21 
REMARK    7  A    between atoms: S_21  and  N_22 
ROOT
ATOM      1  C   UNL d   1       2.927   0.876   1.208  0.00  0.00     0.251 C 
ATOM      2  O   UNL d   1       2.077   1.320   1.975  0.00  0.00    -0.270 OA
ATOM      3  N   UNL d   1       4.311   1.019   1.391  0.00  0.00    -0.325 N 
ATOM      4  H   UNL d   1       4.955   0.732   0.666  0.00  0.00     0.169 HD
ENDROOT
BRANCH   1   5
ATOM      5  C   UNL d   1       2.546   0.130  -0.091  0.00  0.00     0.220 C 
ATOM      6  C   UNL d   1       3.201   0.904  -1.223  0.00  0.00     0.050 C 
BRANCH   5   7
ATOM      7  O   UNL d   1       1.105   0.006  -0.243  0.00  0.00    -0.302 OA
BRANCH   7   8
ATOM      8  C   UNL d   1       0.341  -0.205  -1.352  0.00  0.00     0.314 C 
ATOM      9  O   UNL d   1      -0.883  -0.128  -1.276  0.00  0.00    -0.257 OA
BRANCH   8  10
ATOM     10  C   UNL d   1       0.955  -0.435  -2.702  0.00  0.00     0.155 C 
ATOM     11  N   UNL d   1       0.512   0.443  -3.657  0.00  0.00    -0.229 NA
ATOM     12  C   UNL d   1       1.121   0.414  -4.859  0.00  0.00     0.127 C 
ATOM     13 CL   UNL d   1       0.441   1.432  -6.057  0.00  0.00    -0.062 Cl
ATOM     14  C   UNL d   1       2.216  -0.374  -5.152  0.00  0.00     0.046 C 
ATOM     15  C   UNL d   1       2.664  -1.252  -4.172  0.00  0.00     0.030 C 
ATOM     16  C   UNL d   1       1.977  -1.357  -2.957  0.00  0.00     0.069 C 
ATOM     17 CL   UNL d   1       2.573  -2.530  -1.849  0.00  0.00    -0.082 Cl
ENDBRANCH   8  10
ENDBRANCH   7   8
ENDBRANCH   5   7
ENDBRANCH   1   5
BRANCH   3  18
ATOM     18  C   UNL d   1       4.891   1.613   2.527  0.00  0.00     0.034 A 
ATOM     19  C   UNL d   1       6.097   2.323   2.428  0.00  0.00     0.031 A 
ATOM     20  C   UNL d   1       6.712   2.819   3.589  0.00  0.00     0.027 A 
ATOM     21  C   UNL d   1       6.095   2.628   4.832  0.00  0.00     0.079 A 
ATOM     22  C   UNL d   1       4.904   1.913   4.928  0.00  0.00     0.027 A 
ATOM     23  C   UNL d   1       4.305   1.421   3.775  0.00  0.00     0.031 A 
BRANCH  21  24
ATOM     24  S   UNL d   1       6.748   3.394   6.293  0.00  0.00     0.256 S 
ATOM     25  O   UNL d   1       6.956   4.796   5.991  0.00  0.00    -0.201 OA
ATOM     26  O   UNL d   1       5.991   2.940   7.430  0.00  0.00    -0.201 OA
BRANCH  24  27
ATOM     27  N   UNL d   1       8.247   2.685   6.406  0.00  0.00    -0.324 N 
ATOM     28  H   UNL d   1       8.977   3.054   5.809  0.00  0.00     0.169 HD
ATOM     29  H   UNL d   1       8.274   1.736   6.765  0.00  0.00     0.169 HD
ENDBRANCH  24  27
ENDBRANCH  21  24
ENDBRANCH   3  18
TORSDOF 7
