@<TRIPOS>MOLECULE
*****
 55 57 0 0 0
SMALL
GASTEIGER

@<TRIPOS>ATOM
      1 C           2.5178    1.0321    0.0013 C.3     1  UNL1       -0.0222
      2 C           1.1916    0.3394    0.0042 C.ar    1  UNL1        0.0436
      3 C           0.0033    1.0384    0.0089 C.ar    1  UNL1       -0.0194
      4 C          -1.1579    0.2836    0.0018 C.ar    1  UNL1        0.0436
      5 C          -2.4924    0.9807   -0.0148 C.3     1  UNL1       -0.0222
      6 N          -1.1448   -1.0761   -0.0037 N.ar    1  UNL1       -0.2185
      7 C           0.0694   -1.6504   -0.0111 C.ar    1  UNL1        0.2352
      8 N           0.0695   -3.0501   -0.0139 N.pl3   1  UNL1       -0.1836
      9 S           1.5264   -3.8421   -0.0263 S.O2    1  UNL1        0.0746
     10 O           2.1707   -3.5870   -1.3056 O.2     1  UNL1       -0.1499
     11 O           2.2048   -3.6150    1.2275 O.2     1  UNL1       -0.1499
     12 C           1.1569   -5.5986   -0.0267 C.ar    1  UNL1        0.1087
     13 C           0.0513   -6.1478    0.6264 C.ar    1  UNL1       -0.0333
     14 C          -0.0865   -7.5556    0.7203 C.ar    1  UNL1       -0.0386
     15 C           0.8344   -8.4202    0.1025 C.ar    1  UNL1        0.0338
     16 N           0.6235   -9.8333    0.1114 N.am    1  UNL1       -0.2815
     17 C           1.4581  -10.7635   -0.5124 C.2     1  UNL1        0.2483
     18 O           2.4924  -10.5252   -1.1288 O.2     1  UNL1       -0.2699
     19 C           1.0842  -12.1961   -0.4686 C.ar    1  UNL1        0.0372
     20 C           2.1048  -13.1541   -0.3377 C.ar    1  UNL1       -0.0462
     21 C           1.8348  -14.5176   -0.5171 C.ar    1  UNL1       -0.0192
     22 C           0.5252  -14.9464   -0.7337 C.ar    1  UNL1        0.1209
     23 O           0.3480  -16.3023   -0.8639 O.3     1  UNL1       -0.4894
     24 C          -0.9953  -16.7906   -1.0189 C.3     1  UNL1        0.0946
     25 C          -1.5461  -16.4604   -2.4087 C.3     1  UNL1       -0.0281
     26 C          -0.9898  -18.3174   -0.8833 C.3     1  UNL1       -0.0281
     27 C          -0.4868  -13.9817   -0.8188 C.ar    1  UNL1       -0.0192
     28 C          -0.2112  -12.6137   -0.7386 C.ar    1  UNL1       -0.0462
     29 C           1.9328   -7.8369   -0.5336 C.ar    1  UNL1       -0.0386
     30 C           2.0967   -6.4506   -0.6067 C.ar    1  UNL1       -0.0333
     31 N           1.2315   -1.0043   -0.0035 N.ar    1  UNL1       -0.2185
     32 H           2.4140    2.1211    0.0128 H       1  UNL1        0.0293
     33 H           3.0775    0.7484   -0.8956 H       1  UNL1        0.0293
     34 H           3.0902    0.7306    0.8841 H       1  UNL1        0.0293
     35 H          -0.0163    2.1220    0.0134 H       1  UNL1        0.0653
     36 H          -2.3806    2.0723   -0.0157 H       1  UNL1        0.0293
     37 H          -3.0769    0.7093    0.8692 H       1  UNL1        0.0293
     38 H          -3.0505    0.7067   -0.9151 H       1  UNL1        0.0293
     39 H          -0.8286   -3.5027   -0.0514 H       1  UNL1        0.1767
     40 H          -0.6925   -5.5075    1.0895 H       1  UNL1        0.0638
     41 H          -0.9148   -7.9514    1.3044 H       1  UNL1        0.0637
     42 H          -0.2040  -10.1738    0.5864 H       1  UNL1        0.1551
     43 H           3.1237  -12.8322   -0.1271 H       1  UNL1        0.0626
     44 H           2.6541  -15.2342   -0.4992 H       1  UNL1        0.0654
     45 H          -1.6282  -16.3940   -0.2137 H       1  UNL1        0.0727
     46 H          -0.8989  -16.8844   -3.1814 H       1  UNL1        0.0265
     47 H          -1.5814  -15.3927   -2.6270 H       1  UNL1        0.0265
     48 H          -2.5636  -16.8426   -2.5229 H       1  UNL1        0.0265
     49 H          -0.3449  -18.7740   -1.6426 H       1  UNL1        0.0265
     50 H          -2.0023  -18.7197   -1.0104 H       1  UNL1        0.0265
     51 H          -0.6131  -18.6384    0.0925 H       1  UNL1        0.0265
     52 H          -1.5206  -14.2504   -0.9919 H       1  UNL1        0.0654
     53 H          -1.0077  -11.9051   -0.9403 H       1  UNL1        0.0626
     54 H           2.7174   -8.4325   -0.9847 H       1  UNL1        0.0637
     55 H           2.9836   -6.0629   -1.1056 H       1  UNL1        0.0638
@<TRIPOS>BOND
     1     1     2    1
     2     2     3   ar
     3     3     4   ar
     4     4     5    1
     5     4     6   ar
     6     6     7   ar
     7     7     8    1
     8     8     9    1
     9     9    10    2
    10     9    11    2
    11     9    12    1
    12    12    13   ar
    13    13    14   ar
    14    14    15   ar
    15    15    16    1
    16    16    17   am
    17    17    18    2
    18    17    19    1
    19    19    20   ar
    20    20    21   ar
    21    21    22   ar
    22    22    23    1
    23    23    24    1
    24    24    25    1
    25    24    26    1
    26    22    27   ar
    27    27    28   ar
    28    19    28   ar
    29    15    29   ar
    30    29    30   ar
    31    12    30   ar
    32     7    31   ar
    33     2    31   ar
    34     1    32    1
    35     1    33    1
    36     1    34    1
    37     3    35    1
    38     5    36    1
    39     5    37    1
    40     5    38    1
    41     8    39    1
    42    13    40    1
    43    14    41    1
    44    16    42    1
    45    20    43    1
    46    21    44    1
    47    24    45    1
    48    25    46    1
    49    25    47    1
    50    25    48    1
    51    26    49    1
    52    26    50    1
    53    26    51    1
    54    27    52    1
    55    28    53    1
    56    29    54    1
    57    30    55    1
