@<TRIPOS>MOLECULE
*****
 45 48 0 0 0
SMALL
GASTEIGER

@<TRIPOS>ATOM
      1 C           0.9132    0.0326    0.0674 C.3     1  UNL1       -0.0382
      2 C           2.4158    0.0362    0.0627 C.ar    1  UNL1       -0.0287
      3 C           3.1207    1.2548    0.0743 C.ar    1  UNL1       -0.0152
      4 C           4.5008    1.2633   -0.1292 C.ar    1  UNL1        0.1263
      5 O           5.1842    2.4413   -0.2680 O.3     1  UNL1       -0.5061
      6 C           5.2080    0.0619   -0.2351 C.ar    1  UNL1        0.0429
      7 C           6.5981    0.0374   -0.6462 C.ar    1  UNL1        0.0753
      8 N           7.6397    0.6789   -0.0107 N.ar    1  UNL1       -0.2758
      9 N           8.8593    0.4757   -0.5974 N.ar    1  UNL1       -0.1683
     10 C           8.5476   -0.2724   -1.6578 C.ar    1  UNL1        0.1529
     11 C           7.1853   -0.5359   -1.7391 C.ar    1  UNL1        0.0350
     12 C           6.8797   -1.3875   -2.8966 C.3     1  UNL1        0.0838
     13 C           6.2220   -0.5069   -3.9329 C.ar    1  UNL1        0.0127
     14 C           6.8251    0.6161   -4.5364 C.ar    1  UNL1       -0.0537
     15 C           6.0683    1.4850   -5.3292 C.ar    1  UNL1       -0.0613
     16 C           4.7518    1.1664   -5.6533 C.ar    1  UNL1       -0.0590
     17 C           4.2024   -0.0303   -5.2046 C.ar    1  UNL1       -0.0261
     18 C           4.9158   -0.8196   -4.3109 C.ar    1  UNL1        0.1287
     19 F           4.3256   -1.9102   -3.8027 F       1  UNL1       -0.2051
     20 N           8.2313   -1.8106   -3.2913 N.am    1  UNL1       -0.2827
     21 C           8.4650   -3.0430   -4.0483 C.3     1  UNL1        0.0391
     22 C           7.1955   -3.8413   -4.4101 C.3     1  UNL1        0.0600
     23 O           7.4909   -5.0484   -5.0989 O.3     1  UNL1       -0.3935
     24 C           9.2350   -0.9929   -2.7227 C.2     1  UNL1        0.2679
     25 O          10.4112   -0.9137   -3.0603 O.2     1  UNL1       -0.2682
     26 C           4.5274   -1.1504   -0.0834 C.ar    1  UNL1       -0.0305
     27 C           3.1374   -1.1653   -0.0005 C.ar    1  UNL1        0.0447
     28 CL          2.3468   -2.7013   -0.0470 Cl      1  UNL1       -0.0832
     29 H           0.5080    1.0471    0.1227 H       1  UNL1        0.0278
     30 H           0.5320   -0.5323    0.9232 H       1  UNL1        0.0278
     31 H           0.5400   -0.4181   -0.8599 H       1  UNL1        0.0278
     32 H           2.5823    2.1888    0.2096 H       1  UNL1        0.0657
     33 H           4.5605    3.1820   -0.3410 H       1  UNL1        0.2922
     34 H           7.5795    1.2365    0.8356 H       1  UNL1        0.1889
     35 H           6.2773   -2.2391   -2.5757 H       1  UNL1        0.0603
     36 H           7.8761    0.8543   -4.3767 H       1  UNL1        0.0622
     37 H           6.5055    2.4144   -5.6896 H       1  UNL1        0.0618
     38 H           4.1586    1.8450   -6.2600 H       1  UNL1        0.0618
     39 H           3.2150   -0.3453   -5.5231 H       1  UNL1        0.0646
     40 H           9.1261   -3.6864   -3.4521 H       1  UNL1        0.0487
     41 H           9.0311   -2.7997   -4.9534 H       1  UNL1        0.0487
     42 H           6.5203   -3.2466   -5.0327 H       1  UNL1        0.0573
     43 H           6.6492   -4.1269   -3.5043 H       1  UNL1        0.0573
     44 H           7.8730   -4.8168   -5.9619 H       1  UNL1        0.2095
     45 H           5.0781   -2.0880   -0.0733 H       1  UNL1        0.0640
@<TRIPOS>BOND
     1     1     2    1
     2     2     3   ar
     3     3     4   ar
     4     4     5    1
     5     4     6   ar
     6     6     7    1
     7     7     8   ar
     8     8     9   ar
     9     9    10   ar
    10    10    11   ar
    11     7    11   ar
    12    11    12    1
    13    13    14   ar
    14    14    15   ar
    15    15    16   ar
    16    16    17   ar
    17    17    18   ar
    18    13    18   ar
    19    18    19    1
    20    12    20    1
    21    20    21    1
    22    21    22    1
    23    22    23    1
    24    20    24   am
    25    10    24    1
    26    24    25    2
    27     6    26   ar
    28    26    27   ar
    29     2    27   ar
    30    27    28    1
    31    12    13    1
    32     1    29    1
    33     1    30    1
    34     1    31    1
    35     3    32    1
    36     5    33    1
    37     8    34    1
    38    12    35    1
    39    14    36    1
    40    15    37    1
    41    16    38    1
    42    17    39    1
    43    21    40    1
    44    21    41    1
    45    22    42    1
    46    22    43    1
    47    23    44    1
    48    26    45    1
