@<TRIPOS>MOLECULE
*****
 46 46 0 0 0
SMALL
GASTEIGER

@<TRIPOS>ATOM
      1 C           1.1066   -0.0190   -0.0226 C.3     1  UNL1       -0.0652
      2 C           2.6313    0.0002   -0.0016 C.3     1  UNL1       -0.0545
      3 C           3.1743    0.9705    1.0627 C.3     1  UNL1       -0.0376
      4 C           4.7118    1.0018    1.0970 C.3     1  UNL1        0.0131
      5 N           5.2793    1.9161    2.0986 N.am    1  UNL1       -0.2982
      6 C           6.6481    2.0597    2.2554 C.2     1  UNL1        0.3160
      7 O           7.4671    1.4396    1.5755 O.2     1  UNL1       -0.2513
      8 N           7.0383    2.9605    3.2377 N.am    1  UNL1       -0.2180
      9 N           8.4410    3.1843    3.4896 N.am    1  UNL1       -0.2297
     10 C           8.8394    4.0693    4.4834 C.2     1  UNL1        0.2530
     11 O           8.0367    4.7095    5.1657 O.2     1  UNL1       -0.2693
     12 C          10.3277    4.2112    4.6805 C.2     1  UNL1        0.0022
     13 C          10.8576    5.0232    5.6247 C.2     1  UNL1       -0.0495
     14 C          12.3104    5.2650    5.8230 C.ar    1  UNL1       -0.0212
     15 C          12.8853    5.4146    7.0917 C.ar    1  UNL1       -0.0509
     16 C          14.2456    5.7586    7.2295 C.ar    1  UNL1       -0.0157
     17 C          15.0746    5.9053    6.1068 C.ar    1  UNL1        0.1615
     18 O          16.3958    6.1522    6.4041 O.3     1  UNL1       -0.4915
     19 C          17.3252    6.1639    5.3203 C.3     1  UNL1        0.0790
     20 C          14.4987    5.7875    4.8324 C.ar    1  UNL1        0.1620
     21 O          15.2933    6.0146    3.7429 O.3     1  UNL1       -0.4914
     22 C          14.7123    5.9407    2.4544 C.3     1  UNL1        0.0790
     23 C          13.1343    5.4722    4.7118 C.ar    1  UNL1       -0.0092
     24 H           0.7383   -0.7144   -0.7853 H       1  UNL1        0.0230
     25 H           0.7050    0.9734   -0.2512 H       1  UNL1        0.0230
     26 H           0.7050   -0.3380    0.9445 H       1  UNL1        0.0230
     27 H           2.9942    0.2871   -0.9959 H       1  UNL1        0.0263
     28 H           2.9942   -1.0163    0.1926 H       1  UNL1        0.0263
     29 H           2.7868    0.6748    2.0451 H       1  UNL1        0.0280
     30 H           2.7868    1.9760    0.8587 H       1  UNL1        0.0280
     31 H           5.0948    1.3006    0.1141 H       1  UNL1        0.0462
     32 H           5.0949   -0.0043    1.3045 H       1  UNL1        0.0462
     33 H           4.6486    2.4460    2.6821 H       1  UNL1        0.1503
     34 H           6.3926    3.4837    3.8213 H       1  UNL1        0.1744
     35 H           9.0791    2.6416    2.9099 H       1  UNL1        0.1731
     36 H          10.9726    3.6366    4.0262 H       1  UNL1        0.0670
     37 H          10.2087    5.6056    6.2787 H       1  UNL1        0.0625
     38 H          12.2950    5.2574    7.9925 H       1  UNL1        0.0625
     39 H          14.6623    5.9180    8.2241 H       1  UNL1        0.0655
     40 H          18.3395    6.2622    5.7179 H       1  UNL1        0.0660
     41 H          17.1563    7.0358    4.6790 H       1  UNL1        0.0660
     42 H          17.2991    5.2244    4.7541 H       1  UNL1        0.0660
     43 H          15.4951    6.1675    1.7266 H       1  UNL1        0.0660
     44 H          13.9202    6.6872    2.3409 H       1  UNL1        0.0660
     45 H          14.3484    4.9283    2.2556 H       1  UNL1        0.0660
     46 H          12.6816    5.4012    3.7309 H       1  UNL1        0.0661
@<TRIPOS>BOND
     1     1     2    1
     2     2     3    1
     3     3     4    1
     4     4     5    1
     5     5     6   am
     6     6     7    2
     7     6     8   am
     8     8     9    1
     9     9    10   am
    10    10    11    2
    11    10    12    1
    12    12    13    2
    13    13    14    1
    14    14    15   ar
    15    15    16   ar
    16    16    17   ar
    17    17    18    1
    18    18    19    1
    19    17    20   ar
    20    20    21    1
    21    21    22    1
    22    20    23   ar
    23    14    23   ar
    24     1    24    1
    25     1    25    1
    26     1    26    1
    27     2    27    1
    28     2    28    1
    29     3    29    1
    30     3    30    1
    31     4    31    1
    32     4    32    1
    33     5    33    1
    34     8    34    1
    35     9    35    1
    36    12    36    1
    37    13    37    1
    38    15    38    1
    39    16    39    1
    40    19    40    1
    41    19    41    1
    42    19    42    1
    43    22    43    1
    44    22    44    1
    45    22    45    1
    46    23    46    1
