@<TRIPOS>MOLECULE
*****
 36 36 0 0 0
SMALL
GASTEIGER

@<TRIPOS>ATOM
      1 C           0.9784    0.0379    0.0787 C.3     1  UNL1       -0.0639
      2 C           2.5055    0.0275    0.0950 C.3     1  UNL1       -0.0402
      3 C           3.0564   -0.6521    1.3536 C.3     1  UNL1        0.0128
      4 N           4.5159   -0.7110    1.4068 N.am    1  UNL1       -0.2982
      5 C           5.1629   -1.2695    2.4912 C.2     1  UNL1        0.3160
      6 O           4.5729   -1.7625    3.4509 O.2     1  UNL1       -0.2513
      7 N           6.5453   -1.2219    2.4112 N.am    1  UNL1       -0.2180
      8 N           7.3178   -1.6930    3.5246 N.am    1  UNL1       -0.2292
      9 C           8.7090   -1.7579    3.5044 C.2     1  UNL1        0.2604
     10 O           9.3090   -2.7516    3.9140 O.2     1  UNL1       -0.2687
     11 C           9.4914   -0.5421    3.1131 C.ar    1  UNL1        0.0446
     12 C          10.8941   -0.5516    3.1108 C.ar    1  UNL1       -0.0489
     13 C          11.6114    0.6206    2.8157 C.ar    1  UNL1       -0.0517
     14 C          10.9475    1.8253    2.5077 C.ar    1  UNL1        0.0266
     15 C          11.7648    3.0489    2.2048 C.3     1  UNL1       -0.0333
     16 C           9.5410    1.8279    2.5207 C.ar    1  UNL1        0.2767
     17 N           8.7217    3.0150    2.1876 N.pl3   1  UNL1        0.0799
     18 O           9.2854    4.0754    1.8996 O.2     1  UNL1        0.0415
     19 O           7.4892    2.8712    2.1863 O.co2   1  UNL1       -0.5760
     20 C           8.8376    0.6616    2.8530 C.ar    1  UNL1        0.0280
     21 H           0.6042    0.5257   -0.8286 H       1  UNL1        0.0230
     22 H           0.5762    0.5822    0.9396 H       1  UNL1        0.0230
     23 H           0.5755   -0.9801    0.0998 H       1  UNL1        0.0230
     24 H           2.8677    1.0607    0.0335 H       1  UNL1        0.0278
     25 H           2.8663   -0.4894   -0.8019 H       1  UNL1        0.0278
     26 H           2.6848   -1.6814    1.4125 H       1  UNL1        0.0462
     27 H           2.7027   -0.1239    2.2470 H       1  UNL1        0.0462
     28 H           5.0460   -0.2586    0.6774 H       1  UNL1        0.1503
     29 H           7.0243   -0.9166    1.5746 H       1  UNL1        0.1744
     30 H           6.8478   -2.4311    4.0512 H       1  UNL1        0.1732
     31 H          11.4464   -1.4567    3.3700 H       1  UNL1        0.0625
     32 H          12.7023    0.5885    2.8374 H       1  UNL1        0.0622
     33 H          12.8391    2.8544    2.2662 H       1  UNL1        0.0280
     34 H          11.5384    3.8375    2.9306 H       1  UNL1        0.0280
     35 H          11.5559    3.3954    1.1876 H       1  UNL1        0.0280
     36 H           7.7593    0.7142    2.9448 H       1  UNL1        0.0693
@<TRIPOS>UNITY_ATOM_ATTR
17 1
charge 1
19 1
charge -1
@<TRIPOS>BOND
     1     1     2    1
     2     2     3    1
     3     3     4    1
     4     4     5   am
     5     5     6    2
     6     5     7   am
     7     7     8    1
     8     8     9   am
     9     9    10    2
    10     9    11    1
    11    11    12   ar
    12    12    13   ar
    13    13    14   ar
    14    14    15    1
    15    14    16   ar
    16    16    17    1
    17    17    18    2
    18    17    19    1
    19    16    20   ar
    20    11    20   ar
    21     1    21    1
    22     1    22    1
    23     1    23    1
    24     2    24    1
    25     2    25    1
    26     3    26    1
    27     3    27    1
    28     4    28    1
    29     7    29    1
    30     8    30    1
    31    12    31    1
    32    13    32    1
    33    15    33    1
    34    15    34    1
    35    15    35    1
    36    20    36    1
