@<TRIPOS>MOLECULE
*****
 52 54 0 0 0
SMALL
GASTEIGER

@<TRIPOS>ATOM
      1 C           0.9594   -0.3213    0.6096 C.3     1  UNL1        0.0789
      2 O           2.3685   -0.2475    0.4568 O.3     1  UNL1       -0.4933
      3 C           3.0044   -1.2356   -0.2376 C.ar    1  UNL1        0.1413
      4 C           4.1988   -1.6757    0.3668 C.ar    1  UNL1       -0.0164
      5 C           4.9892   -2.6912   -0.2004 C.ar    1  UNL1       -0.0369
      6 C           4.5922   -3.2800   -1.3982 C.ar    1  UNL1        0.0354
      7 N           5.2794   -4.4196   -1.8790 N.am    1  UNL1       -0.2857
      8 C           5.0068   -5.2961   -2.8982 C.2     1  UNL1        0.2141
      9 C           3.8362   -5.1408   -3.8369 C.3     1  UNL1        0.0125
     10 O           5.7614   -6.2631   -3.0580 O.2     1  UNL1       -0.2758
     11 C           3.5087   -2.6951   -2.0565 C.ar    1  UNL1       -0.0156
     12 C           2.6563   -1.7451   -1.4903 C.ar    1  UNL1        0.0774
     13 N           1.5104   -1.3857   -2.2689 N.am    1  UNL1       -0.2812
     14 C           1.0349   -0.0918   -2.2661 C.2     1  UNL1        0.2352
     15 O           1.7945    0.8296   -1.9888 O.2     1  UNL1       -0.2737
     16 C          -0.4573    0.1399   -2.5844 C.3     1  UNL1        0.1005
     17 N          -1.0940    1.2224   -1.7906 N.am    1  UNL1       -0.2150
     18 C          -2.4044    1.2391   -1.4221 C.2     1  UNL1        0.3100
     19 O          -3.1055    0.2828   -1.0859 O.2     1  UNL1       -0.2522
     20 N          -2.8503    2.5432   -1.4294 N.am    1  UNL1       -0.2813
     21 C          -1.7501    3.4843   -1.3917 C.3     1  UNL1        0.1361
     22 C          -1.7716    4.3906   -2.6077 C.3     1  UNL1       -0.0308
     23 C          -1.6596    4.2134   -0.0411 C.ar    1  UNL1       -0.0016
     24 C          -1.7233    3.4177    1.1361 C.ar    1  UNL1       -0.0550
     25 C          -1.8163    3.9869    2.4104 C.ar    1  UNL1       -0.0614
     26 C          -1.7578    5.3619    2.5623 C.ar    1  UNL1       -0.0607
     27 C          -1.6359    6.1663    1.4436 C.ar    1  UNL1       -0.0474
     28 C          -1.5763    5.6189    0.1564 C.ar    1  UNL1        0.0235
     29 BR         -1.3491    7.0193   -1.1305 Br      1  UNL1       -0.0499
     30 C          -0.6079    2.5025   -1.6594 C.2     1  UNL1        0.2512
     31 O           0.5467    2.8924   -1.7661 O.2     1  UNL1       -0.2724
     32 H           0.6076    0.6845    0.8617 H       1  UNL1        0.0660
     33 H           0.7031   -1.0384    1.3843 H       1  UNL1        0.0660
     34 H           0.3806   -0.6338   -0.2515 H       1  UNL1        0.0660
     35 H           4.5013   -1.2266    1.3113 H       1  UNL1        0.0655
     36 H           5.9104   -2.9799    0.3042 H       1  UNL1        0.0637
     37 H           6.0667   -4.7497   -1.3245 H       1  UNL1        0.1548
     38 H           3.0501   -4.4835   -3.5120 H       1  UNL1        0.0323
     39 H           3.2977   -6.0858   -3.9147 H       1  UNL1        0.0323
     40 H           4.1990   -4.8120   -4.8150 H       1  UNL1        0.0323
     41 H           3.3760   -2.8361   -3.1135 H       1  UNL1        0.0656
     42 H           1.2767   -1.9723   -3.0621 H       1  UNL1        0.1550
     43 H          -1.0487   -0.7845   -2.4898 H       1  UNL1        0.0566
     44 H          -0.4997    0.4414   -3.6371 H       1  UNL1        0.0566
     45 H          -3.8259    2.7955   -1.3401 H       1  UNL1        0.1516
     46 H          -1.8438    3.8645   -3.5609 H       1  UNL1        0.0258
     47 H          -0.8211    4.9370   -2.6536 H       1  UNL1        0.0258
     48 H          -2.6214    5.0750   -2.5490 H       1  UNL1        0.0258
     49 H          -1.7129    2.3282    1.0850 H       1  UNL1        0.0621
     50 H          -1.9463    3.3573    3.2868 H       1  UNL1        0.0618
     51 H          -1.7902    5.8213    3.5441 H       1  UNL1        0.0618
     52 H          -1.5945    7.2457    1.5744 H       1  UNL1        0.0629
@<TRIPOS>BOND
     1     1     2    1
     2     2     3    1
     3     3     4   ar
     4     4     5   ar
     5     5     6   ar
     6     6     7    1
     7     7     8   am
     8     8     9    1
     9     8    10    2
    10     6    11   ar
    11    11    12   ar
    12     3    12   ar
    13    12    13    1
    14    13    14   am
    15    14    15    2
    16    14    16    1
    17    16    17    1
    18    17    18   am
    19    18    19    2
    20    18    20   am
    21    20    21    1
    22    23    24   ar
    23    24    25   ar
    24    25    26   ar
    25    26    27   ar
    26    27    28   ar
    27    23    28   ar
    28    28    29    1
    29    21    30    1
    30    17    30   am
    31    30    31    2
    32    21    23    1
    33    21    22    1
    34     1    32    1
    35     1    33    1
    36     1    34    1
    37     4    35    1
    38     5    36    1
    39     7    37    1
    40     9    38    1
    41     9    39    1
    42     9    40    1
    43    11    41    1
    44    13    42    1
    45    16    43    1
    46    16    44    1
    47    20    45    1
    48    22    46    1
    49    22    47    1
    50    22    48    1
    51    24    49    1
    52    25    50    1
    53    26    51    1
    54    27    52    1
