@<TRIPOS>MOLECULE
*****
 34 36 0 0 0
SMALL
GASTEIGER

@<TRIPOS>ATOM
      1 N           1.0682   -0.0932    0.0923 N.3     1  UNL1       -0.2544
      2 N           2.4766    0.0007    0.0817 N.am    1  UNL1       -0.2535
      3 C           3.0961    0.8940    0.9513 C.2     1  UNL1        0.2280
      4 O           2.4799    1.6845    1.6670 O.2     1  UNL1       -0.2745
      5 C           4.6103    0.8441    0.9233 C.3     1  UNL1        0.0431
      6 C           5.1792    1.8793    1.8939 C.3     1  UNL1        0.0321
      7 N           6.6362    1.8872    1.9126 N.ar    1  UNL1       -0.3393
      8 C           7.4086    1.0870    2.7306 C.ar    1  UNL1        0.0502
      9 C           7.0357    0.1315    3.6896 C.ar    1  UNL1       -0.0362
     10 C           8.0470   -0.5467    4.3714 C.ar    1  UNL1       -0.0414
     11 C           9.3842   -0.2771    4.1032 C.ar    1  UNL1        0.0417
     12 CL         10.6050   -1.1381    4.9612 Cl      1  UNL1       -0.0835
     13 C           9.7531    0.6776    3.1498 C.ar    1  UNL1       -0.0336
     14 C           8.7457    1.3767    2.4475 C.ar    1  UNL1        0.0090
     15 C           8.7613    2.3899    1.4341 C.ar    1  UNL1        0.0090
     16 C           9.7918    3.0758    0.7517 C.ar    1  UNL1       -0.0336
     17 C           9.4548    4.0351   -0.2083 C.ar    1  UNL1        0.0417
     18 CL         10.7028    4.8749   -1.0484 Cl      1  UNL1       -0.0835
     19 C           8.1267    4.3240   -0.4998 C.ar    1  UNL1       -0.0414
     20 C           7.0923    3.6582    0.1610 C.ar    1  UNL1       -0.0362
     21 C           7.4324    2.6932    1.1231 C.ar    1  UNL1        0.0502
     22 H           0.7327   -0.7350   -0.6258 H       1  UNL1        0.1405
     23 H           0.6855    0.8317   -0.1331 H       1  UNL1        0.1405
     24 H           3.0220   -0.6774   -0.4473 H       1  UNL1        0.1687
     25 H           4.9561    1.0494   -0.0965 H       1  UNL1        0.0376
     26 H           4.9452   -0.1631    1.1982 H       1  UNL1        0.0376
     27 H           4.8340    1.6952    2.9182 H       1  UNL1        0.0496
     28 H           4.8402    2.8902    1.6401 H       1  UNL1        0.0496
     29 H           5.9936   -0.0817    3.9064 H       1  UNL1        0.0639
     30 H           7.7747   -1.2896    5.1171 H       1  UNL1        0.0633
     31 H          10.8018    0.8783    2.9517 H       1  UNL1        0.0639
     32 H          10.8339    2.8609    0.9696 H       1  UNL1        0.0639
     33 H           7.8805    5.0747   -1.2469 H       1  UNL1        0.0633
     34 H           6.0582    3.8933   -0.0704 H       1  UNL1        0.0639
@<TRIPOS>BOND
     1     1     2    1
     2     2     3   am
     3     3     4    2
     4     3     5    1
     5     5     6    1
     6     6     7    1
     7     7     8   ar
     8     8     9   ar
     9     9    10   ar
    10    10    11   ar
    11    11    12    1
    12    11    13   ar
    13    13    14   ar
    14     8    14   ar
    15    14    15   ar
    16    15    16   ar
    17    16    17   ar
    18    17    18    1
    19    17    19   ar
    20    19    20   ar
    21    20    21   ar
    22    15    21   ar
    23     7    21   ar
    24     1    22    1
    25     1    23    1
    26     2    24    1
    27     5    25    1
    28     5    26    1
    29     6    27    1
    30     6    28    1
    31     9    29    1
    32    10    30    1
    33    13    31    1
    34    16    32    1
    35    19    33    1
    36    20    34    1
