@<TRIPOS>MOLECULE
*****
 38 40 0 0 0
SMALL
GASTEIGER

@<TRIPOS>ATOM
      1 C           0.9172    0.1242    0.0584 C.3     1  UNL1       -0.0635
      2 C           2.4409    0.0019    0.0323 C.3     1  UNL1       -0.0352
      3 CA          2.9679   -1.4457    0.2088 C.3     1  UNL1        0.0464
      4 C           2.4341   -2.3798   -0.9120 C.3     1  UNL1        0.0626
      5 O           1.0194   -2.5311   -0.9236 O.3     1  UNL1       -0.3932
      6 N           4.4457   -1.4738    0.2781 N.am    1  UNL1       -0.3024
      7 C           5.1605   -2.6575    0.4697 C.2     1  UNL1        0.3020
      8 O           4.5742   -3.7361    0.6034 O.2     1  UNL1       -0.2649
      9 C           6.6078   -2.5613    0.4710 C.ar    1  UNL1        0.3136
     10 N           7.3618   -1.6523    1.0579 N.ar    1  UNL1       -0.1831
     11 C           8.6382   -2.1177    0.7937 C.ar    1  UNL1        0.2032
     12 C           9.8223   -1.4430    1.2896 C.ar    1  UNL1        0.0316
     13 C          10.0716   -1.3036    2.6642 C.ar    1  UNL1       -0.0502
     14 C          11.1901   -0.6007    3.1166 C.ar    1  UNL1       -0.0591
     15 C          12.0827   -0.0051    2.2184 C.ar    1  UNL1       -0.0378
     16 C          11.8374   -0.1778    0.8496 C.ar    1  UNL1        0.0471
     17 N          12.5486    0.2654   -0.2452 N.ar    1  UNL1       -0.3606
     18 C          11.9668   -0.1834   -1.4004 C.ar    1  UNL1        0.0028
     19 C          10.8321   -0.8780   -1.0569 C.ar    1  UNL1       -0.0360
     20 C          10.7372   -0.8930    0.3645 C.ar    1  UNL1        0.0104
     21 N           8.6759   -3.2223    0.0307 N.ar    1  UNL1       -0.0555
     22 O           7.3292   -3.5354   -0.1584 O.2     1  UNL1       -0.3276
     23 H           0.6031    1.1692   -0.0103 H       1  UNL1        0.0230
     24 H           0.5065   -0.3032    0.9790 H       1  UNL1        0.0230
     25 H           0.4502   -0.3720   -0.7954 H       1  UNL1        0.0230
     26 H           2.8452    0.6404    0.8283 H       1  UNL1        0.0281
     27 H           2.8117    0.4175   -0.9130 H       1  UNL1        0.0281
     28 HA          2.6085   -1.8149    1.1786 H       1  UNL1        0.0521
     29 H1          2.8321   -3.3897   -0.8240 H       1  UNL1        0.0575
     30 H2          2.7457   -1.9937   -1.8879 H       1  UNL1        0.0575
     31 H           0.7293   -2.7272   -0.0165 H       1  UNL1        0.2095
     32 H           4.9747   -0.6136    0.1677 H       1  UNL1        0.1495
     33 H           9.3954   -1.7542    3.3873 H       1  UNL1        0.0625
     34 H          11.3709   -0.5109    4.1861 H       1  UNL1        0.0618
     35 H          12.9411    0.5552    2.5782 H       1  UNL1        0.0638
     36 H          13.3932    0.8190   -0.1981 H       1  UNL1        0.1653
     37 H          12.4048    0.0249   -2.3669 H       1  UNL1        0.0807
     38 H          10.1496   -1.3563   -1.7474 H       1  UNL1        0.0639
@<TRIPOS>BOND
     1     1     2    1
     2     2     3    1
     3     3     4    1
     4     4     5    1
     5     3     6    1
     6     6     7   am
     7     7     8    2
     8     7     9    1
     9     9    10   ar
    10    10    11   ar
    11    11    12    1
    12    12    13   ar
    13    13    14   ar
    14    14    15   ar
    15    15    16   ar
    16    16    17   ar
    17    17    18   ar
    18    18    19   ar
    19    19    20   ar
    20    12    20   ar
    21    16    20   ar
    22    11    21   ar
    23    21    22   ar
    24     9    22   ar
    25     1    23    1
    26     1    24    1
    27     1    25    1
    28     2    26    1
    29     2    27    1
    30     3    28    1
    31     4    29    1
    32     4    30    1
    33     5    31    1
    34     6    32    1
    35    13    33    1
    36    14    34    1
    37    15    35    1
    38    17    36    1
    39    18    37    1
    40    19    38    1
