REMARK  9 active torsions:
REMARK  status: ('A' for Active; 'I' for Inactive)
REMARK    1  A    between atoms: C_3  and  N_4 
REMARK       I    between atoms: N_4  and  C_5 
REMARK    2  A    between atoms: C_5  and  C_7 
REMARK    3  A    between atoms: C_12  and  N_13 
REMARK       I    between atoms: N_13  and  C_14 
REMARK    4  A    between atoms: C_14  and  C_16 
REMARK    5  A    between atoms: C_19  and  N_20 
REMARK    6  A    between atoms: N_20  and  C_21 
REMARK    7  A    between atoms: C_21  and  C_22 
REMARK    8  A    between atoms: C_22  and  O_23 
REMARK    9  A    between atoms: C_25  and  N_26 
ROOT
ATOM      1  C   UNL d   1       0.907   0.034  -0.016  0.00  0.00     0.014 C 
ATOM      2  C   UNL d   1       2.211   0.034  -0.016  0.00  0.00    -0.098 C 
ATOM      3  C   UNL d   1       3.731   0.034  -0.016  0.00  0.00     0.216 C 
ENDROOT
BRANCH   3   4
ATOM      4  N   UNL d   1       4.277  -1.006   0.866  0.00  0.00    -0.346 N 
ATOM      5  C   UNL d   1       5.633  -1.316   0.795  0.00  0.00     0.254 C 
ATOM      6  O   UNL d   1       6.480  -0.502   0.431  0.00  0.00    -0.268 OA
ATOM      7  H   UNL d   1       3.656  -1.742   1.160  0.00  0.00     0.163 HD
BRANCH   5   8
ATOM      8  C   UNL d   1       6.080  -2.716   1.141  0.00  0.00     0.058 A 
ATOM      9  C   UNL d   1       7.270  -2.794   1.897  0.00  0.00     0.019 A 
ATOM     10  C   UNL d   1       7.904  -4.016   2.144  0.00  0.00     0.001 A 
ATOM     11  C   UNL d   1       7.327  -5.196   1.692  0.00  0.00     0.002 A 
ATOM     12  C   UNL d   1       6.129  -5.150   0.972  0.00  0.00     0.030 A 
ATOM     13  C   UNL d   1       5.497  -3.921   0.671  0.00  0.00     0.050 A 
BRANCH  13  14
ATOM     14  N   UNL d   1       4.297  -4.011  -0.090  0.00  0.00    -0.322 N 
ATOM     15  C   UNL d   1       3.932  -3.041  -1.011  0.00  0.00     0.256 C 
ATOM     16  O   UNL d   1       4.712  -2.271  -1.521  0.00  0.00    -0.267 OA
ATOM     17  H   UNL d   1       3.928  -4.939  -0.259  0.00  0.00     0.169 HD
BRANCH  15  18
ATOM     18  C   UNL d   1       2.502  -2.942  -1.406  0.00  0.00     0.034 C 
ATOM     19  C   UNL d   1       2.170  -1.941  -2.314  0.00  0.00     0.019 C 
ATOM     20  C   UNL d   1       0.859  -1.781  -2.747  0.00  0.00     0.032 C 
ATOM     21  C   UNL d   1      -0.163  -2.685  -2.377  0.00  0.00     0.061 C 
ATOM     22  C   UNL d   1       0.160  -3.635  -1.352  0.00  0.00     0.130 C 
ATOM     23  C   UNL d   1       1.490  -3.715  -0.864  0.00  0.00     0.055 C 
BRANCH  21  24
ATOM     24  N   UNL d   1      -1.343  -2.466  -3.086  0.00  0.00    -0.386 N 
ATOM     25  H   UNL d   1      -1.332  -1.823  -3.874  0.00  0.00     0.159 HD
BRANCH  24  26
ATOM     26  C   UNL d   1      -2.420  -3.415  -3.023  0.00  0.00     0.146 C 
BRANCH  26  27
ATOM     27  C   UNL d   1      -3.564  -3.222  -3.977  0.00  0.00     0.186 C 
BRANCH  27  28
ATOM     28  O   UNL d   1      -4.516  -4.242  -3.652  0.00  0.00    -0.394 OA
ATOM     29  C   UNL d   1      -5.678  -4.108  -4.441  0.00  0.00     0.201 C 
ENDBRANCH  27  28
ENDBRANCH  26  27
ENDBRANCH  24  26
ENDBRANCH  21  24
BRANCH  22  30
ATOM     30  N   UNL d   1      -0.732  -4.640  -0.680  0.00  0.00    -0.113 N 
ATOM     31  O   UNL d   1      -1.926  -4.741  -0.943  0.00  0.00    -0.532 OA
ATOM     32  O   UNL d   1      -0.205  -5.381   0.166  0.00  0.00    -0.532 OA
ENDBRANCH  22  30
ENDBRANCH  15  18
ENDBRANCH  13  14
ENDBRANCH   5   8
ENDBRANCH   3   4
TORSDOF 9
