@<TRIPOS>MOLECULE
*****
 40 42 0 0 0
SMALL
GASTEIGER

@<TRIPOS>ATOM
      1 O          -1.5496   -0.0934    0.7073 O.3     1  UNL1       -0.3899
      2 C          -0.8147    0.0252   -0.5096 C.3     1  UNL1        0.0752
      3 C           0.1418   -1.1316   -0.6133 C.3     1  UNL1       -0.0066
      4 C           1.2522   -0.7925    0.3766 C.3     1  UNL1        0.0248
      5 N           2.5404   -1.3532   -0.0175 N.pl3   1  UNL1       -0.3408
      6 C           2.7732   -2.7124   -0.1704 C.ar    1  UNL1        0.0273
      7 C           3.8280   -3.3298    0.5129 C.ar    1  UNL1       -0.0408
      8 C           4.1285   -4.6841    0.2962 C.ar    1  UNL1       -0.0600
      9 C           3.3568   -5.4497   -0.5692 C.ar    1  UNL1       -0.0616
     10 C           2.2929   -4.8606   -1.2388 C.ar    1  UNL1       -0.0600
     11 C           2.0245   -3.5065   -1.0400 C.ar    1  UNL1       -0.0408
     12 C           1.2736    0.7561    0.4308 C.3     1  UNL1       -0.0137
     13 C           0.1444    1.2182   -0.5136 C.3     1  UNL1        0.0483
     14 N          -0.4000    2.5229   -0.1323 N.pl3   1  UNL1       -0.3384
     15 C          -1.4923    3.0682   -0.8101 C.ar    1  UNL1        0.0274
     16 C          -1.4216    4.4209   -1.1575 C.ar    1  UNL1       -0.0408
     17 C          -2.4922    5.0679   -1.7853 C.ar    1  UNL1       -0.0600
     18 C          -3.6524    4.3692   -2.0916 C.ar    1  UNL1       -0.0616
     19 C          -3.7657    3.0364   -1.7158 C.ar    1  UNL1       -0.0600
     20 C          -2.7069    2.4159   -1.0421 C.ar    1  UNL1       -0.0408
     21 H          -2.1593   -0.8448    0.6031 H       1  UNL1        0.2099
     22 H          -1.4956    0.0189   -1.3651 H       1  UNL1        0.0612
     23 H           0.5250   -1.1663   -1.6406 H       1  UNL1        0.0309
     24 H          -0.3401   -2.0819   -0.3637 H       1  UNL1        0.0309
     25 H           0.9897   -1.1670    1.3751 H       1  UNL1        0.0499
     26 H           3.3323   -0.7369   -0.1512 H       1  UNL1        0.1463
     27 H           4.4216   -2.7670    1.2258 H       1  UNL1        0.0636
     28 H           4.9773   -5.1381    0.8036 H       1  UNL1        0.0618
     29 H           3.5798   -6.4997   -0.7357 H       1  UNL1        0.0618
     30 H           1.6856   -5.4297   -1.9328 H       1  UNL1        0.0618
     31 H           1.2318   -3.0873   -1.6467 H       1  UNL1        0.0636
     32 H           2.2343    1.1904    0.1331 H       1  UNL1        0.0302
     33 H           1.0824    1.0830    1.4616 H       1  UNL1        0.0302
     34 H           0.5774    1.3251   -1.5178 H       1  UNL1        0.0523
     35 H          -0.4128    2.7200    0.8648 H       1  UNL1        0.1464
     36 H          -0.5068    4.9706   -0.9601 H       1  UNL1        0.0636
     37 H          -2.4084    6.1221   -2.0350 H       1  UNL1        0.0618
     38 H          -4.4745    4.8608   -2.6039 H       1  UNL1        0.0618
     39 H          -4.6759    2.4825   -1.9232 H       1  UNL1        0.0618
     40 H          -2.8927    1.4076   -0.6937 H       1  UNL1        0.0636
@<TRIPOS>BOND
     1     1     2    1
     2     2     3    1
     3     3     4    1
     4     4     5    1
     5     5     6    1
     6     6     7   ar
     7     7     8   ar
     8     8     9   ar
     9     9    10   ar
    10    10    11   ar
    11     6    11   ar
    12     4    12    1
    13    12    13    1
    14     2    13    1
    15    13    14    1
    16    14    15    1
    17    15    16   ar
    18    16    17   ar
    19    17    18   ar
    20    18    19   ar
    21    19    20   ar
    22    15    20   ar
    23     1    21    1
    24     2    22    1
    25     3    23    1
    26     3    24    1
    27     4    25    1
    28     5    26    1
    29     7    27    1
    30     8    28    1
    31     9    29    1
    32    10    30    1
    33    11    31    1
    34    12    32    1
    35    12    33    1
    36    13    34    1
    37    14    35    1
    38    16    36    1
    39    17    37    1
    40    18    38    1
    41    19    39    1
    42    20    40    1
