REMARK  6 active torsions:
REMARK  status: ('A' for Active; 'I' for Inactive)
REMARK    1  A    between atoms: C_2  and  C_3 
REMARK       I    between atoms: C_2  and  N_13 
REMARK    2  A    between atoms: C_3  and  C_4 
REMARK    3  A    between atoms: C_7  and  N_8 
REMARK    4  A    between atoms: N_13  and  N_14 
REMARK       I    between atoms: N_14  and  C_15 
REMARK       I    between atoms: C_15  and  N_17 
REMARK    5  A    between atoms: N_17  and  C_18 
REMARK    6  A    between atoms: C_18  and  C_19 
ROOT
ATOM      1  O   UNL d   1       1.171   0.142  -0.236  0.00  0.00    -0.272 OA
ATOM      2  C   UNL d   1       2.397   0.054  -0.141  0.00  0.00     0.240 C 
ATOM      3  N   UNL d   1       3.191   0.916  -0.871  0.00  0.00    -0.266 N 
ATOM      4  H   UNL d   1       2.707   1.591  -1.468  0.00  0.00     0.190 HD
ENDROOT
BRANCH   2   5
ATOM      5  C   UNL d   1       3.080  -0.965   0.755  0.00  0.00     0.143 C 
BRANCH   5   6
ATOM      6  C   UNL d   1       2.166  -1.886   1.553  0.00  0.00    -0.049 A 
ATOM      7  C   UNL d   1       1.208  -1.376   2.447  0.00  0.00     0.010 A 
ATOM      8  C   UNL d   1       0.476  -2.231   3.280  0.00  0.00     0.036 A 
ATOM      9  C   UNL d   1       0.643  -3.615   3.166  0.00  0.00     0.102 A 
ATOM     10  C   UNL d   1       1.581  -4.143   2.272  0.00  0.00     0.036 A 
ATOM     11  C   UNL d   1       2.338  -3.278   1.475  0.00  0.00     0.010 A 
BRANCH   9  12
ATOM     12  N   UNL d   1      -0.211  -4.520   3.946  0.00  0.00    -0.116 N 
ATOM     13  O   UNL d   1      -1.042  -4.015   4.713  0.00  0.00    -0.532 OA
ATOM     14  O   UNL d   1      -0.059  -5.740   3.781  0.00  0.00    -0.532 OA
ENDBRANCH   9  12
ENDBRANCH   5   6
ENDBRANCH   2   5
BRANCH   3  15
ATOM     15  N   UNL d   1       4.605   0.958  -0.915  0.00  0.00    -0.249 N 
ATOM     16  C   UNL d   1       5.206   1.901  -1.739  0.00  0.00     0.334 C 
ATOM     17  O   UNL d   1       4.552   2.696  -2.416  0.00  0.00    -0.246 OA
ATOM     18  N   UNL d   1       6.585   1.869  -1.736  0.00  0.00    -0.341 N 
ATOM     19  H   UNL d   1       7.079   1.212  -1.154  0.00  0.00     0.164 HD
ATOM     20  H   UNL d   1       5.144   0.313  -0.356  0.00  0.00     0.192 HD
BRANCH  18  21
ATOM     21  C   UNL d   1       7.352   2.810  -2.545  0.00  0.00     0.129 C 
BRANCH  21  22
ATOM     22  C   UNL d   1       8.840   2.619  -2.409  0.00  0.00     0.003 A 
ATOM     23  C   UNL d   1       9.649   1.982  -3.518  0.00  0.00     0.007 A 
ATOM     24  C   UNL d   1       9.774   3.457  -3.264  0.00  0.00     0.007 A 
ENDBRANCH  21  22
ENDBRANCH  18  21
ENDBRANCH   3  15
TORSDOF 6
