@<TRIPOS>MOLECULE
*****
 33 34 0 0 0
SMALL
GASTEIGER

@<TRIPOS>ATOM
      1 O           1.0355    0.0066   -0.1065 O.2     1  UNL1       -0.2754
      2 C           2.2668   -0.0850   -0.0373 C.2     1  UNL1        0.2183
      3 C           2.9569   -1.1079    0.8668 C.3     1  UNL1        0.0248
      4 C           1.9981   -1.9963    1.6420 C.3     1  UNL1       -0.0365
      5 C           2.7220   -3.0469    2.5118 C.3     1  UNL1        0.0248
      6 C           1.6914   -3.9237    3.2073 C.2     1  UNL1        0.2183
      7 O           0.4859   -3.7388    3.0092 O.2     1  UNL1       -0.2754
      8 N           2.1842   -4.8963    4.0549 N.am    1  UNL1       -0.2690
      9 C           1.3145   -5.7773    4.6765 C.ar    1  UNL1        0.1465
     10 C           0.1327   -6.3109    4.1098 C.ar    1  UNL1       -0.0023
     11 C          -0.4133   -7.1182    5.0723 C.ar    1  UNL1        0.0242
     12 N           0.4155   -7.0063    6.1470 N.ar    1  UNL1       -0.2829
     13 N           1.5304   -6.2793    5.8972 N.ar    1  UNL1       -0.1586
     14 N           3.0482    0.8092   -0.7219 N.am    1  UNL1       -0.2690
     15 C           4.4191    0.8003   -0.8025 C.ar    1  UNL1        0.1465
     16 C           5.2603   -0.3249   -0.9332 C.ar    1  UNL1       -0.0023
     17 C           6.5398    0.1598   -0.8859 C.ar    1  UNL1        0.0242
     18 N           6.4105    1.5113   -0.7929 N.ar    1  UNL1       -0.2829
     19 N           5.1294    1.9302   -0.8239 N.ar    1  UNL1       -0.1586
     20 H           3.6061   -0.5675    1.5664 H       1  UNL1        0.0358
     21 H           3.5522   -1.7782    0.2510 H       1  UNL1        0.0358
     22 H           1.3436   -2.5091    0.9245 H       1  UNL1        0.0274
     23 H           1.3473   -1.3759    2.2700 H       1  UNL1        0.0274
     24 H           3.3540   -2.5507    3.2564 H       1  UNL1        0.0358
     25 H           3.3581   -3.6808    1.8820 H       1  UNL1        0.0358
     26 H           3.1205   -4.8625    4.4325 H       1  UNL1        0.1563
     27 H          -0.2436   -6.1383    3.1123 H       1  UNL1        0.0667
     28 H          -1.3039   -7.7300    5.0794 H       1  UNL1        0.0824
     29 H           0.2925   -7.4249    7.0641 H       1  UNL1        0.1882
     30 H           2.5812    1.6264   -1.0926 H       1  UNL1        0.1563
     31 H           4.9811   -1.3569   -1.0704 H       1  UNL1        0.0667
     32 H           7.4979   -0.3362   -0.9287 H       1  UNL1        0.0824
     33 H           7.1502    2.2033   -0.7285 H       1  UNL1        0.1882
@<TRIPOS>BOND
     1     1     2    2
     2     2     3    1
     3     3     4    1
     4     4     5    1
     5     5     6    1
     6     6     7    2
     7     6     8   am
     8     8     9    1
     9     9    10   ar
    10    10    11   ar
    11    11    12   ar
    12    12    13   ar
    13     9    13   ar
    14     2    14   am
    15    14    15    1
    16    15    16   ar
    17    16    17   ar
    18    17    18   ar
    19    18    19   ar
    20    15    19   ar
    21     3    20    1
    22     3    21    1
    23     4    22    1
    24     4    23    1
    25     5    24    1
    26     5    25    1
    27     8    26    1
    28    10    27    1
    29    11    28    1
    30    12    29    1
    31    14    30    1
    32    16    31    1
    33    17    32    1
    34    18    33    1
