REMARK  11 active torsions:
REMARK  status: ('A' for Active; 'I' for Inactive)
REMARK    1  A    between atoms: C_2  and  O_3 
REMARK    2  A    between atoms: O_3  and  C_4 
REMARK    3  A    between atoms: C_4  and  C_6 
REMARK    4  A    between atoms: C_9  and  N_10 
REMARK       I    between atoms: N_10  and  C_11 
REMARK    5  A    between atoms: C_11  and  C_13 
REMARK    6  A    between atoms: C_13  and  S_14 
REMARK    7  A    between atoms: S_14  and  C_15 
REMARK    8  A    between atoms: C_18  and  C_19 
REMARK    9  A    between atoms: C_19  and  N_20 
REMARK   10  A    between atoms: N_20  and  C_21 
REMARK   11  A    between atoms: N_29  and  C_30 
ROOT
ATOM      1  C   UNL d   1       5.001   8.042  -9.516  0.00  0.00     0.196 A 
ATOM      2  N   UNL d   1       4.814   9.310  -9.826  0.00  0.00    -0.122 NA
ATOM      3  N   UNL d   1       5.062   9.473 -11.175  0.00  0.00    -0.132 NA
ATOM      4  C   UNL d   1       5.379   8.293 -11.677  0.00  0.00     0.153 A 
ATOM      5  N   UNL d   1       5.414   7.372 -10.634  0.00  0.00    -0.274 N 
ENDROOT
BRANCH   1   6
ATOM      6  S   UNL d   1       4.705   7.338  -7.951  0.00  0.00    -0.080 SA
BRANCH   6   7
ATOM      7  C   UNL d   1       5.701   5.768  -7.731  0.00  0.00     0.185 C 
BRANCH   7   8
ATOM      8  C   UNL d   1       5.283   5.074  -6.427  0.00  0.00     0.231 C 
ATOM      9  N   UNL d   1       5.966   3.894  -6.068  0.00  0.00    -0.327 N 
ATOM     10  H   UNL d   1       6.652   3.502  -6.707  0.00  0.00     0.169 HD
ATOM     11  O   UNL d   1       4.337   5.535  -5.789  0.00  0.00    -0.272 OA
BRANCH   9  12
ATOM     12  C   UNL d   1       5.656   3.114  -4.896  0.00  0.00     0.034 A 
ATOM     13  C   UNL d   1       6.303   1.898  -4.612  0.00  0.00     0.030 A 
ATOM     14  C   UNL d   1       5.891   1.097  -3.507  0.00  0.00     0.020 A 
ATOM     15  C   UNL d   1       4.864   1.524  -2.650  0.00  0.00     0.039 A 
ATOM     16  C   UNL d   1       4.274   2.754  -2.892  0.00  0.00     0.020 A 
ATOM     17  C   UNL d   1       4.675   3.523  -3.986  0.00  0.00     0.030 A 
BRANCH  15  18
ATOM     18  C   UNL d   1       4.467   0.776  -1.428  0.00  0.00     0.293 C 
ATOM     19  O   UNL d   1       5.284   0.258  -0.668  0.00  0.00    -0.259 OA
BRANCH  18  20
ATOM     20  O   UNL d   1       3.114   0.763  -1.277  0.00  0.00    -0.318 OA
BRANCH  20  21
ATOM     21  C   UNL d   1       2.636   0.074  -0.104  0.00  0.00     0.174 C 
ATOM     22  C   UNL d   1       1.113   0.068  -0.087  0.00  0.00     0.034 C 
ENDBRANCH  20  21
ENDBRANCH  18  20
ENDBRANCH  15  18
ENDBRANCH   9  12
ENDBRANCH   7   8
ENDBRANCH   6   7
ENDBRANCH   1   6
BRANCH   5  23
ATOM     23  C   UNL d   1       5.669   6.000 -10.732  0.00  0.00     0.043 C 
ATOM     24  C   UNL d   1       6.913   5.578 -11.211  0.00  0.00     0.030 C 
ATOM     25  C   UNL d   1       7.034   4.261 -11.636  0.00  0.00     0.002 C 
ATOM     26  C   UNL d   1       5.994   3.353 -11.420  0.00  0.00     0.000 C 
ATOM     27  C   UNL d   1       4.778   3.774 -10.876  0.00  0.00     0.002 C 
ATOM     28  C   UNL d   1       4.586   5.118 -10.585  0.00  0.00     0.030 C 
ENDBRANCH   5  23
BRANCH   4  29
ATOM     29  C   UNL d   1       5.625   7.995 -13.138  0.00  0.00     0.201 C 
BRANCH  29  30
ATOM     30  N   UNL d   1       5.737   6.596 -13.473  0.00  0.00    -0.382 N 
ATOM     31  H   UNL d   1       5.251   5.994 -12.837  0.00  0.00     0.160 HD
BRANCH  30  32
ATOM     32  C   UNL d   1       6.125   5.888 -14.575  0.00  0.00     0.040 A 
ATOM     33  C   UNL d   1       5.435   4.672 -14.845  0.00  0.00    -0.035 A 
ATOM     34  C   UNL d   1       4.209   4.226 -14.075  0.00  0.00     0.050 C 
ATOM     35  C   UNL d   1       5.827   3.875 -15.922  0.00  0.00     0.009 A 
ATOM     36  C   UNL d   1       6.804   4.331 -16.797  0.00  0.00     0.001 A 
ATOM     37  C   UNL d   1       7.479   5.522 -16.540  0.00  0.00     0.009 A 
ATOM     38  C   UNL d   1       7.165   6.296 -15.418  0.00  0.00    -0.035 A 
ATOM     39  C   UNL d   1       7.966   7.530 -15.133  0.00  0.00     0.050 C 
ENDBRANCH  30  32
ENDBRANCH  29  30
ENDBRANCH   4  29
TORSDOF 11
