@<TRIPOS>MOLECULE
*****
 30 31 0 0 0
SMALL
GASTEIGER

@<TRIPOS>ATOM
      1 O           0.9282    0.0398   -0.0331 O.2     1  UNL1       -0.2687
      2 C           2.1580    0.1066   -0.0341 C.2     1  UNL1        0.2601
      3 N           2.8799    0.7861   -1.0110 N.am    1  UNL1       -0.2301
      4 N           2.1947    1.4353   -2.0742 N.am    1  UNL1       -0.2300
      5 C           2.9195    2.0278   -3.1001 C.2     1  UNL1        0.2629
      6 O           4.1494    2.0022   -3.1551 O.2     1  UNL1       -0.2686
      7 C           2.1528    2.6648   -4.2113 C.ar    1  UNL1        0.0733
      8 C           2.5352    2.4189   -5.5411 C.ar    1  UNL1       -0.0454
      9 C           1.8128    2.9783   -6.6070 C.ar    1  UNL1       -0.0425
     10 C           0.7329    3.8210   -6.3485 C.ar    1  UNL1        0.0437
     11 CL         -0.1632    4.4901   -7.6577 Cl      1  UNL1       -0.0835
     12 C           0.3775    4.1173   -5.0350 C.ar    1  UNL1       -0.0074
     13 C           1.0857    3.5340   -3.9771 C.ar    1  UNL1        0.1369
     14 F           0.7257    3.8482   -2.7254 F       1  UNL1       -0.2047
     15 C           2.9600   -0.6126    1.0090 C.ar    1  UNL1        0.0382
     16 C           4.1493   -0.0690    1.5095 C.ar    1  UNL1       -0.0496
     17 C           4.9777   -0.8317    2.3421 C.ar    1  UNL1       -0.0610
     18 C           4.5825   -2.1033    2.7562 C.ar    1  UNL1       -0.0617
     19 C           3.3596   -2.6198    2.3305 C.ar    1  UNL1       -0.0610
     20 C           2.5467   -1.8759    1.4631 C.ar    1  UNL1       -0.0496
     21 H           3.8945    0.7336   -1.0935 H       1  UNL1        0.1731
     22 H           1.1772    1.3911   -2.0460 H       1  UNL1        0.1731
     23 H           3.3896    1.7802   -5.7574 H       1  UNL1        0.0626
     24 H           2.0938    2.7515   -7.6341 H       1  UNL1        0.0632
     25 H          -0.4459    4.7944   -4.8250 H       1  UNL1        0.0661
     26 H           4.4378    0.9501    1.2683 H       1  UNL1        0.0625
     27 H           5.9422   -0.4398    2.6569 H       1  UNL1        0.0618
     28 H           5.2239   -2.6859    3.4153 H       1  UNL1        0.0618
     29 H           3.0544   -3.6134    2.6544 H       1  UNL1        0.0618
     30 H           1.6024   -2.3003    1.1281 H       1  UNL1        0.0625
@<TRIPOS>BOND
     1     1     2    2
     2     2     3   am
     3     3     4    1
     4     4     5   am
     5     5     6    2
     6     5     7    1
     7     7     8   ar
     8     8     9   ar
     9     9    10   ar
    10    10    11    1
    11    10    12   ar
    12    12    13   ar
    13     7    13   ar
    14    13    14    1
    15     2    15    1
    16    15    16   ar
    17    16    17   ar
    18    17    18   ar
    19    18    19   ar
    20    19    20   ar
    21    15    20   ar
    22     3    21    1
    23     4    22    1
    24     8    23    1
    25     9    24    1
    26    12    25    1
    27    16    26    1
    28    17    27    1
    29    18    28    1
    30    19    29    1
    31    20    30    1
