@<TRIPOS>MOLECULE
*****
 39 41 0 0 0
SMALL
GASTEIGER

@<TRIPOS>ATOM
      1 O           1.1037   -0.0248    0.0718 O.2     1  UNL1       -0.2630
      2 C           2.3471   -0.0193    0.0705 C.2     1  UNL1        0.3219
      3 N           3.1081    0.9165    0.7281 N.am    1  UNL1       -0.1864
      4 O           2.3821    1.9324    1.4113 O.3     1  UNL1       -0.2748
      5 C           3.2903    2.8475    2.0197 C.3     1  UNL1        0.0983
      6 C           2.5822    3.9412    2.7750 C.ar    1  UNL1       -0.0197
      7 C           2.8526    5.2848    2.4786 C.ar    1  UNL1       -0.0563
      8 C           2.3978    6.2991    3.3207 C.ar    1  UNL1       -0.0614
      9 C           1.5843    5.9898    4.4081 C.ar    1  UNL1       -0.0617
     10 C           1.2562    4.6620    4.6767 C.ar    1  UNL1       -0.0614
     11 C           1.7578    3.6400    3.8680 C.ar    1  UNL1       -0.0563
     12 C           3.0982   -1.1160   -0.7207 C.2     1  UNL1        0.3052
     13 O           2.4366   -1.9660   -1.3390 O.2     1  UNL1       -0.2648
     14 N           4.4876   -1.1306   -0.6613 N.am    1  UNL1       -0.2777
     15 C           5.2864   -2.0330   -1.4006 C.ar    1  UNL1        0.0345
     16 C           6.3697   -2.6657   -0.7616 C.ar    1  UNL1       -0.0401
     17 C           7.0686   -3.6582   -1.4539 C.ar    1  UNL1       -0.0546
     18 C           6.6781   -3.8906   -2.7690 C.ar    1  UNL1       -0.0181
     19 C           5.9825   -2.9460   -3.5110 C.ar    1  UNL1        0.0431
     20 C           5.0550   -2.2342   -2.7798 C.ar    1  UNL1       -0.0280
     21 C           5.9222   -3.5425   -4.9046 C.2     1  UNL1        0.2447
     22 O           6.6370   -3.3469   -5.8708 O.2     1  UNL1       -0.2702
     23 N           5.5530   -4.8266   -4.5987 N.am    1  UNL1       -0.3072
     24 C           6.6366   -5.1301   -3.6262 C.3     1  UNL1        0.0379
     25 H           4.1146    0.9767    0.7259 H       1  UNL1        0.1829
     26 H           3.9355    3.2794    1.2452 H       1  UNL1        0.0634
     27 H           3.9307    2.3079    2.7294 H       1  UNL1        0.0634
     28 H           3.4404    5.5499    1.6028 H       1  UNL1        0.0621
     29 H           2.6947    7.3287    3.1390 H       1  UNL1        0.0618
     30 H           1.2032    6.7852    5.0430 H       1  UNL1        0.0618
     31 H           0.6308    4.4206    5.5326 H       1  UNL1        0.0618
     32 H           1.5174    2.6053    4.1041 H       1  UNL1        0.0621
     33 H           4.9795   -0.5815    0.0254 H       1  UNL1        0.1553
     34 H           6.5752   -2.5071    0.2984 H       1  UNL1        0.0636
     35 H           7.8529   -4.2295   -0.9617 H       1  UNL1        0.0622
     36 H           4.1390   -1.8982   -3.2486 H       1  UNL1        0.0644
     37 H           4.5726   -4.7169   -4.3088 H       1  UNL1        0.1493
     38 H           7.5865   -5.1029   -4.1703 H       1  UNL1        0.0512
     39 H           6.5159   -6.1039   -3.1555 H       1  UNL1        0.0512
@<TRIPOS>BOND
     1     1     2    2
     2     2     3   am
     3     3     4    1
     4     4     5    1
     5     5     6    1
     6     6     7   ar
     7     7     8   ar
     8     8     9   ar
     9     9    10   ar
    10    10    11   ar
    11     6    11   ar
    12     2    12    1
    13    12    13    2
    14    12    14   am
    15    14    15    1
    16    15    16   ar
    17    16    17   ar
    18    17    18   ar
    19    18    19   ar
    20    19    20   ar
    21    15    20   ar
    22    19    21    1
    23    21    22    2
    24    21    23   am
    25    23    24    1
    26    18    24    1
    27     3    25    1
    28     5    26    1
    29     5    27    1
    30     7    28    1
    31     8    29    1
    32     9    30    1
    33    10    31    1
    34    11    32    1
    35    14    33    1
    36    16    34    1
    37    17    35    1
    38    20    36    1
    39    23    37    1
    40    24    38    1
    41    24    39    1
