@<TRIPOS>MOLECULE
*****
 29 29 0 0 0
SMALL
GASTEIGER

@<TRIPOS>ATOM
      1 C           0.9578   -0.0790    0.0011 C.3     1  UNL1       -0.0622
      2 C           2.4927   -0.0423   -0.0088 C.3     1  UNL1       -0.0384
      3 C           2.9341    1.1685   -0.8384 C.3     1  UNL1       -0.0622
      4 C           3.0845    0.0008    1.4237 C.3     1  UNL1        0.0277
      5 C           4.6215   -0.0519    1.4428 C.2     1  UNL1        0.2293
      6 O           5.3067   -0.1930    0.4285 O.2     1  UNL1       -0.2743
      7 N           5.2250    0.0754    2.6818 N.am    1  UNL1       -0.2341
      8 N           6.6508    0.1043    2.7274 N.am    1  UNL1       -0.2299
      9 C           7.3248    0.1020    3.9435 C.2     1  UNL1        0.2668
     10 O           6.6946    0.0786    5.0075 O.2     1  UNL1       -0.2681
     11 C           8.7851    0.1448    3.8598 C.ar    1  UNL1        0.0753
     12 C           9.5969    0.8944    3.0237 C.ar    1  UNL1       -0.0425
     13 C          10.9914    0.6958    3.2716 C.ar    1  UNL1       -0.0540
     14 C          11.2115   -0.2131    4.2816 C.ar    1  UNL1       -0.0236
     15 S           9.7393   -0.7828    4.9512 S.2     1  UNL1       -0.0921
     16 H           0.5669   -0.1363   -1.0233 H       1  UNL1        0.0232
     17 H           0.5408    0.8249    0.4589 H       1  UNL1        0.0232
     18 H           0.5769   -0.9474    0.5467 H       1  UNL1        0.0232
     19 H           2.8445   -0.9556   -0.5068 H       1  UNL1        0.0300
     20 H           2.5794    2.0999   -0.3856 H       1  UNL1        0.0232
     21 H           2.5384    1.1076   -1.8576 H       1  UNL1        0.0232
     22 H           4.0200    1.2368   -0.9274 H       1  UNL1        0.0232
     23 H           2.7072   -0.8583    1.9931 H       1  UNL1        0.0361
     24 H           2.7435    0.9105    1.9329 H       1  UNL1        0.0361
     25 H           4.7309    0.1146    3.5716 H       1  UNL1        0.1728
     26 H           7.1262    0.0126    1.8301 H       1  UNL1        0.1731
     27 H           9.2151    1.5919    2.2897 H       1  UNL1        0.0630
     28 H          11.7929    1.1991    2.7417 H       1  UNL1        0.0623
     29 H          12.1673   -0.5512    4.6663 H       1  UNL1        0.0693
@<TRIPOS>BOND
     1     1     2    1
     2     2     3    1
     3     2     4    1
     4     4     5    1
     5     5     6    2
     6     5     7   am
     7     7     8    1
     8     8     9   am
     9     9    10    2
    10     9    11    1
    11    11    12   ar
    12    12    13   ar
    13    13    14   ar
    14    14    15   ar
    15    11    15   ar
    16     1    16    1
    17     1    17    1
    18     1    18    1
    19     2    19    1
    20     3    20    1
    21     3    21    1
    22     3    22    1
    23     4    23    1
    24     4    24    1
    25     7    25    1
    26     8    26    1
    27    12    27    1
    28    13    28    1
    29    14    29    1
