@<TRIPOS>MOLECULE
*****
 57 59 0 0 0
SMALL
GASTEIGER

@<TRIPOS>ATOM
      1 C           1.1802   -0.0012    0.0505 C.2     1  UNL1       -0.1012
      2 C           2.5267    0.0237    0.0388 C.2     1  UNL1       -0.0742
      3 C           3.2937    1.1949   -0.5110 C.3     1  UNL1        0.0288
      4 N           4.7625    1.0506   -0.4453 N.am    1  UNL1       -0.3219
      5 C           5.6472    2.0333   -0.9060 C.2     1  UNL1        0.1470
      6 S           5.1387    3.4870   -1.5893 S.2     1  UNL1       -0.0174
      7 N           7.0081    1.7297   -0.7674 N.am    1  UNL1       -0.2458
      8 N           8.0331    2.6799   -1.2049 N.am    1  UNL1       -0.2345
      9 C           9.3981    2.4049   -1.0677 C.2     1  UNL1        0.2393
     10 O           9.7678    1.3266   -0.5834 O.2     1  UNL1       -0.2734
     11 C          10.3859    3.5261   -1.5757 C.3     1  UNL1        0.0791
     12 S          12.1409    3.0658   -1.2769 S.3     1  UNL1       -0.0763
     13 C          13.2157    4.2548   -2.0021 C.ar    1  UNL1        0.1968
     14 N          13.1132    5.5674   -1.9765 N.ar    1  UNL1       -0.1218
     15 N          14.3087    6.1080   -2.4622 N.ar    1  UNL1       -0.1279
     16 C          15.1300    5.1181   -2.7744 C.ar    1  UNL1        0.1695
     17 C          16.4092    5.1975   -3.5309 C.ar    1  UNL1        0.0233
     18 C          17.5456    5.8475   -3.0451 C.ar    1  UNL1       -0.0473
     19 C          18.7364    5.8633   -3.8012 C.ar    1  UNL1       -0.0156
     20 C          18.8429    5.1745   -5.0223 C.ar    1  UNL1        0.1615
     21 O          20.0949    5.2259   -5.5924 O.3     1  UNL1       -0.4915
     22 C          20.3275    4.4451   -6.7649 C.3     1  UNL1        0.0790
     23 C          17.7089    4.5179   -5.5203 C.ar    1  UNL1        0.1622
     24 O          17.8091    3.8856   -6.7285 O.3     1  UNL1       -0.4914
     25 C          16.6681    3.2397   -7.2628 C.3     1  UNL1        0.0790
     26 C          16.5181    4.5433   -4.7741 C.ar    1  UNL1       -0.0056
     27 N          14.4941    3.9211   -2.4373 N.ar    1  UNL1       -0.2703
     28 C          15.0574    2.6463   -2.6502 C.ar    1  UNL1        0.0505
     29 C          16.3555    2.3915   -2.1882 C.ar    1  UNL1       -0.0377
     30 C          17.0067    1.2329   -2.5925 C.ar    1  UNL1       -0.0598
     31 C          16.3428    0.3138   -3.4041 C.ar    1  UNL1       -0.0616
     32 C          15.0469    0.5726   -3.8575 C.ar    1  UNL1       -0.0598
     33 C          14.3976    1.7466   -3.4893 C.ar    1  UNL1       -0.0377
     34 H           0.6228   -0.8467    0.4479 H       1  UNL1        0.0532
     35 H           0.5847    0.8240   -0.3368 H       1  UNL1        0.0532
     36 H           3.0537   -0.8342    0.4421 H       1  UNL1        0.0582
     37 H           3.0178    2.0919    0.0551 H       1  UNL1        0.0505
     38 H           3.0164    1.3330   -1.5623 H       1  UNL1        0.0505
     39 H           5.1278    0.1995   -0.0409 H       1  UNL1        0.1481
     40 H           7.3609    0.8682   -0.3529 H       1  UNL1        0.1718
     41 H           7.6720    3.5461   -1.6017 H       1  UNL1        0.1728
     42 H          10.1696    4.4555   -1.0417 H       1  UNL1        0.0476
     43 H          10.2261    3.6688   -2.6490 H       1  UNL1        0.0476
     44 H          17.5351    6.3226   -2.0668 H       1  UNL1        0.0626
     45 H          19.5970    6.4198   -3.4306 H       1  UNL1        0.0655
     46 H          21.3816    4.5289   -7.0461 H       1  UNL1        0.0660
     47 H          19.7481    4.8315   -7.6107 H       1  UNL1        0.0660
     48 H          20.1341    3.3804   -6.5849 H       1  UNL1        0.0660
     49 H          16.9397    2.8520   -8.2489 H       1  UNL1        0.0660
     50 H          15.8442    3.9465   -7.3985 H       1  UNL1        0.0660
     51 H          16.3787    2.3926   -6.6345 H       1  UNL1        0.0660
     52 H          15.6468    4.0150   -5.1449 H       1  UNL1        0.0662
     53 H          16.8716    3.0893   -1.5306 H       1  UNL1        0.0638
     54 H          18.0352    1.0555   -2.2886 H       1  UNL1        0.0618
     55 H          16.8414   -0.6088   -3.6878 H       1  UNL1        0.0618
     56 H          14.5531   -0.1318   -4.5209 H       1  UNL1        0.0618
     57 H          13.4226    1.9738   -3.9135 H       1  UNL1        0.0638
@<TRIPOS>BOND
     1     1     2    2
     2     2     3    1
     3     3     4    1
     4     4     5    1
     5     5     6    2
     6     5     7    1
     7     7     8    1
     8     8     9   am
     9     9    10    2
    10     9    11    1
    11    11    12    1
    12    12    13    1
    13    13    14   ar
    14    14    15   ar
    15    15    16   ar
    16    16    17    1
    17    17    18   ar
    18    18    19   ar
    19    19    20   ar
    20    20    21    1
    21    21    22    1
    22    20    23   ar
    23    23    24    1
    24    24    25    1
    25    23    26   ar
    26    17    26   ar
    27    16    27   ar
    28    13    27   ar
    29    27    28    1
    30    28    29   ar
    31    29    30   ar
    32    30    31   ar
    33    31    32   ar
    34    32    33   ar
    35    28    33   ar
    36     1    34    1
    37     1    35    1
    38     2    36    1
    39     3    37    1
    40     3    38    1
    41     4    39    1
    42     7    40    1
    43     8    41    1
    44    11    42    1
    45    11    43    1
    46    18    44    1
    47    19    45    1
    48    22    46    1
    49    22    47    1
    50    22    48    1
    51    25    49    1
    52    25    50    1
    53    25    51    1
    54    26    52    1
    55    29    53    1
    56    30    54    1
    57    31    55    1
    58    32    56    1
    59    33    57    1
