@<TRIPOS>MOLECULE
*****
 50 50 0 0 0
SMALL
GASTEIGER

@<TRIPOS>ATOM
      1 C           0.9851    0.0921    0.0337 C.3     1  UNL1       -0.0653
      2 C           2.5066    0.0997    0.0226 C.3     1  UNL1       -0.0559
      3 C           3.0514    0.9019   -1.1631 C.3     1  UNL1       -0.0519
      4 C           4.5881    0.9170   -1.1813 C.3     1  UNL1       -0.0373
      5 C           5.1438    1.7222   -2.3652 C.3     1  UNL1        0.0131
      6 N           6.6092    1.7625   -2.4163 N.am    1  UNL1       -0.2982
      7 C           7.2804    2.3920   -3.4480 C.2     1  UNL1        0.3160
      8 O           6.7029    3.0033   -4.3455 O.2     1  UNL1       -0.2513
      9 N           8.6630    2.2132   -3.4393 N.am    1  UNL1       -0.2180
     10 N           9.4206    2.7617   -4.5392 N.am    1  UNL1       -0.2290
     11 C          10.8082    2.9218   -4.4485 C.2     1  UNL1        0.2669
     12 O          11.4946    2.3980   -3.5759 O.2     1  UNL1       -0.2684
     13 C          11.4829    3.7989   -5.4902 C.ar    1  UNL1        0.1187
     14 C          12.6422    3.3195   -6.1724 C.ar    1  UNL1        0.0024
     15 C          13.3597    4.1210   -7.1136 C.ar    1  UNL1        0.1627
     16 O          14.5301    3.5760   -7.6098 O.3     1  UNL1       -0.4914
     17 C          15.3835    4.4286   -8.3948 C.3     1  UNL1        0.0790
     18 C          12.8573    5.3842   -7.4574 C.ar    1  UNL1        0.1683
     19 O          13.4430    6.0673   -8.4853 O.3     1  UNL1       -0.4884
     20 C          12.9321    7.3280   -8.8999 C.3     1  UNL1        0.0870
     21 C          13.7499    7.8106  -10.0878 C.3     1  UNL1       -0.0307
     22 C          11.7675    5.8816   -6.7501 C.ar    1  UNL1        0.0617
     23 C          11.0922    5.1162   -5.7688 C.ar    1  UNL1        0.2890
     24 N          10.0007    5.8143   -5.0751 N.pl3   1  UNL1        0.0805
     25 O           9.6375    6.9014   -5.5319 O.2     1  UNL1        0.0415
     26 O           9.4969    5.2933   -4.0737 O.co2   1  UNL1       -0.5760
     27 H           0.6112   -0.4841    0.8861 H       1  UNL1        0.0230
     28 H           0.5899   -0.3602   -0.8816 H       1  UNL1        0.0230
     29 H           0.5898    1.1099    0.1120 H       1  UNL1        0.0230
     30 H           2.8701   -0.9334   -0.0253 H       1  UNL1        0.0263
     31 H           2.8699    0.5290    0.9636 H       1  UNL1        0.0263
     32 H           2.6702    1.9291   -1.1088 H       1  UNL1        0.0266
     33 H           2.6718    0.4677   -2.0966 H       1  UNL1        0.0266
     34 H           4.9564   -0.1152   -1.2291 H       1  UNL1        0.0280
     35 H           4.9550    1.3420   -0.2395 H       1  UNL1        0.0280
     36 H           4.7760    2.7539   -2.3194 H       1  UNL1        0.0462
     37 H           4.7826    1.2895   -3.3063 H       1  UNL1        0.0462
     38 H           7.1351    1.2641   -1.7151 H       1  UNL1        0.1503
     39 H           9.1888    1.9094   -2.6267 H       1  UNL1        0.1744
     40 H           8.8636    3.4167   -5.0858 H       1  UNL1        0.1732
     41 H          13.0025    2.3056   -5.9826 H       1  UNL1        0.0665
     42 H          16.3370    3.9274   -8.5869 H       1  UNL1        0.0660
     43 H          15.6254    5.3671   -7.8754 H       1  UNL1        0.0660
     44 H          14.9386    4.6149   -9.3797 H       1  UNL1        0.0660
     45 H          13.0344    8.0490   -8.0833 H       1  UNL1        0.0694
     46 H          11.8847    7.2309   -9.2037 H       1  UNL1        0.0694
     47 H          14.8111    7.8890   -9.8276 H       1  UNL1        0.0262
     48 H          13.3964    8.7902  -10.4218 H       1  UNL1        0.0262
     49 H          13.6812    7.1078  -10.9254 H       1  UNL1        0.0262
     50 H          11.4342    6.8950   -6.9497 H       1  UNL1        0.0724
@<TRIPOS>UNITY_ATOM_ATTR
24 1
charge 1
26 1
charge -1
@<TRIPOS>BOND
     1     1     2    1
     2     2     3    1
     3     3     4    1
     4     4     5    1
     5     5     6    1
     6     6     7   am
     7     7     8    2
     8     7     9   am
     9     9    10    1
    10    10    11   am
    11    11    12    2
    12    11    13    1
    13    13    14   ar
    14    14    15   ar
    15    15    16    1
    16    16    17    1
    17    15    18   ar
    18    18    19    1
    19    19    20    1
    20    20    21    1
    21    18    22   ar
    22    22    23   ar
    23    13    23   ar
    24    23    24    1
    25    24    25    2
    26    24    26    1
    27     1    27    1
    28     1    28    1
    29     1    29    1
    30     2    30    1
    31     2    31    1
    32     3    32    1
    33     3    33    1
    34     4    34    1
    35     4    35    1
    36     5    36    1
    37     5    37    1
    38     6    38    1
    39     9    39    1
    40    10    40    1
    41    14    41    1
    42    17    42    1
    43    17    43    1
    44    17    44    1
    45    20    45    1
    46    20    46    1
    47    21    47    1
    48    21    48    1
    49    21    49    1
    50    22    50    1
