REMARK  13 active torsions:
REMARK  status: ('A' for Active; 'I' for Inactive)
REMARK    1  A    between atoms: C_2  and  C_3 
REMARK    2  A    between atoms: C_3  and  C_4 
REMARK    3  A    between atoms: C_4  and  C_5 
REMARK    4  A    between atoms: C_5  and  C_6 
REMARK    5  A    between atoms: C_6  and  N_7 
REMARK       I    between atoms: N_7  and  C_8 
REMARK    6  A    between atoms: N_7  and  C_17 
REMARK    7  A    between atoms: C_8  and  C_10 
REMARK    8  A    between atoms: C_17  and  C_18 
REMARK    9  A    between atoms: C_17  and  C_27 
REMARK       I    between atoms: C_18  and  N_20 
REMARK   10  A    between atoms: N_20  and  C_21 
REMARK   11  A    between atoms: C_28  and  O_29 
REMARK   12  A    between atoms: C_31  and  O_32 
REMARK   13  A    between atoms: C_34  and  O_35 
ROOT
ATOM      1  C   UNL d   1       8.395  -0.851   4.581  0.00  0.00     0.218 C 
ENDROOT
BRANCH   1   2
ATOM      2  N   UNL d   1       6.913  -0.884   4.289  0.00  0.00    -0.330 N 
ATOM      3  C   UNL d   1       5.998  -1.138   5.371  0.00  0.00     0.254 C 
ATOM      4  O   UNL d   1       6.290  -1.265   6.546  0.00  0.00    -0.267 OA
BRANCH   2   5
ATOM      5  C   UNL d   1       6.567  -0.497   2.900  0.00  0.00     0.127 C 
BRANCH   5   6
ATOM      6  C   UNL d   1       5.122  -0.326   2.608  0.00  0.00     0.020 C 
BRANCH   6   7
ATOM      7  C   UNL d   1       4.625  -0.040   1.229  0.00  0.00     0.002 C 
BRANCH   7   8
ATOM      8  C   UNL d   1       3.098  -0.132   1.309  0.00  0.00    -0.000 C 
BRANCH   8   9
ATOM      9  C   UNL d   1       2.489   0.134  -0.039  0.00  0.00    -0.005 C 
ATOM     10  C   UNL d   1       0.978   0.080   0.040  0.00  0.00     0.005 C 
ENDBRANCH   8   9
ENDBRANCH   7   8
ENDBRANCH   6   7
ENDBRANCH   5   6
ENDBRANCH   2   5
BRANCH   3  11
ATOM     11  C   UNL d   1       4.531  -1.261   5.228  0.00  0.00     0.032 C 
ATOM     12  C   UNL d   1       3.912  -2.181   4.382  0.00  0.00     0.020 C 
ATOM     13  C   UNL d   1       2.573  -1.976   4.036  0.00  0.00     0.043 C 
ATOM     14  C   UNL d   1       1.820  -1.029   4.718  0.00  0.00     0.116 C 
ATOM     15  F   UNL d   1       0.550  -0.813   4.354  0.00  0.00    -0.206 F 
ATOM     16  C   UNL d   1       2.374  -0.303   5.762  0.00  0.00     0.043 C 
ATOM     17  C   UNL d   1       3.743  -0.397   6.002  0.00  0.00     0.020 C 
ENDBRANCH   3  11
ENDBRANCH   1   2
BRANCH   1  18
ATOM     18  C   UNL d   1       9.243   0.399   4.137  0.00  0.00     0.245 C 
ATOM     19  O   UNL d   1      10.196   0.729   4.832  0.00  0.00    -0.271 OA
ATOM     20  N   UNL d   1       9.109   0.969   2.873  0.00  0.00    -0.354 N 
ATOM     21  H   UNL d   1       8.751   0.424   2.102  0.00  0.00     0.162 HD
BRANCH  20  22
ATOM     22  C   UNL d   1       9.725   2.261   2.525  0.00  0.00     0.084 C 
ATOM     23  C   UNL d   1       8.758   3.436   2.765  0.00  0.00     0.025 C 
ATOM     24  C   UNL d   1       9.453   4.787   2.551  0.00  0.00     0.002 C 
ATOM     25  C   UNL d   1      10.727   4.917   3.381  0.00  0.00     0.000 C 
ATOM     26  C   UNL d   1      11.711   3.807   3.035  0.00  0.00     0.002 C 
ATOM     27  C   UNL d   1      11.047   2.482   3.266  0.00  0.00     0.025 C 
ENDBRANCH  20  22
ENDBRANCH   1  18
BRANCH   1  28
ATOM     28  C   UNL d   1       8.764  -1.238   6.027  0.00  0.00     0.040 C 
ATOM     29  C   UNL d   1       8.729  -2.575   6.466  0.00  0.00     0.080 C 
ATOM     30  C   UNL d   1       8.893  -2.892   7.820  0.00  0.00     0.073 C 
ATOM     31  C   UNL d   1       9.197  -1.889   8.737  0.00  0.00     0.071 C 
ATOM     32  C   UNL d   1       9.279  -0.570   8.342  0.00  0.00     0.073 C 
ATOM     33  C   UNL d   1       8.970  -0.250   7.027  0.00  0.00     0.080 C 
BRANCH  29  34
ATOM     34  O   UNL d   1       8.404  -3.628   5.649  0.00  0.00    -0.360 OA
ATOM     35  H   UNL d   1       8.051  -3.290   4.813  0.00  0.00     0.217 HD
ENDBRANCH  29  34
BRANCH  31  36
ATOM     36  O   UNL d   1       9.359  -2.138  10.068  0.00  0.00    -0.361 OA
ATOM     37  H   UNL d   1       9.179  -3.077  10.225  0.00  0.00     0.217 HD
ENDBRANCH  31  36
BRANCH  33  38
ATOM     38  O   UNL d   1       8.736   1.082   6.778  0.00  0.00    -0.360 OA
ATOM     39  H   UNL d   1       9.411   1.583   7.271  0.00  0.00     0.217 HD
ENDBRANCH  33  38
ENDBRANCH   1  28
TORSDOF 13
