REMARK  5 active torsions:
REMARK  status: ('A' for Active; 'I' for Inactive)
REMARK    1  A    between atoms: C_2  and  C_4 
REMARK    2  A    between atoms: C_4  and  C_5 
REMARK       I    between atoms: C_5  and  N_7 
REMARK    3  A    between atoms: N_7  and  N_8 
REMARK       I    between atoms: N_8  and  C_9 
REMARK    4  A    between atoms: C_9  and  C_11 
REMARK    5  A    between atoms: C_14  and  C_15 
ROOT
ATOM      1  C   UNL d   1       8.813  -1.853  -3.485  0.00  0.00     0.145 A 
ATOM      2  C   UNL d   1       9.620  -2.205  -2.415  0.00  0.00     0.046 A 
ATOM      3  C   UNL d   1      10.964  -2.096  -2.839  0.00  0.00     0.041 A 
ATOM      4  C   UNL d   1      10.943  -1.669  -4.150  0.00  0.00     0.086 A 
ATOM      5  O   UNL d   1       9.634  -1.527  -4.563  0.00  0.00    -0.304 OA
ENDROOT
BRANCH   1   6
ATOM      6  C   UNL d   1       7.349  -1.840  -3.597  0.00  0.00     0.293 C 
ATOM      7  N   UNL d   1       6.663  -1.361  -2.477  0.00  0.00    -0.262 N 
ATOM      8  H   UNL d   1       7.133  -0.921  -1.686  0.00  0.00     0.190 HD
ATOM      9  O   UNL d   1       6.724  -2.260  -4.579  0.00  0.00    -0.264 OA
BRANCH   7  10
ATOM     10  N   UNL d   1       5.231  -1.330  -2.432  0.00  0.00    -0.267 N 
ATOM     11  C   UNL d   1       4.628  -0.703  -1.351  0.00  0.00     0.236 C 
ATOM     12  O   UNL d   1       5.315  -0.157  -0.486  0.00  0.00    -0.272 OA
ATOM     13  H   UNL d   1       4.731  -1.731  -3.223  0.00  0.00     0.190 HD
BRANCH  11  14
ATOM     14  C   UNL d   1       3.088  -0.741  -1.306  0.00  0.00     0.108 C 
BRANCH  14  15
ATOM     15  C   UNL d   1       2.495  -0.110  -0.019  0.00  0.00    -0.014 C 
ATOM     16  C   UNL d   1       0.960  -0.080  -0.043  0.00  0.00     0.010 C 
ATOM     17  C   UNL d   1       2.935  -0.869   1.238  0.00  0.00     0.010 C 
ENDBRANCH  14  15
ENDBRANCH  11  14
ENDBRANCH   7  10
ENDBRANCH   1   6
BRANCH   4  18
ATOM     18  C   UNL d   1      12.047  -1.386  -5.076  0.00  0.00    -0.002 A 
ATOM     19  C   UNL d   1      13.037  -2.362  -5.310  0.00  0.00     0.016 A 
ATOM     20  C   UNL d   1      14.182  -2.078  -6.071  0.00  0.00     0.024 A 
ATOM     21  C   UNL d   1      14.361  -0.803  -6.597  0.00  0.00     0.034 A 
ATOM     22 CL   UNL d   1      15.773  -0.444  -7.516  0.00  0.00    -0.084 Cl
ATOM     23  C   UNL d   1      13.402   0.183  -6.370  0.00  0.00     0.024 A 
ATOM     24  C   UNL d   1      12.252  -0.107  -5.614  0.00  0.00     0.016 A 
ENDBRANCH   4  18
TORSDOF 5
