REMARK  4 active torsions:
REMARK  status: ('A' for Active; 'I' for Inactive)
REMARK    1  A    between atoms: C_6  and  C_7 
REMARK       I    between atoms: C_7  and  N_9 
REMARK    2  A    between atoms: N_9  and  N_10 
REMARK       I    between atoms: N_10  and  C_11 
REMARK    3  A    between atoms: C_11  and  C_13 
REMARK    4  A    between atoms: C_14  and  C_15 
ROOT
ATOM      1  N   UNL d   1      -1.788   5.067   0.042  0.00  0.00    -0.264 N 
ATOM      2  C   UNL d   1      -1.011   6.219   0.056  0.00  0.00     0.259 C 
ATOM      3  O   UNL d   1       0.220   6.192   0.059  0.00  0.00    -0.267 OA
ATOM      4  H   UNL d   1      -2.806   5.045   0.040  0.00  0.00     0.190 HD
ENDROOT
BRANCH   1   5
ATOM      5  N   UNL d   1      -1.132   3.805   0.029  0.00  0.00    -0.263 N 
ATOM      6  C   UNL d   1      -1.863   2.619   0.013  0.00  0.00     0.270 C 
ATOM      7  O   UNL d   1      -3.096   2.618   0.009  0.00  0.00    -0.266 OA
ATOM      8  H   UNL d   1      -0.118   3.859   0.036  0.00  0.00     0.190 HD
BRANCH   6   9
ATOM      9  C   UNL d   1      -1.101   1.310   0.004  0.00  0.00     0.034 A 
ATOM     10  C   UNL d   1      -1.809   0.092  -0.005  0.00  0.00     0.017 A 
ATOM     11  C   UNL d   1      -1.134  -1.140  -0.001  0.00  0.00     0.002 A 
ATOM     12  C   UNL d   1       0.259  -1.176   0.004  0.00  0.00     0.007 A 
ATOM     13  C   UNL d   1       0.984   0.018   0.002  0.00  0.00    -0.061 A 
ATOM     14  C   UNL d   1       2.485   0.004  -0.013  0.00  0.00     0.048 C 
ATOM     15  C   UNL d   1       0.300   1.250   0.004  0.00  0.00     0.024 A 
ENDBRANCH   6   9
ENDBRANCH   1   5
BRANCH   2  16
ATOM     16  C   UNL d   1      -1.780   7.503   0.068  0.00  0.00     0.076 C 
ATOM     17  C   UNL d   1      -1.189   8.719   0.085  0.00  0.00     0.017 C 
BRANCH  17  18
ATOM     18  C   UNL d   1      -1.902  10.028   0.110  0.00  0.00    -0.036 A 
ATOM     19  C   UNL d   1      -1.193  11.245   0.115  0.00  0.00     0.011 A 
ATOM     20  C   UNL d   1      -1.867  12.480   0.157  0.00  0.00     0.001 A 
ATOM     21  C   UNL d   1      -3.258  12.520   0.194  0.00  0.00     0.000 A 
ATOM     22  C   UNL d   1      -3.974  11.331   0.181  0.00  0.00     0.001 A 
ATOM     23  C   UNL d   1      -3.303  10.105   0.141  0.00  0.00     0.011 A 
ENDBRANCH  17  18
ENDBRANCH   2  16
TORSDOF 4
