@<TRIPOS>MOLECULE
*****
 59 61 0 0 0
SMALL
GASTEIGER

@<TRIPOS>ATOM
      1 C           0.9542   -0.1486   -0.0564 C.3     1  UNL1       -0.0466
      2 C           2.4937   -0.1051   -0.0258 C.3     1  UNL1        0.0210
      3 C           2.9440    0.5415    1.2851 C.3     1  UNL1       -0.0308
      4 C           2.4745    1.9830    1.4650 C.3     1  UNL1       -0.0260
      5 C           2.9414    2.6057    2.7556 C.ar    1  UNL1       -0.0471
      6 C           3.4936    1.8555    3.8072 C.ar    1  UNL1       -0.0551
      7 C           3.8366    2.4577    5.0135 C.ar    1  UNL1       -0.0199
      8 C           3.6294    3.8207    5.1681 C.ar    1  UNL1        0.1169
      9 O           3.9447    4.4608    6.3279 O.3     1  UNL1       -0.5068
     10 C           3.0872    4.5829    4.1406 C.ar    1  UNL1       -0.0199
     11 C           2.7445    3.9792    2.9341 C.ar    1  UNL1       -0.0551
     12 N           3.0994   -1.4482   -0.1475 N.am    1  UNL1       -0.3050
     13 C           4.4927   -1.6600   -0.0947 C.2     1  UNL1        0.2995
     14 O           5.3427   -0.8046   -0.1970 O.2     1  UNL1       -0.2652
     15 C           4.9326   -3.1407    0.1452 C.2     1  UNL1        0.3031
     16 O           4.0620   -3.9511    0.4668 O.2     1  UNL1       -0.2648
     17 N           6.3004   -3.4337    0.0150 N.am    1  UNL1       -0.2777
     18 C           6.8688   -4.7489   -0.0584 C.ar    1  UNL1        0.0342
     19 C           8.0547   -5.1462    0.5013 C.ar    1  UNL1       -0.0404
     20 C           8.5736   -6.4369    0.2051 C.ar    1  UNL1       -0.0596
     21 C           7.9714   -7.3031   -0.7382 C.ar    1  UNL1       -0.0534
     22 C           6.8167   -6.8833   -1.3730 C.ar    1  UNL1       -0.0012
     23 C           6.1252   -7.5875   -2.5266 C.3     1  UNL1       -0.0059
     24 N           4.9774   -6.8224   -3.2835 N.4     1  UNL1        0.2385
     25 C           5.3614   -5.5513   -4.0560 C.3     1  UNL1       -0.0314
     26 C           4.9316   -4.3906   -3.1851 C.3     1  UNL1       -0.0077
     27 C           3.6873   -4.9296   -2.4711 C.3     1  UNL1       -0.0077
     28 C           3.7538   -6.4641   -2.4521 C.3     1  UNL1       -0.0314
     29 C           6.2796   -5.7019   -0.8643 C.ar    1  UNL1       -0.0323
     30 H           0.5216    0.8597   -0.0196 H       1  UNL1        0.0247
     31 H           0.5530   -0.6969    0.8055 H       1  UNL1        0.0247
     32 H           0.5740   -0.6159   -0.9667 H       1  UNL1        0.0247
     33 H           2.8511    0.4907   -0.8726 H       1  UNL1        0.0496
     34 H           4.0373    0.5381    1.3497 H       1  UNL1        0.0286
     35 H           2.5793   -0.0832    2.1113 H       1  UNL1        0.0286
     36 H           1.3806    2.0355    1.4769 H       1  UNL1        0.0314
     37 H           2.8278    2.5834    0.6164 H       1  UNL1        0.0314
     38 H           3.6621    0.7863    3.7169 H       1  UNL1        0.0621
     39 H           4.2479    1.8428    5.8070 H       1  UNL1        0.0654
     40 H           4.3298    3.8174    6.9440 H       1  UNL1        0.2921
     41 H           2.9222    5.6458    4.2830 H       1  UNL1        0.0654
     42 H           2.3113    4.5824    2.1390 H       1  UNL1        0.0621
     43 H           2.4975   -2.2566   -0.0332 H       1  UNL1        0.1494
     44 H           6.9289   -2.6327    0.0255 H       1  UNL1        0.1553
     45 H           8.5251   -4.5245    1.2541 H       1  UNL1        0.0636
     46 H           9.4764   -6.7648    0.7169 H       1  UNL1        0.0618
     47 H           8.4066   -8.2857   -0.9255 H       1  UNL1        0.0622
     48 H           5.6815   -8.5327   -2.1875 H       1  UNL1        0.0867
     49 H           6.8541   -7.8323   -3.3131 H       1  UNL1        0.0867
     50 H           4.6574   -7.5026   -3.9841 H       1  UNL1        0.2037
     51 H           4.7547   -5.5368   -4.9661 H       1  UNL1        0.0814
     52 H           6.4263   -5.5684   -4.3027 H       1  UNL1        0.0814
     53 H           4.7255   -3.4475   -3.6976 H       1  UNL1        0.0319
     54 H           5.7766   -4.1067   -2.5499 H       1  UNL1        0.0319
     55 H           2.7659   -4.5342   -2.8939 H       1  UNL1        0.0319
     56 H           3.6287   -4.6008   -1.4460 H       1  UNL1        0.0319
     57 H           2.8642   -6.9026   -2.9078 H       1  UNL1        0.0814
     58 H           3.8650   -6.8973   -1.4476 H       1  UNL1        0.0814
     59 H           5.3106   -5.4523   -1.1578 H       1  UNL1        0.0641
@<TRIPOS>UNITY_ATOM_ATTR
24 1
charge 1
@<TRIPOS>BOND
     1     1     2    1
     2     2     3    1
     3     3     4    1
     4     4     5    1
     5     5     6   ar
     6     6     7   ar
     7     7     8   ar
     8     8     9    1
     9     8    10   ar
    10    10    11   ar
    11     5    11   ar
    12     2    12    1
    13    12    13   am
    14    13    14    2
    15    13    15    1
    16    15    16    2
    17    15    17   am
    18    17    18    1
    19    18    19   ar
    20    19    20   ar
    21    20    21   ar
    22    21    22   ar
    23    22    23    1
    24    23    24    1
    25    24    25    1
    26    25    26    1
    27    26    27    1
    28    27    28    1
    29    24    28    1
    30    22    29   ar
    31    18    29   ar
    32     1    30    1
    33     1    31    1
    34     1    32    1
    35     2    33    1
    36     3    34    1
    37     3    35    1
    38     4    36    1
    39     4    37    1
    40     6    38    1
    41     7    39    1
    42     9    40    1
    43    10    41    1
    44    11    42    1
    45    12    43    1
    46    17    44    1
    47    19    45    1
    48    20    46    1
    49    21    47    1
    50    23    48    1
    51    23    49    1
    52    24    50    1
    53    25    51    1
    54    25    52    1
    55    26    53    1
    56    26    54    1
    57    27    55    1
    58    27    56    1
    59    28    57    1
    60    28    58    1
    61    29    59    1
