REMARK  5 active torsions:
REMARK  status: ('A' for Active; 'I' for Inactive)
REMARK    1  A    between atoms: C_2  and  C_4 
REMARK    2  A    between atoms: C_4  and  C_5 
REMARK    3  A    between atoms: C_5  and  C_6 
REMARK       I    between atoms: C_6  and  N_8 
REMARK    4  A    between atoms: N_8  and  N_9 
REMARK       I    between atoms: N_9  and  C_10 
REMARK    5  A    between atoms: C_10  and  C_12 
ROOT
ATOM      1  C   UNL d   1       5.053   2.549  -1.650  0.00  0.00     0.236 C 
ATOM      2  O   UNL d   1       4.280   3.329  -2.206  0.00  0.00    -0.272 OA
ATOM      3  N   UNL d   1       6.427   2.697  -1.744  0.00  0.00    -0.268 N 
ATOM      4  H   UNL d   1       7.109   2.066  -1.327  0.00  0.00     0.190 HD
ENDROOT
BRANCH   3   5
ATOM      5  N   UNL d   1       6.930   3.792  -2.496  0.00  0.00    -0.267 N 
ATOM      6  C   UNL d   1       8.292   3.989  -2.619  0.00  0.00     0.240 C 
ATOM      7  O   UNL d   1       9.118   3.265  -2.062  0.00  0.00    -0.271 OA
ATOM      8  H   UNL d   1       6.233   4.363  -2.967  0.00  0.00     0.190 HD
BRANCH   6   9
ATOM      9  C   UNL d   1       8.769   5.096  -3.524  0.00  0.00     0.083 A 
ATOM     10  C   UNL d   1       8.985   6.498  -2.978  0.00  0.00     0.019 A 
ATOM     11  C   UNL d   1       7.902   6.256  -3.998  0.00  0.00    -0.005 A 
ATOM     12  C   UNL d   1       7.978   6.855  -5.369  0.00  0.00     0.011 C 
ENDBRANCH   6   9
ENDBRANCH   3   5
BRANCH   1  13
ATOM     13  C   UNL d   1       4.579   1.354  -0.827  0.00  0.00     0.105 C 
BRANCH  13  14
ATOM     14  C   UNL d   1       3.042   1.266  -0.781  0.00  0.00     0.013 C 
BRANCH  14  15
ATOM     15  C   UNL d   1       2.503   0.072   0.030  0.00  0.00    -0.022 C 
ATOM     16  C   UNL d   1       0.970   0.089   0.049  0.00  0.00     0.009 C 
ATOM     17  C   UNL d   1       2.981  -1.259  -0.549  0.00  0.00     0.009 C 
ENDBRANCH  14  15
ENDBRANCH  13  14
ENDBRANCH   1  13
TORSDOF 5
