@<TRIPOS>MOLECULE
*****
 29 31 0 0 0
SMALL
GASTEIGER

@<TRIPOS>ATOM
      1 O           0.8221   -0.0430    0.0221 O.2     1  UNL1       -0.2693
      2 C           2.0506   -0.0200    0.0699 C.2     1  UNL1        0.2543
      3 N           2.8140   -1.2020    0.1136 N.am    1  UNL1       -0.2811
      4 C           2.1990   -2.4640    0.1472 C.ar    1  UNL1        0.0338
      5 C           1.1001   -2.7200   -0.6791 C.ar    1  UNL1       -0.0391
      6 C           0.4093   -3.9233   -0.5962 C.ar    1  UNL1       -0.0416
      7 C           0.8224   -4.8816    0.3204 C.ar    1  UNL1        0.0411
      8 CL         -0.0607   -6.3523    0.4568 Cl      1  UNL1       -0.0835
      9 C           1.9419   -4.6564    1.1258 C.ar    1  UNL1       -0.0416
     10 C           2.6511   -3.4517    1.0237 C.ar    1  UNL1       -0.0391
     11 C           2.8415    1.2001    0.0675 C.ar    1  UNL1        0.0676
     12 S           4.1779    1.2886   -1.0015 S.2     1  UNL1       -0.0843
     13 C           4.5006    2.9234   -0.5950 C.ar    1  UNL1        0.0195
     14 C           5.5257    3.7191   -1.1358 C.ar    1  UNL1       -0.0474
     15 C           5.6689    5.0309   -0.6870 C.ar    1  UNL1       -0.0607
     16 C           4.8073    5.5459    0.2720 C.ar    1  UNL1       -0.0612
     17 C           3.7827    4.7526    0.7973 C.ar    1  UNL1       -0.0541
     18 C           3.6154    3.4096    0.3684 C.ar    1  UNL1       -0.0178
     19 C           2.6748    2.3933    0.7409 C.ar    1  UNL1       -0.0808
     20 O           1.7445    2.5952    1.6596 O.co2   1  UNL1       -0.8724
     21 H           3.7792   -1.0932    0.3936 H       1  UNL1        0.1551
     22 H           0.7675   -1.9665   -1.3903 H       1  UNL1        0.0636
     23 H          -0.4536   -4.0799   -1.2346 H       1  UNL1        0.0633
     24 H           2.2471   -5.4037    1.8526 H       1  UNL1        0.0633
     25 H           3.4878   -3.2663    1.6918 H       1  UNL1        0.0636
     26 H           6.1908    3.3075   -1.8862 H       1  UNL1        0.0629
     27 H           6.4630    5.6469   -1.0950 H       1  UNL1        0.0618
     28 H           4.9227    6.5666    0.6214 H       1  UNL1        0.0618
     29 H           3.0974    5.1485    1.5437 H       1  UNL1        0.0624
@<TRIPOS>UNITY_ATOM_ATTR
20 1
charge -1
@<TRIPOS>BOND
     1     1     2    2
     2     2     3   am
     3     3     4    1
     4     4     5   ar
     5     5     6   ar
     6     6     7   ar
     7     7     8    1
     8     7     9   ar
     9     9    10   ar
    10     4    10   ar
    11     2    11    1
    12    11    12   ar
    13    12    13   ar
    14    13    14   ar
    15    14    15   ar
    16    15    16   ar
    17    16    17   ar
    18    17    18   ar
    19    13    18   ar
    20    18    19   ar
    21    11    19   ar
    22    19    20    1
    23     3    21    1
    24     5    22    1
    25     6    23    1
    26     9    24    1
    27    10    25    1
    28    14    26    1
    29    15    27    1
    30    16    28    1
    31    17    29    1
