REMARK  14 active torsions:
REMARK  status: ('A' for Active; 'I' for Inactive)
REMARK       I    between atoms: C_2  and  N_3 
REMARK    1  A    between atoms: C_2  and  C_27 
REMARK    2  A    between atoms: N_3  and  N_4 
REMARK    3  A    between atoms: N_4  and  C_5 
REMARK    4  A    between atoms: N_4  and  C_16 
REMARK    5  A    between atoms: C_6  and  C_5 
REMARK    6  A    between atoms: C_6  and  C_8 
REMARK    7  A    between atoms: C_6  and  O_7 
REMARK    8  A    between atoms: C_8  and  O_9 
REMARK    9  A    between atoms: O_9  and  C_10 
REMARK   10  A    between atoms: C_17  and  C_16 
REMARK   11  A    between atoms: C_17  and  C_19 
REMARK   12  A    between atoms: C_17  and  O_18 
REMARK   13  A    between atoms: C_19  and  O_20 
REMARK   14  A    between atoms: O_20  and  C_21 
ROOT
ATOM      1  N   UNL d   1       0.418  -1.851   0.209  0.00  0.00    -0.224 NA
ENDROOT
BRANCH   1   2
ATOM      2  N   UNL d   1      -0.468  -1.128   1.098  0.00  0.00    -0.285 N 
ATOM      3  C   UNL d   1      -0.922  -1.741   2.260  0.00  0.00     0.266 C 
ATOM      4  O   UNL d   1      -0.650  -2.883   2.638  0.00  0.00    -0.266 OA
ATOM      5  H   UNL d   1      -0.287  -0.133   1.210  0.00  0.00     0.184 HD
BRANCH   3   6
ATOM      6  C   UNL d   1      -1.799  -0.974   3.157  0.00  0.00     0.033 A 
ATOM      7  C   UNL d   1      -2.647   0.064   2.764  0.00  0.00     0.017 A 
ATOM      8  C   UNL d   1      -3.361   0.750   3.752  0.00  0.00     0.001 A 
ATOM      9  C   UNL d   1      -3.294   0.341   5.091  0.00  0.00     0.000 A 
ATOM     10  C   UNL d   1      -2.506  -0.742   5.460  0.00  0.00     0.001 A 
ATOM     11  C   UNL d   1      -1.764  -1.393   4.494  0.00  0.00     0.017 A 
ENDBRANCH   3   6
ENDBRANCH   1   2
BRANCH   1  12
ATOM     12  C   UNL d   1      -0.376  -2.761  -0.656  0.00  0.00     0.147 C 
BRANCH  12  13
ATOM     13  C   UNL d   1      -1.143  -3.837   0.134  0.00  0.00     0.157 C 
BRANCH  13  14
ATOM     14  C   UNL d   1      -2.029  -4.694  -0.719  0.00  0.00     0.208 C 
BRANCH  14  15
ATOM     15  O   UNL d   1      -2.877  -3.839  -1.470  0.00  0.00    -0.349 OA
BRANCH  15  16
ATOM     16  C   UNL d   1      -3.821  -4.519  -2.171  0.00  0.00     0.068 A 
ATOM     17  C   UNL d   1      -4.098  -4.031  -3.443  0.00  0.00     0.037 A 
ATOM     18  C   UNL d   1      -5.101  -4.628  -4.200  0.00  0.00     0.003 A 
ATOM     19  C   UNL d   1      -5.778  -5.742  -3.702  0.00  0.00     0.000 A 
ATOM     20  C   UNL d   1      -5.500  -6.223  -2.426  0.00  0.00     0.003 A 
ATOM     21  C   UNL d   1      -4.536  -5.596  -1.649  0.00  0.00     0.037 A 
ENDBRANCH  15  16
ENDBRANCH  14  15
ENDBRANCH  13  14
BRANCH  13  22
ATOM     22  O   UNL d   1      -0.302  -4.737   0.857  0.00  0.00    -0.392 OA
ATOM     23  H   UNL d   1       0.499  -4.902   0.340  0.00  0.00     0.210 HD
ENDBRANCH  13  22
ENDBRANCH  12  13
ENDBRANCH   1  12
BRANCH   1  24
ATOM     24  C   UNL d   1       1.177  -0.930  -0.677  0.00  0.00     0.147 C 
BRANCH  24  25
ATOM     25  C   UNL d   1       2.135   0.012   0.080  0.00  0.00     0.157 C 
BRANCH  25  26
ATOM     26  C   UNL d   1       2.891   0.937  -0.891  0.00  0.00     0.208 C 
BRANCH  26  27
ATOM     27  O   UNL d   1       3.555   0.163  -1.881  0.00  0.00    -0.349 OA
BRANCH  27  28
ATOM     28  C   UNL d   1       4.386   0.830  -2.736  0.00  0.00     0.068 A 
ATOM     29  C   UNL d   1       4.521   0.246  -3.998  0.00  0.00     0.037 A 
ATOM     30  C   UNL d   1       5.483   0.711  -4.893  0.00  0.00     0.003 A 
ATOM     31  C   UNL d   1       6.268   1.811  -4.558  0.00  0.00     0.000 A 
ATOM     32  C   UNL d   1       6.107   2.426  -3.317  0.00  0.00     0.003 A 
ATOM     33  C   UNL d   1       5.171   1.933  -2.402  0.00  0.00     0.037 A 
ENDBRANCH  27  28
ENDBRANCH  26  27
ENDBRANCH  25  26
BRANCH  25  34
ATOM     34  O   UNL d   1       1.400   0.841   1.000  0.00  0.00    -0.392 OA
ATOM     35  H   UNL d   1       0.810   1.402   0.469  0.00  0.00     0.210 HD
ENDBRANCH  25  34
ENDBRANCH  24  25
ENDBRANCH   1  24
TORSDOF 14
