@<TRIPOS>MOLECULE
*****
 40 43 0 0 0
SMALL
GASTEIGER

@<TRIPOS>ATOM
      1 C          -6.7719    7.5616    5.0535 C.3     1  UNL1       -0.0397
      2 C          -7.1643    7.6484    3.6126 C.ar    1  UNL1       -0.0498
      3 C          -8.4912    7.8362    3.2113 C.ar    1  UNL1       -0.0588
      4 C          -8.8302    7.9020    1.8551 C.ar    1  UNL1       -0.0608
      5 C          -7.8411    7.7930    0.8828 C.ar    1  UNL1       -0.0509
      6 C          -6.5188    7.6173    1.2860 C.ar    1  UNL1        0.0227
      7 C          -5.4509    7.4951    0.3404 C.ar    1  UNL1        0.2021
      8 N          -5.0677    8.4750   -0.4894 N.ar    1  UNL1       -0.0560
      9 O          -3.9081    7.9671   -1.0566 O.2     1  UNL1       -0.3360
     10 C          -3.7688    6.7009   -0.5707 C.ar    1  UNL1        0.2454
     11 C          -2.8152    5.8200   -1.3001 C.3     1  UNL1        0.0974
     12 C          -1.4055    6.4303   -1.0450 C.3     1  UNL1        0.0374
     13 C          -0.7580    6.7824   -2.3017 C.ar    1  UNL1        0.1479
     14 N           0.4124    7.4912   -2.4616 N.ar    1  UNL1       -0.2471
     15 C           0.6730    7.6664   -3.7602 C.ar    1  UNL1        0.2427
     16 N          -0.3285    7.0896   -4.4312 N.ar    1  UNL1       -0.2461
     17 C          -1.2364    6.5287   -3.5554 C.ar    1  UNL1        0.1588
     18 C          -2.5088    5.8651   -3.8636 C.3     1  UNL1        0.0650
     19 N          -3.3045    5.4802   -2.6915 N.3     1  UNL1       -0.2862
     20 C          -4.7129    5.8614   -2.9289 C.3     1  UNL1       -0.0116
     21 N          -4.6542    6.3817    0.3395 N.ar    1  UNL1       -0.1900
     22 C          -6.1804    7.5331    2.6379 C.ar    1  UNL1       -0.0480
     23 H          -7.6379    7.6852    5.7081 H       1  UNL1        0.0278
     24 H          -6.0463    8.3467    5.2923 H       1  UNL1        0.0278
     25 H          -6.3207    6.5851    5.2592 H       1  UNL1        0.0278
     26 H          -9.2764    7.9292    3.9570 H       1  UNL1        0.0620
     27 H          -9.8677    8.0366    1.5606 H       1  UNL1        0.0618
     28 H          -8.1052    7.8307   -0.1715 H       1  UNL1        0.0625
     29 H          -2.8155    4.8556   -0.7679 H       1  UNL1        0.0565
     30 H          -0.7681    5.7280   -0.4986 H       1  UNL1        0.0370
     31 H          -1.4607    7.3512   -0.4486 H       1  UNL1        0.0370
     32 H           0.9895    7.8473   -1.7022 H       1  UNL1        0.3104
     33 H           1.5241    8.1847   -4.1828 H       1  UNL1        0.1581
     34 H          -0.4131    7.0823   -5.4456 H       1  UNL1        0.3104
     35 H          -2.3029    4.9673   -4.4569 H       1  UNL1        0.0513
     36 H          -3.0637    6.5569   -4.5094 H       1  UNL1        0.0513
     37 H          -5.0887    5.4849   -3.8836 H       1  UNL1        0.0391
     38 H          -4.8077    6.9539   -2.9776 H       1  UNL1        0.0391
     39 H          -5.3820    5.4758   -2.1524 H       1  UNL1        0.0391
     40 H          -5.1403    7.3806    2.9235 H       1  UNL1        0.0627
@<TRIPOS>UNITY_ATOM_ATTR
16 1
charge 1
@<TRIPOS>BOND
     1     1     2    1
     2     2     3   ar
     3     3     4   ar
     4     4     5   ar
     5     5     6   ar
     6     6     7    1
     7     7     8   ar
     8     8     9   ar
     9     9    10   ar
    10    11    12    1
    11    12    13    1
    12    13    14   ar
    13    14    15   ar
    14    15    16   ar
    15    16    17   ar
    16    13    17   ar
    17    17    18    1
    18    18    19    1
    19    11    19    1
    20    19    20    1
    21    10    21   ar
    22     7    21   ar
    23     6    22   ar
    24     2    22   ar
    25    11    10    1
    26     1    23    1
    27     1    24    1
    28     1    25    1
    29     3    26    1
    30     4    27    1
    31     5    28    1
    32    11    29    1
    33    12    30    1
    34    12    31    1
    35    14    32    1
    36    15    33    1
    37    16    34    1
    38    18    35    1
    39    18    36    1
    40    20    37    1
    41    20    38    1
    42    20    39    1
    43    22    40    1
