REMARK  6 active torsions:
REMARK  status: ('A' for Active; 'I' for Inactive)
REMARK    1  A    between atoms: C_6  and  N_7 
REMARK       I    between atoms: N_7  and  C_8 
REMARK    2  A    between atoms: C_8  and  C_10 
REMARK       I    between atoms: C_10  and  N_12 
REMARK    3  A    between atoms: N_12  and  C_13 
REMARK    4  A    between atoms: C_13  and  C_14 
REMARK    5  A    between atoms: C_18  and  N_19 
REMARK       I    between atoms: N_19  and  C_20 
REMARK    6  A    between atoms: C_20  and  C_22 
ROOT
ATOM      1  C   UNL d   1      -1.749  -5.143  -0.049  0.00  0.00     0.309 C 
ATOM      2  O   UNL d   1      -0.638  -5.651  -0.036  0.00  0.00    -0.262 OA
ATOM      3  N   UNL d   1      -2.959  -5.793  -0.077  0.00  0.00    -0.349 N 
ATOM      4  H   UNL d   1      -3.768  -5.183  -0.051  0.00  0.00     0.163 HD
ENDROOT
BRANCH   3   5
ATOM      5  C   UNL d   1      -3.109  -7.221  -0.096  0.00  0.00     0.161 C 
BRANCH   5   6
ATOM      6  C   UNL d   1      -4.539  -7.715  -0.092  0.00  0.00    -0.038 A 
ATOM      7  C   UNL d   1      -5.678  -6.915  -0.016  0.00  0.00     0.009 A 
ATOM      8  C   UNL d   1      -6.939  -7.496   0.147  0.00  0.00     0.003 A 
ATOM      9  C   UNL d   1      -7.092  -8.890   0.149  0.00  0.00     0.029 A 
ATOM     10  C   UNL d   1      -5.970  -9.717   0.034  0.00  0.00     0.035 A 
ATOM     11  C   UNL d   1      -4.718  -9.106  -0.095  0.00  0.00     0.038 A 
BRANCH  10  12
ATOM     12  N   UNL d   1      -6.112 -11.130   0.079  0.00  0.00    -0.321 N 
ATOM     13  C   UNL d   1      -5.058 -12.050   0.087  0.00  0.00     0.279 C 
ATOM     14  O   UNL d   1      -3.862 -11.752   0.062  0.00  0.00    -0.265 OA
ATOM     15  H   UNL d   1      -7.050 -11.493   0.204  0.00  0.00     0.169 HD
BRANCH  13  16
ATOM     16  C   UNL d   1      -5.441 -13.442   0.124  0.00  0.00     0.142 A 
ATOM     17  C   UNL d   1      -6.412 -14.158  -0.548  0.00  0.00     0.045 A 
ATOM     18  C   UNL d   1      -6.227 -15.518  -0.197  0.00  0.00     0.027 A 
ATOM     19  C   UNL d   1      -5.163 -15.553   0.672  0.00  0.00     0.143 A 
ATOM     20  O   UNL d   1      -4.673 -14.304   0.864  0.00  0.00    -0.317 OA
ENDBRANCH  13  16
ENDBRANCH  10  12
ENDBRANCH   5   6
ENDBRANCH   3   5
BRANCH   1  21
ATOM     21  C   UNL d   1      -1.933  -3.611  -0.035  0.00  0.00     0.314 C 
ATOM     22  N   UNL d   1      -0.761  -2.866  -0.025  0.00  0.00    -0.318 N 
ATOM     23  H   UNL d   1       0.090  -3.418  -0.022  0.00  0.00     0.169 HD
ATOM     24  O   UNL d   1      -3.097  -3.219  -0.036  0.00  0.00    -0.262 OA
BRANCH  22  25
ATOM     25  C   UNL d   1      -0.673  -1.444  -0.015  0.00  0.00     0.041 A 
ATOM     26  C   UNL d   1      -1.846  -0.672  -0.016  0.00  0.00     0.030 A 
ATOM     27  C   UNL d   1      -1.827   0.718   0.016  0.00  0.00     0.003 A 
ATOM     28  C   UNL d   1      -0.619   1.387   0.022  0.00  0.00     0.007 A 
ATOM     29  C   UNL d   1       0.585   0.669   0.003  0.00  0.00    -0.054 A 
ATOM     30  C   UNL d   1       1.864   1.470  -0.014  0.00  0.00     0.049 C 
ATOM     31  C   UNL d   1       0.572  -0.762  -0.000  0.00  0.00    -0.029 A 
ATOM     32  C   UNL d   1       1.902  -1.476   0.022  0.00  0.00     0.051 C 
ENDBRANCH  22  25
ENDBRANCH   1  21
TORSDOF 6
