@<TRIPOS>MOLECULE
*****
 51 52 0 0 0
SMALL
GASTEIGER

@<TRIPOS>ATOM
      1 C          11.5849    9.5331   -7.8431 C.3     1  UNL1       -0.0362
      2 C          11.8045    8.7726   -9.1186 C.ar    1  UNL1       -0.0088
      3 C          12.2226    9.5528  -10.2178 C.ar    1  UNL1       -0.0554
      4 C          12.4460    8.9918  -11.4698 C.ar    1  UNL1       -0.0613
      5 C          12.2558    7.6291  -11.6477 C.ar    1  UNL1       -0.0583
      6 C          11.8491    6.8331  -10.5671 C.ar    1  UNL1       -0.0197
      7 C          11.6154    7.3839   -9.2900 C.ar    1  UNL1        0.1235
      8 O          11.2136    6.4503   -8.3504 O.3     1  UNL1       -0.4902
      9 C          10.9569    6.9142   -7.0247 C.3     1  UNL1        0.1051
     10 C          10.5136    5.8433   -6.0389 C.3     1  UNL1        0.0472
     11 N          10.2476    6.3778   -4.6964 N.am    1  UNL1       -0.2962
     12 C           9.8193    5.5333   -3.7068 C.2     1  UNL1        0.2998
     13 O           9.7008    4.3205   -3.8730 O.2     1  UNL1       -0.2529
     14 N           9.4975    6.1662   -2.5340 N.am    1  UNL1       -0.2968
     15 C           9.1848    5.3627   -1.3429 C.3     1  UNL1        0.0423
     16 C           8.8271    6.1753   -0.0780 C.3     1  UNL1        0.1046
     17 O           7.4249    6.4553   -0.0193 O.3     1  UNL1       -0.3869
     18 C           9.6041    7.4892    0.0385 C.3     1  UNL1        0.1169
     19 O          10.9964    7.2123   -0.1065 O.3     1  UNL1       -0.4893
     20 C          11.8398    8.2801   -0.0163 C.ar    1  UNL1        0.1210
     21 C          13.0028    8.2045   -0.7898 C.ar    1  UNL1       -0.0135
     22 C          13.9923    9.1850   -0.6757 C.ar    1  UNL1        0.0190
     23 C          13.7758   10.2814    0.1673 C.ar    1  UNL1        0.2734
     24 N          14.7403   11.3879    0.1911 N.pl3   1  UNL1        0.0796
     25 O          15.7390   11.2976   -0.5366 O.2     1  UNL1        0.0414
     26 O          14.4806   12.3617    0.9124 O.co2   1  UNL1       -0.5760
     27 C          12.6160   10.3584    0.9477 C.ar    1  UNL1        0.0190
     28 C          11.6538    9.3498    0.8581 C.ar    1  UNL1       -0.0135
     29 H          11.7989   10.5994   -7.9379 H       1  UNL1        0.0279
     30 H          12.2578    9.1729   -7.0626 H       1  UNL1        0.0279
     31 H          10.5357    9.4717   -7.5459 H       1  UNL1        0.0279
     32 H          12.3728   10.6242  -10.0950 H       1  UNL1        0.0621
     33 H          12.7638    9.6228  -12.2960 H       1  UNL1        0.0618
     34 H          12.4232    7.1885  -12.6280 H       1  UNL1        0.0619
     35 H          11.7123    5.7661  -10.7352 H       1  UNL1        0.0654
     36 H          10.1367    7.6334   -7.0551 H       1  UNL1        0.0712
     37 H          11.8787    7.3265   -6.6104 H       1  UNL1        0.0712
     38 H          11.2838    5.0710   -5.9560 H       1  UNL1        0.0496
     39 H           9.5974    5.3657   -6.3994 H       1  UNL1        0.0496
     40 H          10.3612    7.3647   -4.5076 H       1  UNL1        0.1504
     41 H           9.9326    7.0662   -2.3977 H       1  UNL1        0.1503
     42 H          10.0466    4.7163   -1.1306 H       1  UNL1        0.0489
     43 H           8.3444    4.7110   -1.6104 H       1  UNL1        0.0489
     44 H           9.0500    5.5517    0.7990 H       1  UNL1        0.0643
     45 H           7.1653    6.8506   -0.8692 H       1  UNL1        0.2100
     46 H           9.3532    7.9637    0.9928 H       1  UNL1        0.0723
     47 H           9.2803    8.1763   -0.7543 H       1  UNL1        0.0723
     48 H          13.1419    7.3790   -1.4859 H       1  UNL1        0.0656
     49 H          14.9167    9.0786   -1.2400 H       1  UNL1        0.0686
     50 H          12.4502   11.1831    1.6376 H       1  UNL1        0.0686
     51 H          10.7827    9.4128    1.5016 H       1  UNL1        0.0656
@<TRIPOS>UNITY_ATOM_ATTR
24 1
charge 1
26 1
charge -1
@<TRIPOS>BOND
     1     1     2    1
     2     2     3   ar
     3     3     4   ar
     4     4     5   ar
     5     5     6   ar
     6     6     7   ar
     7     2     7   ar
     8     7     8    1
     9     8     9    1
    10     9    10    1
    11    10    11    1
    12    11    12   am
    13    12    13    2
    14    12    14   am
    15    14    15    1
    16    16    18    1
    17    18    19    1
    18    19    20    1
    19    20    21   ar
    20    21    22   ar
    21    22    23   ar
    22    23    24    1
    23    24    25    2
    24    24    26    1
    25    23    27   ar
    26    27    28   ar
    27    20    28   ar
    28    16    17    1
    29    16    15    1
    30     1    29    1
    31     1    30    1
    32     1    31    1
    33     3    32    1
    34     4    33    1
    35     5    34    1
    36     6    35    1
    37     9    36    1
    38     9    37    1
    39    10    38    1
    40    10    39    1
    41    11    40    1
    42    14    41    1
    43    15    42    1
    44    15    43    1
    45    16    44    1
    46    17    45    1
    47    18    46    1
    48    18    47    1
    49    21    48    1
    50    22    49    1
    51    27    50    1
    52    28    51    1
