@<TRIPOS>MOLECULE
*****
 60 63 0 0 0
SMALL
GASTEIGER

@<TRIPOS>ATOM
      1 C           0.7487    0.1345   -0.2304 C.3     1  UNL1       -0.0534
      2 C           2.2150   -0.1202   -0.0294 C.3     1  UNL1        0.0182
      3 C           2.2389   -0.8031    1.4642 C.2     1  UNL1        0.0303
      4 N           1.6083   -0.3235    2.5620 N.2     1  UNL1       -0.1917
      5 N           2.0745   -0.5312    4.0919 N.am    1  UNL1       -0.2019
      6 C           2.2543    0.5851    5.1749 C.2     1  UNL1        0.2854
      7 O           1.7162    1.7373    5.0722 O.2     1  UNL1       -0.2666
      8 C           3.2474    0.4509    6.4193 C.ar    1  UNL1        0.1773
      9 N           2.7478    0.5347    7.7042 N.ar    1  UNL1       -0.1239
     10 N           3.7166    0.2956    8.5868 N.ar    1  UNL1       -0.0581
     11 N           4.9030    0.2465    7.9522 N.ar    1  UNL1       -0.1868
     12 C           6.1732    0.0028    8.5735 C.ar    1  UNL1        0.2404
     13 N           6.4196   -1.1733    9.1555 N.ar    1  UNL1       -0.0272
     14 O           7.8043   -1.1484    9.3992 O.2     1  UNL1       -0.2388
     15 N           8.3832    0.0195    8.9035 N.ar    1  UNL1       -0.0319
     16 C           7.3714    0.7321    8.4200 C.ar    1  UNL1        0.2064
     17 N           7.4972    1.9322    7.8133 N.pl3   1  UNL1       -0.3375
     18 C           4.6745    0.4946    6.5864 C.ar    1  UNL1        0.1234
     19 C           5.8863    0.5545    5.7148 C.3     1  UNL1        0.0139
     20 N           5.6313    1.0393    4.3534 N.4     1  UNL1        0.2396
     21 C           5.0781    2.4605    4.3047 C.3     1  UNL1       -0.0315
     22 C           5.0214    3.0333    2.8823 C.3     1  UNL1       -0.0125
     23 C           3.6683    2.9593    2.2363 C.3     1  UNL1       -0.0481
     24 C           3.1586    1.5885    2.4173 C.3     1  UNL1       -0.0481
     25 C           4.2483    0.4343    2.5269 C.3     1  UNL1       -0.0125
     26 C           4.8772   -0.0183    3.7781 C.3     1  UNL1       -0.0315
     27 C           2.8572   -1.0713   -1.0417 C.ar    1  UNL1       -0.0393
     28 C           2.4346   -2.3969   -0.9414 C.ar    1  UNL1       -0.0580
     29 C           2.9916   -3.4005   -1.7074 C.ar    1  UNL1       -0.0615
     30 C           3.9240   -3.0820   -2.6829 C.ar    1  UNL1       -0.0617
     31 C           4.3750   -1.7669   -2.8191 C.ar    1  UNL1       -0.0615
     32 C           3.8653   -0.7550   -1.9837 C.ar    1  UNL1       -0.0580
     33 H           0.4363    0.9472    0.4343 H       1  UNL1        0.0239
     34 H           0.2168   -0.7664    0.0886 H       1  UNL1        0.0239
     35 H           0.4790    0.3682   -1.2579 H       1  UNL1        0.0239
     36 H           2.8007    0.8137   -0.1285 H       1  UNL1        0.0404
     37 H           3.0865   -1.5405    1.4514 H       1  UNL1        0.0804
     38 H           2.5691   -1.4041    4.2311 H       1  UNL1        0.1776
     39 H           8.3882    2.4210    7.8923 H       1  UNL1        0.1439
     40 H           6.7100    2.5645    7.6995 H       1  UNL1        0.1439
     41 H           6.3192   -0.4599    5.6553 H       1  UNL1        0.0883
     42 H           6.7002    1.1934    6.0012 H       1  UNL1        0.0883
     43 H           6.5079    1.0306    3.8174 H       1  UNL1        0.2037
     44 H           5.7849    3.0482    4.8861 H       1  UNL1        0.0814
     45 H           4.1110    2.4848    4.8099 H       1  UNL1        0.0814
     46 H           5.7237    2.5139    2.2231 H       1  UNL1        0.0317
     47 H           5.2774    4.0874    2.9006 H       1  UNL1        0.0317
     48 H           3.7022    3.1440    1.1568 H       1  UNL1        0.0267
     49 H           2.9380    3.6712    2.6507 H       1  UNL1        0.0267
     50 H           2.4664    1.5067    1.5848 H       1  UNL1        0.0267
     51 H           2.4212    1.6633    3.1951 H       1  UNL1        0.0267
     52 H           4.9553    0.4850    1.7092 H       1  UNL1        0.0317
     53 H           3.8797   -0.5572    2.4798 H       1  UNL1        0.0317
     54 H           5.5056   -0.9191    3.6503 H       1  UNL1        0.0814
     55 H           4.1977   -0.4321    4.5111 H       1  UNL1        0.0814
     56 H           1.6695   -2.6562   -0.2167 H       1  UNL1        0.0620
     57 H           2.6729   -4.4219   -1.5335 H       1  UNL1        0.0618
     58 H           4.2841   -3.8679   -3.3409 H       1  UNL1        0.0618
     59 H           5.1255   -1.5487   -3.5803 H       1  UNL1        0.0618
     60 H           4.2762    0.2493   -2.1058 H       1  UNL1        0.0620
@<TRIPOS>UNITY_ATOM_ATTR
20 1
charge 1
@<TRIPOS>BOND
     1     1     2    1
     2     2     3    1
     3     3     4    2
     4     4     5    1
     5     5     6   am
     6     6     7    2
     7     6     8    1
     8     8     9   ar
     9     9    10   ar
    10    10    11   ar
    11    11    12    1
    12    12    13   ar
    13    13    14   ar
    14    14    15   ar
    15    15    16   ar
    16    12    16   ar
    17    16    17    1
    18    11    18   ar
    19     8    18   ar
    20    18    19    1
    21    19    20    1
    22    20    21    1
    23    21    22    1
    24    22    23    1
    25    23    24    1
    26    24    25    1
    27    25    26    1
    28    20    26    1
    29     2    27    1
    30    27    28   ar
    31    28    29   ar
    32    29    30   ar
    33    30    31   ar
    34    31    32   ar
    35    27    32   ar
    36     1    33    1
    37     1    34    1
    38     1    35    1
    39     2    36    1
    40     3    37    1
    41     5    38    1
    42    17    39    1
    43    17    40    1
    44    19    41    1
    45    19    42    1
    46    20    43    1
    47    21    44    1
    48    21    45    1
    49    22    46    1
    50    22    47    1
    51    23    48    1
    52    23    49    1
    53    24    50    1
    54    24    51    1
    55    25    52    1
    56    25    53    1
    57    26    54    1
    58    26    55    1
    59    28    56    1
    60    29    57    1
    61    30    58    1
    62    31    59    1
    63    32    60    1
