@<TRIPOS>MOLECULE
*****
 71 75 0 0 0
SMALL
GASTEIGER

@<TRIPOS>ATOM
      1 O           1.0649    0.0361    0.0784 O.2     1  UNL1       -0.2651
      2 C           2.2975   -0.0201    0.1275 C.2     1  UNL1        0.2985
      3 N           3.0034    0.4838    1.2351 N.am    1  UNL1       -0.2004
      4 N           2.2829    1.0257    2.3004 N.2     1  UNL1       -0.1874
      5 C           2.9319    1.6092    3.2616 C.2     1  UNL1        0.0529
      6 C           2.2413    2.1505    4.4712 C.ar    1  UNL1       -0.0020
      7 C           2.7448    3.2593    5.1612 C.ar    1  UNL1       -0.0529
      8 C           2.1913    3.6286    6.3958 C.ar    1  UNL1       -0.0577
      9 C           1.1025    2.9250    6.9141 C.ar    1  UNL1       -0.0199
     10 C           0.5802    1.8348    6.2141 C.ar    1  UNL1        0.1216
     11 O          -0.4582    1.1875    6.8270 O.3     1  UNL1       -0.4874
     12 C          -0.9414    0.0178    6.1561 C.3     1  UNL1        0.1146
     13 C          -1.9885   -0.6529    7.0041 C.ar    1  UNL1       -0.0104
     14 C          -2.9252    0.0972    7.7252 C.ar    1  UNL1       -0.0554
     15 C          -3.7794   -0.5334    8.6266 C.ar    1  UNL1       -0.0614
     16 C          -3.7792   -1.9234    8.7327 C.ar    1  UNL1       -0.0617
     17 C          -2.9058   -2.6839    7.9580 C.ar    1  UNL1       -0.0614
     18 C          -2.0132   -2.0516    7.0961 C.ar    1  UNL1       -0.0554
     19 C           1.1467    1.4576    4.9910 C.ar    1  UNL1       -0.0113
     20 C           3.0530   -0.5176   -1.0371 C.ar    1  UNL1        0.1918
     21 C           2.7602   -0.2992   -2.3732 C.ar    1  UNL1       -0.0104
     22 C           3.6208   -1.1099   -3.1500 C.ar    1  UNL1       -0.0104
     23 C           4.4208   -1.8278   -2.2765 C.ar    1  UNL1        0.1918
     24 C           5.4545   -2.8532   -2.5235 C.2     1  UNL1        0.2985
     25 O           6.0595   -3.4077   -1.5954 O.2     1  UNL1       -0.2651
     26 N           5.7259   -3.1701   -3.8800 N.am    1  UNL1       -0.2004
     27 N           6.6884   -4.1198   -4.2014 N.2     1  UNL1       -0.1874
     28 C           6.9767   -4.3173   -5.4534 C.2     1  UNL1        0.0529
     29 C           7.9900   -5.3315   -5.8700 C.ar    1  UNL1       -0.0020
     30 C           8.8421   -5.1141   -6.9592 C.ar    1  UNL1       -0.0529
     31 C           9.7116   -6.1302   -7.3829 C.ar    1  UNL1       -0.0577
     32 C           9.7638   -7.3409   -6.6911 C.ar    1  UNL1       -0.0199
     33 C           8.9194   -7.5580   -5.6016 C.ar    1  UNL1        0.1216
     34 O           9.0285   -8.7933   -5.0213 O.3     1  UNL1       -0.4874
     35 C           8.0999   -9.0514   -3.9692 C.3     1  UNL1        0.1146
     36 C           8.2251  -10.4602   -3.4531 C.ar    1  UNL1       -0.0104
     37 C           8.6480  -11.5113   -4.2757 C.ar    1  UNL1       -0.0554
     38 C           8.5559  -12.8286   -3.8315 C.ar    1  UNL1       -0.0614
     39 C           8.1149  -13.0993   -2.5373 C.ar    1  UNL1       -0.0617
     40 C           7.7276  -12.0573   -1.6975 C.ar    1  UNL1       -0.0614
     41 C           7.7703  -10.7439   -2.1573 C.ar    1  UNL1       -0.0554
     42 C           8.0357   -6.5513   -5.1942 C.ar    1  UNL1       -0.0113
     43 O           4.0907   -1.4341   -0.9682 O.2     1  UNL1       -0.4455
     44 H           4.0147    0.5236    1.2350 H       1  UNL1        0.1777
     45 H           4.0305    1.7067    3.2583 H       1  UNL1        0.0851
     46 H           3.5560    3.8522    4.7495 H       1  UNL1        0.0624
     47 H           2.6155    4.4523    6.9675 H       1  UNL1        0.0619
     48 H           0.6648    3.2233    7.8665 H       1  UNL1        0.0654
     49 H          -0.1094   -0.6867    6.0245 H       1  UNL1        0.0748
     50 H          -1.3759    0.2846    5.1863 H       1  UNL1        0.0748
     51 H          -2.9622    1.1791    7.6140 H       1  UNL1        0.0621
     52 H          -4.4272    0.0628    9.2628 H       1  UNL1        0.0618
     53 H          -4.4612   -2.4138    9.4207 H       1  UNL1        0.0618
     54 H          -2.8978   -3.7667    8.0453 H       1  UNL1        0.0618
     55 H          -1.3181   -2.6533    6.5141 H       1  UNL1        0.0621
     56 H           0.7782    0.6022    4.4358 H       1  UNL1        0.0660
     57 H           1.9772    0.3563   -2.7328 H       1  UNL1        0.0657
     58 H           3.6244   -1.1804   -4.2272 H       1  UNL1        0.0657
     59 H           5.2309   -2.7138   -4.6362 H       1  UNL1        0.1777
     60 H           6.4872   -3.7673   -6.2776 H       1  UNL1        0.0851
     61 H           8.8651   -4.1570   -7.4715 H       1  UNL1        0.0624
     62 H          10.3495   -5.9884   -8.2534 H       1  UNL1        0.0619
     63 H          10.4628   -8.1176   -6.9993 H       1  UNL1        0.0654
     64 H           7.0706   -8.9451   -4.3395 H       1  UNL1        0.0748
     65 H           8.2828   -8.3515   -3.1451 H       1  UNL1        0.0748
     66 H           9.0333  -11.3094   -5.2731 H       1  UNL1        0.0621
     67 H           8.8112  -13.6434   -4.5031 H       1  UNL1        0.0618
     68 H           8.0711  -14.1252   -2.1839 H       1  UNL1        0.0618
     69 H           7.3679  -12.2667   -0.6941 H       1  UNL1        0.0618
     70 H           7.4334   -9.9389   -1.5068 H       1  UNL1        0.0621
     71 H           7.3552   -6.6930   -4.3616 H       1  UNL1        0.0660
@<TRIPOS>BOND
     1     1     2    2
     2     2     3   am
     3     3     4    1
     4     4     5    2
     5     5     6    1
     6     6     7   ar
     7     7     8   ar
     8     8     9   ar
     9     9    10   ar
    10    10    11    1
    11    11    12    1
    12    12    13    1
    13    13    14   ar
    14    14    15   ar
    15    15    16   ar
    16    16    17   ar
    17    17    18   ar
    18    13    18   ar
    19    10    19   ar
    20     6    19   ar
    21     2    20    1
    22    20    21   ar
    23    21    22   ar
    24    22    23   ar
    25    23    24    1
    26    24    25    2
    27    24    26   am
    28    26    27    1
    29    27    28    2
    30    28    29    1
    31    29    30   ar
    32    30    31   ar
    33    31    32   ar
    34    32    33   ar
    35    33    34    1
    36    34    35    1
    37    35    36    1
    38    36    37   ar
    39    37    38   ar
    40    38    39   ar
    41    39    40   ar
    42    40    41   ar
    43    36    41   ar
    44    33    42   ar
    45    29    42   ar
    46    23    43   ar
    47    20    43   ar
    48     3    44    1
    49     5    45    1
    50     7    46    1
    51     8    47    1
    52     9    48    1
    53    12    49    1
    54    12    50    1
    55    14    51    1
    56    15    52    1
    57    16    53    1
    58    17    54    1
    59    18    55    1
    60    19    56    1
    61    21    57    1
    62    22    58    1
    63    26    59    1
    64    28    60    1
    65    30    61    1
    66    31    62    1
    67    32    63    1
    68    35    64    1
    69    35    65    1
    70    37    66    1
    71    38    67    1
    72    39    68    1
    73    40    69    1
    74    41    70    1
    75    42    71    1
