@<TRIPOS>MOLECULE
*****
 34 36 0 0 0
SMALL
GASTEIGER

@<TRIPOS>ATOM
      1 O           0.9542    0.0428    0.1686 O.2     1  UNL1       -0.2685
      2 C           2.1807   -0.0379    0.0724 C.2     1  UNL1        0.2633
      3 N           2.8801   -1.1798   -0.3364 N.am    1  UNL1       -0.2030
      4 N           2.1754   -2.3139   -0.7152 N.2     1  UNL1       -0.1874
      5 C           2.8423   -3.3986   -0.9648 C.2     1  UNL1        0.0548
      6 C           2.1417   -4.6209   -1.3566 C.ar    1  UNL1        0.0195
      7 C           2.4844   -5.9059   -0.9642 C.ar    1  UNL1        0.0114
      8 N           1.5826   -6.7896   -1.5108 N.ar    1  UNL1       -0.3600
      9 C           0.7102   -6.1244   -2.3400 C.ar    1  UNL1        0.0471
     10 C          -0.3204   -6.6127   -3.1594 C.ar    1  UNL1       -0.0378
     11 C          -1.0230   -5.6855   -3.9364 C.ar    1  UNL1       -0.0598
     12 C          -0.7252   -4.3270   -3.8720 C.ar    1  UNL1       -0.0611
     13 C           0.2841   -3.8568   -3.0257 C.ar    1  UNL1       -0.0520
     14 C           1.0277   -4.7657   -2.2490 C.ar    1  UNL1        0.0083
     15 C           2.9885    1.1741    0.4297 C.ar    1  UNL1        0.0386
     16 C           2.6206    1.9754    1.5296 C.ar    1  UNL1       -0.0461
     17 C           3.3356    3.1466    1.8434 C.ar    1  UNL1       -0.0195
     18 C           4.4046    3.5268    1.0398 C.ar    1  UNL1        0.1169
     19 O           5.1464    4.6450    1.2867 O.3     1  UNL1       -0.5068
     20 C           4.7530    2.7656   -0.0719 C.ar    1  UNL1       -0.0195
     21 C           4.0505    1.5916   -0.3790 C.ar    1  UNL1       -0.0461
     22 H           3.8929   -1.2131   -0.2987 H       1  UNL1        0.1776
     23 H           3.9415   -3.4606   -0.8843 H       1  UNL1        0.0852
     24 H           3.2674   -6.2748   -0.3155 H       1  UNL1        0.0813
     25 H           1.5749   -7.7904   -1.3604 H       1  UNL1        0.1654
     26 H          -0.5636   -7.6701   -3.2119 H       1  UNL1        0.0638
     27 H          -1.8128   -6.0271   -4.6023 H       1  UNL1        0.0618
     28 H          -1.2772   -3.6178   -4.4828 H       1  UNL1        0.0618
     29 H           0.5093   -2.7955   -2.9760 H       1  UNL1        0.0624
     30 H           1.7659    1.6959    2.1445 H       1  UNL1        0.0626
     31 H           3.0371    3.7468    2.6996 H       1  UNL1        0.0654
     32 H           4.8269    5.0837    2.0924 H       1  UNL1        0.2921
     33 H           5.5657    3.1007   -0.7112 H       1  UNL1        0.0654
     34 H           4.3109    1.0450   -1.2793 H       1  UNL1        0.0626
@<TRIPOS>BOND
     1     1     2    2
     2     2     3   am
     3     3     4    1
     4     4     5    2
     5     5     6    1
     6     6     7   ar
     7     7     8   ar
     8     8     9   ar
     9     9    10   ar
    10    10    11   ar
    11    11    12   ar
    12    12    13   ar
    13    13    14   ar
    14     6    14   ar
    15     9    14   ar
    16     2    15    1
    17    15    16   ar
    18    16    17   ar
    19    17    18   ar
    20    18    19    1
    21    18    20   ar
    22    20    21   ar
    23    15    21   ar
    24     3    22    1
    25     5    23    1
    26     7    24    1
    27     8    25    1
    28    10    26    1
    29    11    27    1
    30    12    28    1
    31    13    29    1
    32    16    30    1
    33    17    31    1
    34    19    32    1
    35    20    33    1
    36    21    34    1
