REMARK  10 active torsions:
REMARK  status: ('A' for Active; 'I' for Inactive)
REMARK    1  A    between atoms: C_2  and  C_4 
REMARK    2  A    between atoms: C_7  and  N_8 
REMARK       I    between atoms: N_8  and  C_9 
REMARK    3  A    between atoms: C_9  and  C_11 
REMARK       I    between atoms: C_11  and  N_13 
REMARK    4  A    between atoms: N_13  and  N_14 
REMARK    5  A    between atoms: C_15  and  C_16 
REMARK    6  A    between atoms: C_19  and  O_20 
REMARK    7  A    between atoms: O_20  and  C_21 
REMARK    8  A    between atoms: C_21  and  C_22 
REMARK       I    between atoms: C_22  and  N_24 
REMARK    9  A    between atoms: N_24  and  C_25 
REMARK   10  A    between atoms: C_25  and  C_26 
ROOT
ATOM      1  N   UNL d   1       6.186  -1.140  -9.695  0.00  0.00    -0.183 NA
ATOM      2  C   UNL d   1       6.776  -0.326 -10.517  0.00  0.00     0.150 C 
ENDROOT
BRANCH   2   3
ATOM      3  C   UNL d   1       7.156  -0.776 -11.891  0.00  0.00    -0.017 A 
ATOM      4  C   UNL d   1       8.376  -0.408 -12.467  0.00  0.00     0.015 A 
ATOM      5  C   UNL d   1       8.697  -0.840 -13.772  0.00  0.00     0.037 A 
ATOM      6  C   UNL d   1       7.834  -1.680 -14.493  0.00  0.00     0.069 A 
ATOM      7  C   UNL d   1       6.609  -2.016 -13.921  0.00  0.00     0.037 A 
ATOM      8  C   UNL d   1       6.273  -1.569 -12.630  0.00  0.00     0.015 A 
BRANCH   6   9
ATOM      9  O   UNL d   1       8.290  -2.114 -15.711  0.00  0.00    -0.342 OA
BRANCH   9  10
ATOM     10  C   UNL d   1       7.522  -3.088 -16.432  0.00  0.00     0.278 C 
BRANCH  10  11
ATOM     11  C   UNL d   1       8.262  -3.558 -17.709  0.00  0.00     0.241 C 
ATOM     12  O   UNL d   1       9.385  -3.159 -18.014  0.00  0.00    -0.271 OA
ATOM     13  N   UNL d   1       7.583  -4.477 -18.502  0.00  0.00    -0.357 N 
ATOM     14  H   UNL d   1       6.636  -4.749 -18.272  0.00  0.00     0.162 HD
BRANCH  13  15
ATOM     15  C   UNL d   1       8.167  -4.934 -19.767  0.00  0.00     0.154 C 
BRANCH  15  16
ATOM     16  C   UNL d   1       7.292  -5.932 -20.549  0.00  0.00     0.139 C 
ATOM     17  C   UNL d   1       7.604  -7.390 -20.248  0.00  0.00     0.035 C 
ATOM     18  C   UNL d   1       7.221  -8.087 -21.532  0.00  0.00     0.029 C 
ATOM     19  C   UNL d   1       7.565  -7.060 -22.588  0.00  0.00     0.168 C 
ATOM     20  O   UNL d   1       7.474  -5.768 -21.971  0.00  0.00    -0.384 OA
ENDBRANCH  15  16
ENDBRANCH  13  15
ENDBRANCH  10  11
ENDBRANCH   9  10
ENDBRANCH   6   9
ENDBRANCH   2   3
BRANCH   1  21
ATOM     21  N   UNL d   1       5.862  -0.694  -8.430  0.00  0.00    -0.239 N 
ATOM     22  C   UNL d   1       5.312  -1.577  -7.488  0.00  0.00     0.329 C 
ATOM     23  O   UNL d   1       5.065  -2.774  -7.641  0.00  0.00    -0.261 OA
ATOM     24  H   UNL d   1       6.019   0.277  -8.157  0.00  0.00     0.192 HD
BRANCH  22  25
ATOM     25  C   UNL d   1       5.000  -0.922  -6.126  0.00  0.00     0.315 C 
ATOM     26  N   UNL d   1       4.470  -1.760  -5.132  0.00  0.00    -0.319 N 
ATOM     27  H   UNL d   1       4.303  -2.729  -5.398  0.00  0.00     0.169 HD
ATOM     28  O   UNL d   1       5.239   0.282  -6.045  0.00  0.00    -0.262 OA
BRANCH  26  29
ATOM     29  C   UNL d   1       4.050  -1.343  -3.834  0.00  0.00     0.035 A 
ATOM     30  C   UNL d   1       3.432  -2.243  -2.954  0.00  0.00     0.030 A 
ATOM     31  C   UNL d   1       2.896  -1.792  -1.731  0.00  0.00     0.010 A 
ATOM     32  C   UNL d   1       3.049  -0.460  -1.318  0.00  0.00    -0.055 A 
ATOM     33  C   UNL d   1       3.705   0.419  -2.174  0.00  0.00     0.010 A 
ATOM     34  C   UNL d   1       4.196  -0.022  -3.404  0.00  0.00     0.030 A 
BRANCH  32  35
ATOM     35  C   UNL d   1       2.545   0.041   0.021  0.00  0.00     0.010 C 
ATOM     36  C   UNL d   1       1.020   0.089   0.034  0.00  0.00     0.015 C 
ATOM     37  C   UNL d   1       3.082  -0.820   1.165  0.00  0.00     0.015 C 
ENDBRANCH  32  35
ENDBRANCH  26  29
ENDBRANCH  22  25
ENDBRANCH   1  21
TORSDOF 10
