REMARK  11 active torsions:
REMARK  status: ('A' for Active; 'I' for Inactive)
REMARK    1  A    between atoms: O_2  and  C_3 
REMARK    2  A    between atoms: C_3  and  C_4 
REMARK    3  A    between atoms: C_4  and  C_5 
REMARK    4  A    between atoms: C_5  and  N_6 
REMARK       I    between atoms: N_6  and  C_7 
REMARK    5  A    between atoms: C_7  and  C_9 
REMARK    6  A    between atoms: C_12  and  N_13 
REMARK       I    between atoms: N_13  and  C_14 
REMARK    7  A    between atoms: C_14  and  C_16 
REMARK    8  A    between atoms: C_16  and  N_17 
REMARK    9  A    between atoms: N_17  and  C_18 
REMARK   10  A    between atoms: C_23  and  C_24 
REMARK       I    between atoms: C_24  and  N_26 
REMARK   11  A    between atoms: N_26  and  C_27 
ROOT
ATOM      1  C   UNL d   1      15.160   2.261  -2.620  0.00  0.00     0.223 C 
ENDROOT
BRANCH   1   2
ATOM      2  C   UNL d   1      13.624   2.150  -2.646  0.00  0.00     0.239 C 
ATOM      3  N   UNL d   1      12.897   3.330  -2.463  0.00  0.00    -0.326 N 
ATOM      4  H   UNL d   1      13.402   4.192  -2.290  0.00  0.00     0.169 HD
ATOM      5  O   UNL d   1      13.136   1.027  -2.802  0.00  0.00    -0.271 OA
BRANCH   3   6
ATOM      6  C   UNL d   1      11.470   3.393  -2.398  0.00  0.00     0.034 A 
ATOM      7  C   UNL d   1      10.810   4.599  -2.115  0.00  0.00     0.030 A 
ATOM      8  C   UNL d   1       9.404   4.624  -1.945  0.00  0.00     0.019 A 
ATOM      9  C   UNL d   1       8.638   3.460  -2.116  0.00  0.00     0.032 A 
ATOM     10  C   UNL d   1       9.285   2.278  -2.441  0.00  0.00     0.019 A 
ATOM     11  C   UNL d   1      10.673   2.259  -2.586  0.00  0.00     0.030 A 
BRANCH   9  12
ATOM     12  C   UNL d   1       7.151   3.503  -2.106  0.00  0.00     0.251 C 
ATOM     13  N   UNL d   1       6.491   2.427  -1.537  0.00  0.00    -0.357 N 
ATOM     14  H   UNL d   1       7.016   1.696  -1.073  0.00  0.00     0.162 HD
ATOM     15  O   UNL d   1       6.573   4.461  -2.613  0.00  0.00    -0.268 OA
BRANCH  13  16
ATOM     16  C   UNL d   1       5.039   2.378  -1.509  0.00  0.00     0.125 C 
BRANCH  16  17
ATOM     17  C   UNL d   1       4.496   1.156  -0.776  0.00  0.00     0.046 C 
BRANCH  17  18
ATOM     18  C   UNL d   1       2.971   1.163  -0.779  0.00  0.00     0.168 C 
BRANCH  18  19
ATOM     19  O   UNL d   1       2.488   0.014  -0.085  0.00  0.00    -0.396 OA
ATOM     20  C   UNL d   1       1.063  -0.007  -0.073  0.00  0.00     0.201 C 
ENDBRANCH  18  19
ENDBRANCH  17  18
ENDBRANCH  16  17
ENDBRANCH  13  16
ENDBRANCH   9  12
ENDBRANCH   3   6
ENDBRANCH   1   2
BRANCH   1  21
ATOM     21  N   UNL d   1      15.729   0.957  -2.991  0.00  0.00    -0.381 N 
ATOM     22  H   UNL d   1      15.040   0.201  -3.066  0.00  0.00     0.160 HD
BRANCH  21  23
ATOM     23  C   UNL d   1      17.053   0.599  -2.893  0.00  0.00     0.029 A 
ATOM     24  C   UNL d   1      17.587  -0.297  -3.819  0.00  0.00     0.031 A 
ATOM     25  C   UNL d   1      18.927  -0.680  -3.754  0.00  0.00     0.027 A 
ATOM     26  C   UNL d   1      19.777  -0.135  -2.785  0.00  0.00     0.049 A 
ATOM     27 CL   UNL d   1      21.440  -0.596  -2.929  0.00  0.00    -0.083 Cl
ATOM     28  C   UNL d   1      19.267   0.754  -1.823  0.00  0.00     0.055 A 
ATOM     29  C   UNL d   1      17.905   1.116  -1.915  0.00  0.00     0.048 A 
BRANCH  28  30
ATOM     30  C   UNL d   1      20.117   1.287  -0.704  0.00  0.00     0.253 C 
ATOM     31  O   UNL d   1      21.296   0.956  -0.575  0.00  0.00    -0.268 OA
ATOM     32  N   UNL d   1      19.540   2.158   0.204  0.00  0.00    -0.352 N 
ATOM     33  H   UNL d   1      18.551   2.342   0.205  0.00  0.00     0.163 HD
BRANCH  32  34
ATOM     34  C   UNL d   1      20.283   2.659   1.353  0.00  0.00     0.084 C 
ATOM     35  C   UNL d   1      19.844   4.093   1.656  0.00  0.00     0.025 C 
ATOM     36  C   UNL d   1      20.532   4.645   2.899  0.00  0.00     0.002 C 
ATOM     37  C   UNL d   1      20.316   3.736   4.104  0.00  0.00     0.000 C 
ATOM     38  C   UNL d   1      20.781   2.314   3.807  0.00  0.00     0.002 C 
ATOM     39  C   UNL d   1      20.085   1.747   2.571  0.00  0.00     0.025 C 
ENDBRANCH  32  34
ENDBRANCH  28  30
ENDBRANCH  21  23
ENDBRANCH   1  21
TORSDOF 11
