@<TRIPOS>MOLECULE
*****
 53 57 0 0 0
SMALL
GASTEIGER

@<TRIPOS>ATOM
      1 N           1.0561   -0.1160   -0.0543 N.am    1  UNL1       -0.3293
      2 C           2.4157   -0.0490    0.0009 C.2     1  UNL1        0.2105
      3 O           2.9707    0.8975    0.5466 O.2     1  UNL1       -0.2760
      4 C           3.1478   -1.1972   -0.6627 C.3     1  UNL1        0.0252
      5 C           4.6713   -1.0484   -0.4935 C.3     1  UNL1       -0.0285
      6 C           5.4716   -2.1932   -1.1603 C.3     1  UNL1        0.0212
      7 N           5.3479   -1.9499   -2.6041 N.3     1  UNL1       -0.2953
      8 C           6.6819   -1.8495   -3.1887 C.3     1  UNL1        0.1357
      9 C           6.7856   -2.9147   -4.3291 C.2     1  UNL1        0.2428
     10 O           6.5351   -4.1069   -4.2537 O.2     1  UNL1       -0.2730
     11 N           7.2083   -2.2381   -5.4673 N.am    1  UNL1       -0.2834
     12 C           7.2242   -0.8668   -5.2690 C.ar    1  UNL1        0.0390
     13 C           7.4846    0.1095   -6.2036 C.ar    1  UNL1       -0.0388
     14 C           7.3970    1.4432   -5.7883 C.ar    1  UNL1       -0.0416
     15 C           7.0663    1.7626   -4.4601 C.ar    1  UNL1        0.0414
     16 CL          6.9707    3.4143   -3.9836 Cl      1  UNL1       -0.0835
     17 C           6.8122    0.7605   -3.5227 C.ar    1  UNL1       -0.0362
     18 C           6.8880   -0.5603   -3.9511 C.ar    1  UNL1        0.0048
     19 C           7.7071   -1.9638   -2.0867 C.3     1  UNL1        0.0795
     20 C           8.6205   -3.1395   -2.2053 C.2     1  UNL1        0.2285
     21 O           9.0637   -3.5850   -3.2361 O.2     1  UNL1       -0.2748
     22 N           8.9038   -3.6011   -0.9507 N.am    1  UNL1       -0.2371
     23 C           9.9783   -4.6382   -0.9631 C.3     1  UNL1        0.0487
     24 C          11.0551   -4.7163    0.1122 C.ar    1  UNL1       -0.0113
     25 C          11.7087   -3.5626    0.5878 C.ar    1  UNL1       -0.0557
     26 C          12.8024   -3.6503    1.4699 C.ar    1  UNL1       -0.0614
     27 C          13.2310   -4.8864    1.9444 C.ar    1  UNL1       -0.0604
     28 C          12.6126   -6.0407    1.4803 C.ar    1  UNL1       -0.0431
     29 C          11.6000   -5.9591    0.5117 C.ar    1  UNL1        0.0457
     30 CL         11.1370   -7.4576   -0.2241 Cl      1  UNL1       -0.0832
     31 C           7.7208   -3.4470   -0.2470 C.2     1  UNL1        0.2275
     32 O           7.2636   -4.1567    0.6361 O.2     1  UNL1       -0.2748
     33 C           6.9748   -2.1901   -0.7884 C.3     1  UNL1        0.0651
     34 H           0.5365    0.6304    0.3907 H       1  UNL1        0.1449
     35 H           0.5441   -0.8687   -0.4922 H       1  UNL1        0.1449
     36 H           2.8598   -1.2122   -1.7215 H       1  UNL1        0.0359
     37 H           2.8198   -2.1372   -0.2070 H       1  UNL1        0.0359
     38 H           4.9147   -0.9887    0.5714 H       1  UNL1        0.0285
     39 H           4.9722   -0.0783   -0.9220 H       1  UNL1        0.0285
     40 H           5.0059   -3.1542   -0.9203 H       1  UNL1        0.0468
     41 H           4.7930   -1.1302   -2.8492 H       1  UNL1        0.1235
     42 H           7.3991   -2.7285   -6.3269 H       1  UNL1        0.1549
     43 H           7.7295   -0.1409   -7.2287 H       1  UNL1        0.0637
     44 H           7.5814    2.2387   -6.5060 H       1  UNL1        0.0633
     45 H           6.5629    1.0145   -2.4965 H       1  UNL1        0.0636
     46 H           8.3509   -1.0822   -1.9801 H       1  UNL1        0.0429
     47 H          10.5989   -4.4254   -1.8524 H       1  UNL1        0.0519
     48 H           9.5108   -5.6022   -1.1734 H       1  UNL1        0.0519
     49 H          11.3974   -2.5750    0.2569 H       1  UNL1        0.0621
     50 H          13.3149   -2.7497    1.8049 H       1  UNL1        0.0618
     51 H          14.0466   -4.9546    2.6618 H       1  UNL1        0.0618
     52 H          12.9264   -7.0078    1.8687 H       1  UNL1        0.0632
     53 H           7.1691   -1.3669   -0.0879 H       1  UNL1        0.0418
@<TRIPOS>BOND
     1     1     2   am
     2     2     3    2
     3     2     4    1
     4     4     5    1
     5     5     6    1
     6     6     7    1
     7     7     8    1
     8     8     9    1
     9     9    10    2
    10     9    11   am
    11    11    12    1
    12    12    13   ar
    13    13    14   ar
    14    14    15   ar
    15    15    16    1
    16    15    17   ar
    17    17    18   ar
    18    12    18   ar
    19     8    18    1
    20     8    19    1
    21    19    20    1
    22    20    21    2
    23    20    22   am
    24    22    23    1
    25    23    24    1
    26    24    25   ar
    27    25    26   ar
    28    26    27   ar
    29    27    28   ar
    30    28    29   ar
    31    24    29   ar
    32    29    30    1
    33    22    31   am
    34    31    32    2
    35    31    33    1
    36    19    33    1
    37     6    33    1
    38     1    34    1
    39     1    35    1
    40     4    36    1
    41     4    37    1
    42     5    38    1
    43     5    39    1
    44     6    40    1
    45     7    41    1
    46    11    42    1
    47    13    43    1
    48    14    44    1
    49    17    45    1
    50    19    46    1
    51    23    47    1
    52    23    48    1
    53    25    49    1
    54    26    50    1
    55    27    51    1
    56    28    52    1
    57    33    53    1
