@<TRIPOS>MOLECULE
*****
 63 66 0 0 0
SMALL
GASTEIGER

@<TRIPOS>ATOM
      1 C           0.9694    0.0211    0.0302 C.3     1  UNL1       -0.0306
      2 C           2.4971    0.0463    0.0278 C.3     1  UNL1        0.0900
      3 O           3.0111    1.2710    0.6101 O.3     1  UNL1       -0.4614
      4 C           4.3854    1.3903    0.5915 C.2     1  UNL1        0.3392
      5 O           5.1531    0.5797    0.1433 O.2     1  UNL1       -0.2450
      6 C           4.8786    2.6393    1.2907 C.ar    1  UNL1        0.0609
      7 C           6.0290    3.3203    0.9739 C.ar    1  UNL1       -0.0459
      8 C           6.5233    4.3070    1.8704 C.ar    1  UNL1       -0.0381
      9 C           5.8813    4.6764    3.1014 C.ar    1  UNL1        0.0516
     10 N           6.4351    5.7288    3.8299 N.pl3   1  UNL1       -0.3183
     11 C           6.8258    5.6918    5.2378 C.3     1  UNL1        0.0525
     12 C           5.9443    6.6763    6.0529 C.3     1  UNL1       -0.0158
     13 N           5.9230    8.1038    5.4547 N.4     1  UNL1        0.2373
     14 C           4.8998    8.9762    6.1780 C.3     1  UNL1       -0.0347
     15 C           4.9910   10.4334    5.7577 C.3     1  UNL1       -0.0245
     16 C           5.6969    8.0700    3.9127 C.3     1  UNL1       -0.0158
     17 C           6.6358    7.0543    3.2126 C.3     1  UNL1        0.0525
     18 C           4.7005    3.9461    3.4254 C.ar    1  UNL1        0.0547
     19 N           3.9331    4.0942    4.6614 N.am    1  UNL1       -0.2951
     20 C           2.7815    3.3573    5.0865 C.2     1  UNL1        0.1411
     21 S           1.9570    2.1567    4.2345 S.2     1  UNL1       -0.0182
     22 N           2.2987    3.6977    6.3624 N.am    1  UNL1       -0.2636
     23 C           1.1902    3.0442    6.9469 C.2     1  UNL1        0.2496
     24 O           0.4500    2.1919    6.4686 O.2     1  UNL1       -0.2698
     25 C           0.6639    3.5002    8.2096 C.ar    1  UNL1        0.0408
     26 C           0.1408    2.6123    9.1513 C.ar    1  UNL1       -0.0459
     27 C          -0.5815    3.1564   10.2237 C.ar    1  UNL1       -0.0154
     28 C          -0.9267    4.5205   10.1517 C.ar    1  UNL1        0.1663
     29 C          -0.9295    5.1096    8.9208 C.ar    1  UNL1        0.1669
     30 C           0.1473    4.7745    8.1296 C.ar    1  UNL1       -0.0040
     31 O          -1.3043    6.4291    8.9829 O.3     1  UNL1       -0.4526
     32 C          -0.3683    6.7343   10.0032 C.3     1  UNL1        0.2332
     33 O          -0.2672    5.5738   10.9200 O.3     1  UNL1       -0.4526
     34 C           4.2606    3.0118    2.4657 C.ar    1  UNL1       -0.0247
     35 H           0.5926   -0.8910   -0.4513 H       1  UNL1        0.0262
     36 H           0.5588    0.8814   -0.5072 H       1  UNL1        0.0262
     37 H           0.5688    0.0523    1.0487 H       1  UNL1        0.0262
     38 H           2.8426   -0.0262   -1.0084 H       1  UNL1        0.0695
     39 H           2.8615   -0.8199    0.5934 H       1  UNL1        0.0695
     40 H           6.5449    3.0846    0.0474 H       1  UNL1        0.0626
     41 H           7.4859    4.7496    1.6112 H       1  UNL1        0.0637
     42 H           7.8701    6.0317    5.3207 H       1  UNL1        0.0516
     43 H           6.8025    4.6759    5.6422 H       1  UNL1        0.0516
     44 H           6.2957    6.7484    7.0875 H       1  UNL1        0.0830
     45 H           4.9011    6.3590    6.0615 H       1  UNL1        0.0830
     46 H           6.8512    8.5145    5.6247 H       1  UNL1        0.2034
     47 H           5.1007    8.8909    7.2528 H       1  UNL1        0.0812
     48 H           3.9062    8.5652    5.9689 H       1  UNL1        0.0812
     49 H           5.9651   10.8626    6.0112 H       1  UNL1        0.0281
     50 H           4.2232   11.0226    6.2729 H       1  UNL1        0.0281
     51 H           4.8201   10.5644    4.6864 H       1  UNL1        0.0281
     52 H           5.8862    9.0785    3.5346 H       1  UNL1        0.0830
     53 H           4.6483    7.7961    3.7571 H       1  UNL1        0.0830
     54 H           7.6756    7.3814    3.3640 H       1  UNL1        0.0516
     55 H           6.4605    7.0587    2.1312 H       1  UNL1        0.0516
     56 H           4.3595    4.7196    5.3141 H       1  UNL1        0.1539
     57 H           2.7530    4.4095    6.9117 H       1  UNL1        0.1568
     58 H           0.1792    1.5341    8.9636 H       1  UNL1        0.0626
     59 H          -1.2331    2.4378   10.7422 H       1  UNL1        0.0655
     60 H           0.6096    5.5253    7.5088 H       1  UNL1        0.0663
     61 H          -0.6037    7.6899   10.4813 H       1  UNL1        0.1166
     62 H           0.5790    6.9231    9.4559 H       1  UNL1        0.1166
     63 H           3.3683    2.4529    2.5688 H       1  UNL1        0.0645
@<TRIPOS>UNITY_ATOM_ATTR
13 1
charge 1
@<TRIPOS>BOND
     1     1     2    1
     2     2     3    1
     3     3     4    1
     4     4     5    2
     5     4     6    1
     6     6     7   ar
     7     7     8   ar
     8     8     9   ar
     9     9    10    1
    10    10    11    1
    11    11    12    1
    12    12    13    1
    13    13    14    1
    14    14    15    1
    15    13    16    1
    16    16    17    1
    17    10    17    1
    18     9    18   ar
    19    18    19    1
    20    19    20    1
    21    20    21    2
    22    20    22    1
    23    22    23   am
    24    23    24    2
    25    23    25    1
    26    25    26   ar
    27    26    27   ar
    28    27    28   ar
    29    28    29   ar
    30    29    30   ar
    31    25    30   ar
    32    29    31    1
    33    31    32    1
    34    32    33    1
    35    28    33    1
    36    18    34   ar
    37     6    34   ar
    38     1    35    1
    39     1    36    1
    40     1    37    1
    41     2    38    1
    42     2    39    1
    43     7    40    1
    44     8    41    1
    45    11    42    1
    46    11    43    1
    47    12    44    1
    48    12    45    1
    49    13    46    1
    50    14    47    1
    51    14    48    1
    52    15    49    1
    53    15    50    1
    54    15    51    1
    55    16    52    1
    56    16    53    1
    57    17    54    1
    58    17    55    1
    59    19    56    1
    60    22    57    1
    61    26    58    1
    62    27    59    1
    63    30    60    1
    64    32    61    1
    65    32    62    1
    66    34    63    1
