REMARK  3 active torsions:
REMARK  status: ('A' for Active; 'I' for Inactive)
REMARK    1  A    between atoms: C_5  and  C_6 
REMARK       I    between atoms: C_6  and  N_7 
REMARK    2  A    between atoms: C_10  and  N_11 
REMARK       I    between atoms: N_11  and  C_12 
REMARK    3  A    between atoms: C_12  and  C_14 
ROOT
ATOM      1  C   UNL d   1       2.444  -0.358   0.468  0.00  0.00     0.050 C 
ATOM      2  C   UNL d   1       0.990  -0.113   0.189  0.00  0.00    -0.035 C 
ATOM      3  C   UNL d   1       0.225  -1.277   0.081  0.00  0.00     0.010 C 
ATOM      4  C   UNL d   1      -1.156  -1.232  -0.005  0.00  0.00     0.017 C 
ATOM      5  C   UNL d   1      -1.821  -0.009  -0.008  0.00  0.00     0.034 C 
ATOM      6  C   UNL d   1      -1.060   1.183   0.006  0.00  0.00     0.047 C 
ATOM      7  C   UNL d   1       0.358   1.143   0.044  0.00  0.00     0.042 C 
ENDROOT
BRANCH   7   8
ATOM      8  N   UNL d   1       1.063   2.380  -0.074  0.00  0.00    -0.322 N 
ATOM      9  C   UNL d   1       2.433   2.584  -0.196  0.00  0.00     0.256 C 
ATOM     10  O   UNL d   1       3.007   3.373   0.552  0.00  0.00    -0.267 OA
ATOM     11  H   UNL d   1       0.554   3.217   0.195  0.00  0.00     0.169 HD
BRANCH   9  12
ATOM     12  C   UNL d   1       3.217   1.860  -1.269  0.00  0.00     0.032 A 
ATOM     13  C   UNL d   1       4.613   1.722  -1.114  0.00  0.00     0.018 A 
ATOM     14  C   UNL d   1       5.326   0.792  -1.892  0.00  0.00     0.020 A 
ATOM     15  C   UNL d   1       4.647  -0.028  -2.794  0.00  0.00     0.011 A 
ATOM     16 BR   UNL d   1       5.585  -1.323  -3.803  0.00  0.00    -0.051 Br
ATOM     17  C   UNL d   1       3.267   0.081  -2.940  0.00  0.00     0.020 A 
ATOM     18  C   UNL d   1       2.566   1.076  -2.244  0.00  0.00     0.018 A 
ENDBRANCH   9  12
ENDBRANCH   7   8
BRANCH   5  19
ATOM     19  C   UNL d   1      -3.321   0.040  -0.046  0.00  0.00     0.249 C 
ATOM     20  N   UNL d   1      -4.006  -1.156  -0.063  0.00  0.00    -0.366 N 
ATOM     21  H   UNL d   1      -3.596  -2.075  -0.046  0.00  0.00     0.159 HD
ATOM     22  H   UNL d   1      -5.017  -1.114  -0.081  0.00  0.00     0.159 HD
ATOM     23  O   UNL d   1      -3.926   1.093  -0.060  0.00  0.00    -0.268 OA
ENDBRANCH   5  19
TORSDOF 3
