REMARK  5 active torsions:
REMARK  status: ('A' for Active; 'I' for Inactive)
REMARK    1  A    between atoms: O_2  and  C_3 
REMARK    2  A    between atoms: C_13  and  C_14 
REMARK    3  A    between atoms: C_14  and  C_16 
REMARK    4  A    between atoms: C_22  and  C_23 
REMARK    5  A    between atoms: C_27  and  N_28 
ROOT
ATOM      1  C   UNL d   1       3.352  -0.292  -0.946  0.00  0.00     0.069 A 
ATOM      2  C   UNL d   1       2.992   0.028  -2.265  0.00  0.00     0.039 A 
ATOM      3  C   UNL d   1       3.726  -0.451  -3.367  0.00  0.00     0.033 A 
ATOM      4  C   UNL d   1       4.809  -1.258  -3.119  0.00  0.00     0.044 A 
ATOM      5  C   UNL d   1       5.188  -1.590  -1.817  0.00  0.00     0.018 A 
ATOM      6  C   UNL d   1       4.498  -1.073  -0.717  0.00  0.00     0.049 A 
ATOM      7  C   UNL d   1       6.266  -2.643  -1.888  0.00  0.00     0.249 A 
ATOM      8  C   UNL d   1       6.404  -2.855  -3.436  0.00  0.00     0.264 A 
ATOM      9  O   UNL d   1       7.189  -3.613  -4.003  0.00  0.00    -0.270 OA
ATOM     10  N   UNL d   1       5.525  -2.001  -4.053  0.00  0.00    -0.324 N 
ATOM     11  C   UNL d   1       6.041  -4.013  -1.205  0.00  0.00     0.122 C 
ATOM     12  C   UNL d   1       6.945  -3.993   0.086  0.00  0.00     0.065 C 
ATOM     13  C   UNL d   1       7.621  -2.591   0.131  0.00  0.00     0.209 C 
ATOM     14  C   UNL d   1       9.078  -2.480   0.591  0.00  0.00     0.109 C 
ATOM     15  S   UNL d   1      10.043  -1.893  -0.832  0.00  0.00    -0.140 SA
ATOM     16  C   UNL d   1       8.777  -2.181  -2.051  0.00  0.00     0.311 C 
ATOM     17  N   UNL d   1       7.521  -2.044  -1.275  0.00  0.00    -0.034 N 
ATOM     18  H   UNL d   1       5.356  -2.033  -5.054  0.00  0.00     0.169 HD
ATOM     19  H   UNL d   1       7.402  -1.023  -1.220  0.00  0.00     0.283 HD
ENDROOT
BRANCH  11  20
ATOM     20  C   UNL d   1       4.576  -4.439  -0.902  0.00  0.00     0.169 C 
ATOM     21  O   UNL d   1       4.330  -5.209   0.023  0.00  0.00    -0.292 OA
BRANCH  20  22
ATOM     22  C   UNL d   1       3.412  -3.974  -1.714  0.00  0.00     0.028 A 
ATOM     23  C   UNL d   1       3.370  -4.042  -3.107  0.00  0.00     0.018 A 
ATOM     24  C   UNL d   1       2.409  -3.298  -3.808  0.00  0.00     0.020 A 
ATOM     25  C   UNL d   1       1.510  -2.531  -3.086  0.00  0.00     0.116 A 
ATOM     26  N   UNL d   1       1.452  -2.549  -1.739  0.00  0.00    -0.272 NA
ATOM     27  C   UNL d   1       2.394  -3.273  -1.077  0.00  0.00     0.131 A 
ENDBRANCH  20  22
ENDBRANCH  11  20
BRANCH  12  28
ATOM     28  C   UNL d   1       7.956  -5.139   0.141  0.00  0.00    -0.049 C 
ATOM     29  C   UNL d   1       8.987  -5.261  -0.803  0.00  0.00     0.007 C 
ATOM     30  C   UNL d   1      10.022  -6.176  -0.721  0.00  0.00     0.003 C 
ATOM     31  C   UNL d   1       9.923  -7.183   0.206  0.00  0.00     0.036 C 
ATOM     32  C   UNL d   1       8.884  -7.135   1.144  0.00  0.00     0.103 C 
ATOM     33  C   UNL d   1       7.963  -6.065   1.184  0.00  0.00     0.043 C 
BRANCH  32  34
ATOM     34  N   UNL d   1       8.721  -8.265   2.056  0.00  0.00    -0.116 N 
ATOM     35  O   UNL d   1       9.476  -9.234   1.904  0.00  0.00    -0.532 OA
ATOM     36  O   UNL d   1       7.820  -8.189   2.901  0.00  0.00    -0.532 OA
ENDBRANCH  32  34
ENDBRANCH  12  28
BRANCH   1  37
ATOM     37  O   UNL d   1       2.613   0.013   0.168  0.00  0.00    -0.356 OA
ATOM     38  C   UNL d   1       1.178   0.011   0.067  0.00  0.00     0.210 C 
ENDBRANCH   1  37
TORSDOF 5
