REMARK  5 active torsions:
REMARK  status: ('A' for Active; 'I' for Inactive)
REMARK    1  A    between atoms: C_10  and  O_11 
REMARK    2  A    between atoms: C_13  and  C_14 
REMARK    3  A    between atoms: C_17  and  O_18 
REMARK    4  A    between atoms: O_18  and  C_19 
REMARK    5  A    between atoms: C_19  and  C_21 
ROOT
ATOM      1  C   UNL d   1       0.929   0.096   0.158  0.00  0.00     0.270 C 
ATOM      2  N   UNL d   1       2.434  -0.007   0.072  0.00  0.00    -0.070 N 
ATOM      3  C   UNL d   1       2.967   0.232  -1.336  0.00  0.00     0.239 C 
ATOM      4  C   UNL d   1       2.340  -0.767  -2.307  0.00  0.00     0.068 C 
ATOM      5  C   UNL d   1       2.385  -2.163  -1.770  0.00  0.00    -0.024 A 
ATOM      6  C   UNL d   1       2.671  -2.421  -0.434  0.00  0.00     0.018 A 
ATOM      7  S   UNL d   1       2.661  -4.090  -0.084  0.00  0.00    -0.074 SA
ATOM      8  C   UNL d   1       2.270  -4.471  -1.695  0.00  0.00     0.087 A 
ATOM      9  C   UNL d   1       2.118  -3.359  -2.497  0.00  0.00     0.057 A 
ATOM     10  C   UNL d   1       1.794  -3.590  -3.900  0.00  0.00     0.173 C 
ATOM     11  N   UNL d   1       1.883  -4.731  -4.470  0.00  0.00    -0.235 NA
ATOM     12  C   UNL d   1       2.417  -5.819  -3.648  0.00  0.00     0.243 C 
ATOM     13  N   UNL d   1       2.160  -5.706  -2.216  0.00  0.00    -0.357 N 
ATOM     14  C   UNL d   1       2.935  -1.361   0.597  0.00  0.00     0.281 C 
ATOM     15  H   UNL d   1       2.826   0.726   0.678  0.00  0.00     0.279 HD
ATOM     16  H   UNL d   1       2.221  -6.567  -1.683  0.00  0.00     0.162 HD
ENDROOT
BRANCH  12  17
ATOM     17  C   UNL d   1       3.914  -5.973  -3.932  0.00  0.00    -0.014 A 
ATOM     18  C   UNL d   1       4.856  -4.963  -3.638  0.00  0.00     0.014 A 
ATOM     19  C   UNL d   1       6.190  -5.045  -4.061  0.00  0.00     0.038 A 
ATOM     20  C   UNL d   1       6.626  -6.190  -4.721  0.00  0.00     0.079 A 
ATOM     21  C   UNL d   1       5.701  -7.195  -5.009  0.00  0.00     0.038 A 
ATOM     22  C   UNL d   1       4.366  -7.094  -4.623  0.00  0.00     0.014 A 
BRANCH  20  23
ATOM     23  O   UNL d   1       8.011  -6.276  -5.028  0.00  0.00    -0.275 OA
BRANCH  23  24
ATOM     24  C   UNL d   1       8.550  -7.422  -5.593  0.00  0.00     0.298 C 
ATOM     25  O   UNL d   1       7.962  -8.440  -5.962  0.00  0.00    -0.259 OA
BRANCH  24  26
ATOM     26  C   UNL d   1      10.008  -7.375  -5.749  0.00  0.00     0.039 A 
ATOM     27  C   UNL d   1      10.548  -7.937  -6.917  0.00  0.00     0.017 A 
ATOM     28  C   UNL d   1      11.917  -8.169  -7.012  0.00  0.00     0.001 A 
ATOM     29  C   UNL d   1      12.754  -7.783  -5.968  0.00  0.00     0.000 A 
ATOM     30  C   UNL d   1      12.219  -7.214  -4.808  0.00  0.00     0.001 A 
ATOM     31  C   UNL d   1      10.840  -7.018  -4.688  0.00  0.00     0.017 A 
ENDBRANCH  24  26
ENDBRANCH  23  24
ENDBRANCH  20  23
ENDBRANCH  12  17
BRANCH  10  32
ATOM     32  O   UNL d   1       1.393  -2.545  -4.652  0.00  0.00    -0.344 OA
ATOM     33  H   UNL d   1       1.232  -1.738  -4.162  0.00  0.00     0.219 HD
ENDBRANCH  10  32
TORSDOF 5
