@<TRIPOS>MOLECULE
*****
 48 48 0 0 0
SMALL
GASTEIGER

@<TRIPOS>ATOM
      1 C           1.0994   -0.1821    0.5125 C.3     1  UNL1        0.0790
      2 O           2.4649   -0.0656    0.1150 O.3     1  UNL1       -0.4915
      3 C           2.9445   -0.7912   -0.9581 C.ar    1  UNL1        0.1615
      4 C           4.0488   -1.5984   -0.5961 C.ar    1  UNL1       -0.0163
      5 C           4.8398   -2.2455   -1.5526 C.ar    1  UNL1       -0.0581
      6 C           4.5019   -2.1538   -2.8945 C.ar    1  UNL1       -0.0581
      7 C           3.4176   -1.3589   -3.2778 C.ar    1  UNL1       -0.0163
      8 C           2.6408   -0.6441   -2.3387 C.ar    1  UNL1        0.1620
      9 O           1.7031    0.1631   -2.9847 O.3     1  UNL1       -0.4868
     10 C           0.7854    0.7664   -2.0953 C.3     1  UNL1        0.1052
     11 C          -0.3883    1.6121   -2.5925 C.3     1  UNL1        0.0473
     12 N          -1.1881    2.2784   -1.5204 N.am    1  UNL1       -0.2950
     13 C          -2.2902    3.0348   -1.8583 C.2     1  UNL1        0.3161
     14 O          -2.6617    3.1529   -3.0336 O.2     1  UNL1       -0.2513
     15 N          -2.9670    3.6520   -0.8222 N.am    1  UNL1       -0.2182
     16 N          -4.1134    4.4657   -1.1323 N.am    1  UNL1       -0.2332
     17 C          -4.8064    5.1104   -0.1169 C.2     1  UNL1        0.2291
     18 O          -4.4680    5.0101    1.0646 O.2     1  UNL1       -0.2743
     19 C          -6.0231    5.9364   -0.5633 C.3     1  UNL1        0.0256
     20 C          -6.7539    6.6072    0.6216 C.3     1  UNL1       -0.0424
     21 C          -7.9948    7.4391    0.2260 C.3     1  UNL1       -0.0463
     22 C          -9.0490    6.5810   -0.4727 C.3     1  UNL1       -0.0627
     23 C          -8.6245    8.0906    1.4650 C.3     1  UNL1       -0.0627
     24 H           0.9864    0.0331    1.5760 H       1  UNL1        0.0660
     25 H           0.6445   -1.1428    0.2552 H       1  UNL1        0.0660
     26 H           0.5162    0.6453    0.1110 H       1  UNL1        0.0660
     27 H           4.3212   -1.7053    0.4530 H       1  UNL1        0.0655
     28 H           5.7264   -2.8014   -1.2524 H       1  UNL1        0.0619
     29 H           5.0874   -2.6824   -3.6442 H       1  UNL1        0.0619
     30 H           3.1929   -1.2663   -4.3387 H       1  UNL1        0.0655
     31 H           1.3812    1.4255   -1.4582 H       1  UNL1        0.0712
     32 H           0.2861   -0.0866   -1.6348 H       1  UNL1        0.0712
     33 H          -1.0755    0.9547   -3.1343 H       1  UNL1        0.0496
     34 H          -0.0296    2.3780   -3.2815 H       1  UNL1        0.0496
     35 H          -0.8991    2.2339   -0.5500 H       1  UNL1        0.1504
     36 H          -2.7155    3.6062    0.1624 H       1  UNL1        0.1744
     37 H          -4.3670    4.5154   -2.1191 H       1  UNL1        0.1728
     38 H          -6.7078    5.2608   -1.0865 H       1  UNL1        0.0359
     39 H          -5.7028    6.7111   -1.2701 H       1  UNL1        0.0359
     40 H          -6.0491    7.2609    1.1529 H       1  UNL1        0.0272
     41 H          -7.0584    5.8372    1.3424 H       1  UNL1        0.0272
     42 H          -7.6846    8.2416   -0.4556 H       1  UNL1        0.0296
     43 H          -9.3802    5.7665    0.1807 H       1  UNL1        0.0232
     44 H          -8.6610    6.1429   -1.3955 H       1  UNL1        0.0232
     45 H          -9.9256    7.1781   -0.7444 H       1  UNL1        0.0232
     46 H          -8.9630    7.3336    2.1814 H       1  UNL1        0.0232
     47 H          -9.4942    8.6984    1.1884 H       1  UNL1        0.0232
     48 H          -7.9110    8.7453    1.9759 H       1  UNL1        0.0232
@<TRIPOS>BOND
     1     1     2    1
     2     2     3    1
     3     3     4   ar
     4     4     5   ar
     5     5     6   ar
     6     6     7   ar
     7     7     8   ar
     8     3     8   ar
     9     8     9    1
    10     9    10    1
    11    10    11    1
    12    11    12    1
    13    12    13   am
    14    13    14    2
    15    13    15   am
    16    15    16    1
    17    16    17   am
    18    17    18    2
    19    17    19    1
    20    19    20    1
    21    20    21    1
    22    21    22    1
    23    21    23    1
    24     1    24    1
    25     1    25    1
    26     1    26    1
    27     4    27    1
    28     5    28    1
    29     6    29    1
    30     7    30    1
    31    10    31    1
    32    10    32    1
    33    11    33    1
    34    11    34    1
    35    12    35    1
    36    15    36    1
    37    16    37    1
    38    19    38    1
    39    19    39    1
    40    20    40    1
    41    20    41    1
    42    21    42    1
    43    22    43    1
    44    22    44    1
    45    22    45    1
    46    23    46    1
    47    23    47    1
    48    23    48    1
