REMARK  8 active torsions:
REMARK  status: ('A' for Active; 'I' for Inactive)
REMARK    1  A    between atoms: C_2  and  C_14 
REMARK    2  A    between atoms: C_2  and  N_3 
REMARK       I    between atoms: N_3  and  C_4 
REMARK    3  A    between atoms: C_4  and  C_6 
REMARK    4  A    between atoms: C_7  and  C_8 
REMARK       I    between atoms: C_14  and  N_16 
REMARK    5  A    between atoms: N_16  and  N_17 
REMARK       I    between atoms: N_17  and  C_18 
REMARK    6  A    between atoms: C_18  and  C_20 
REMARK    7  A    between atoms: C_20  and  C_21 
REMARK    8  A    between atoms: C_21  and  C_22 
ROOT
ATOM      1  C   UNL d   1       3.008   1.023   1.029  0.00  0.00     0.258 C 
ATOM      2  O   UNL d   1       2.243   1.667   1.751  0.00  0.00    -0.269 OA
ATOM      3  N   UNL d   1       4.391   1.117   1.173  0.00  0.00    -0.266 N 
ATOM      4  H   UNL d   1       5.071   0.587   0.629  0.00  0.00     0.190 HD
ENDROOT
BRANCH   1   5
ATOM      5  C   UNL d   1       2.501  -0.007  -0.034  0.00  0.00     0.174 C 
ATOM      6  C   UNL d   1       3.178   0.234  -1.381  0.00  0.00     0.042 C 
BRANCH   5   7
ATOM      7  N   UNL d   1       1.012  -0.058  -0.143  0.00  0.00    -0.345 N 
ATOM      8  C   UNL d   1       0.294   0.435  -1.211  0.00  0.00     0.241 C 
ATOM      9  O   UNL d   1       0.794   0.911  -2.231  0.00  0.00    -0.269 OA
ATOM     10  H   UNL d   1       0.512  -0.341   0.692  0.00  0.00     0.163 HD
BRANCH   8  11
ATOM     11  C   UNL d   1      -1.182   0.354  -1.113  0.00  0.00     0.075 C 
ATOM     12  C   UNL d   1      -1.905   0.780  -2.169  0.00  0.00     0.017 C 
BRANCH  12  13
ATOM     13  C   UNL d   1      -3.369   0.823  -2.188  0.00  0.00    -0.036 A 
ATOM     14  C   UNL d   1      -4.091   0.442  -3.328  0.00  0.00     0.011 A 
ATOM     15  C   UNL d   1      -5.484   0.568  -3.353  0.00  0.00     0.001 A 
ATOM     16  C   UNL d   1      -6.164   1.022  -2.223  0.00  0.00     0.000 A 
ATOM     17  C   UNL d   1      -5.452   1.412  -1.093  0.00  0.00     0.001 A 
ATOM     18  C   UNL d   1      -4.061   1.332  -1.085  0.00  0.00     0.011 A 
ENDBRANCH  12  13
ENDBRANCH   8  11
ENDBRANCH   5   7
ENDBRANCH   1   5
BRANCH   3  19
ATOM     19  N   UNL d   1       4.947   2.062   2.067  0.00  0.00    -0.267 N 
ATOM     20  C   UNL d   1       6.328   2.172   2.145  0.00  0.00     0.236 C 
ATOM     21  O   UNL d   1       7.086   1.472   1.476  0.00  0.00    -0.272 OA
ATOM     22  H   UNL d   1       4.294   2.631   2.605  0.00  0.00     0.190 HD
BRANCH  20  23
ATOM     23  C   UNL d   1       6.810   3.201   3.148  0.00  0.00     0.105 C 
BRANCH  23  24
ATOM     24  C   UNL d   1       8.345   3.298   3.255  0.00  0.00     0.014 C 
BRANCH  24  25
ATOM     25  C   UNL d   1       8.830   4.364   4.265  0.00  0.00    -0.014 C 
ATOM     26  C   UNL d   1       8.699   5.775   3.669  0.00  0.00     0.004 C 
ATOM     27  C   UNL d   1       8.982   6.874   4.687  0.00  0.00     0.000 C 
ATOM     28  C   UNL d   1       8.134   6.704   5.942  0.00  0.00     0.000 C 
ATOM     29  C   UNL d   1       8.382   5.343   6.582  0.00  0.00     0.000 C 
ATOM     30  C   UNL d   1       8.073   4.233   5.596  0.00  0.00     0.004 C 
ENDBRANCH  24  25
ENDBRANCH  23  24
ENDBRANCH  20  23
ENDBRANCH   3  19
TORSDOF 8
