REMARK  12 active torsions:
REMARK  status: ('A' for Active; 'I' for Inactive)
REMARK    1  A    between atoms: C_2  and  C_3 
REMARK    2  A    between atoms: C_4  and  C_3 
REMARK    3  A    between atoms: C_4  and  N_13 
REMARK    4  A    between atoms: C_4  and  C_5 
REMARK       I    between atoms: C_5  and  N_7 
REMARK    5  A    between atoms: N_7  and  C_8 
REMARK    6  A    between atoms: C_8  and  C_9 
REMARK    7  A    between atoms: C_9  and  C_10 
REMARK       I    between atoms: N_13  and  C_14 
REMARK    8  A    between atoms: N_13  and  C_25 
REMARK    9  A    between atoms: C_14  and  C_16 
REMARK   10  A    between atoms: C_19  and  C_20 
REMARK       I    between atoms: C_20  and  N_21 
REMARK   11  A    between atoms: C_23  and  N_24 
REMARK   12  A    between atoms: C_28  and  C_29 
ROOT
ATOM      1  N   UNL d   1       4.922  -2.249   1.688  0.00  0.00    -0.299 N 
ATOM      2  C   UNL d   1       4.050  -3.041   2.540  0.00  0.00     0.270 C 
ATOM      3  O   UNL d   1       4.511  -3.867   3.332  0.00  0.00    -0.266 OA
ENDROOT
BRANCH   1   4
ATOM      4  C   UNL d   1       4.498  -0.976   0.867  0.00  0.00     0.185 C 
BRANCH   4   5
ATOM      5  C   UNL d   1       2.974  -0.666   0.601  0.00  0.00     0.241 C 
ATOM      6  O   UNL d   1       2.252  -0.278   1.524  0.00  0.00    -0.271 OA
ATOM      7  N   UNL d   1       2.480  -0.840  -0.706  0.00  0.00    -0.359 N 
ATOM      8  H   UNL d   1       3.053  -1.397  -1.319  0.00  0.00     0.162 HD
BRANCH   7   9
ATOM      9  C   UNL d   1       1.017  -0.941  -0.866  0.00  0.00     0.123 C 
BRANCH   9  10
ATOM     10  C   UNL d   1       0.408  -1.731  -2.092  0.00  0.00     0.023 C 
BRANCH  10  11
ATOM     11  C   UNL d   1      -1.159  -1.864  -2.133  0.00  0.00    -0.021 C 
ATOM     12  C   UNL d   1      -1.803  -0.537  -1.791  0.00  0.00     0.009 C 
ATOM     13  C   UNL d   1      -1.736  -2.592  -3.338  0.00  0.00     0.009 C 
ENDBRANCH  10  11
ENDBRANCH   9  10
ENDBRANCH   7   9
ENDBRANCH   4   5
BRANCH   4  14
ATOM     14  C   UNL d   1       4.850   0.466   1.397  0.00  0.00     0.035 C 
BRANCH  14  15
ATOM     15  C   UNL d   1       6.282   0.785   1.625  0.00  0.00    -0.002 C 
ATOM     16  C   UNL d   1       6.821   2.088   2.088  0.00  0.00     0.005 C 
ENDBRANCH  14  15
ENDBRANCH   4  14
ENDBRANCH   1   4
BRANCH   1  17
ATOM     17  C   UNL d   1       6.373  -2.585   1.827  0.00  0.00     0.038 C 
ATOM     18  C   UNL d   1       6.931  -3.840   1.994  0.00  0.00     0.030 C 
ATOM     19  C   UNL d   1       8.322  -4.000   2.321  0.00  0.00     0.009 C 
ATOM     20  C   UNL d   1       9.179  -2.901   2.535  0.00  0.00    -0.058 C 
ATOM     21  C   UNL d   1       8.613  -1.671   2.424  0.00  0.00     0.009 C 
ATOM     22  C   UNL d   1       7.360  -1.636   1.847  0.00  0.00     0.030 C 
BRANCH  20  23
ATOM     23  C   UNL d   1      10.679  -2.990   2.668  0.00  0.00     0.034 C 
ATOM     24  C   UNL d   1      11.402  -1.629   2.741  0.00  0.00     0.010 C 
ENDBRANCH  20  23
ENDBRANCH   1  17
BRANCH   2  25
ATOM     25  C   UNL d   1       2.612  -2.957   2.425  0.00  0.00     0.120 C 
ATOM     26  S   UNL d   1       1.607  -2.712   3.784  0.00  0.00     0.020 SA
ATOM     27  N   UNL d   1       0.161  -2.597   2.965  0.00  0.00    -0.203 NA
ATOM     28  C   UNL d   1       0.383  -2.950   1.700  0.00  0.00     0.160 C 
ATOM     29  C   UNL d   1       1.811  -3.198   1.338  0.00  0.00     0.085 C 
BRANCH  28  30
ATOM     30  C   UNL d   1      -0.717  -3.047   0.721  0.00  0.00     0.271 C 
ATOM     31  N   UNL d   1      -1.855  -2.222   0.849  0.00  0.00    -0.365 N 
ATOM     32  H   UNL d   1      -2.297  -2.024   1.729  0.00  0.00     0.159 HD
ATOM     33  H   UNL d   1      -2.506  -2.174   0.070  0.00  0.00     0.159 HD
ATOM     34  O   UNL d   1      -0.556  -3.751  -0.234  0.00  0.00    -0.266 OA
ENDBRANCH  28  30
BRANCH  29  35
ATOM     35  N   UNL d   1       2.388  -3.467   0.118  0.00  0.00    -0.396 N 
ATOM     36  H   UNL d   1       1.867  -3.255  -0.726  0.00  0.00     0.156 HD
ATOM     37  H   UNL d   1       3.367  -3.218  -0.032  0.00  0.00     0.156 HD
ENDBRANCH  29  35
ENDBRANCH   2  25
TORSDOF 12
