REMARK  9 active torsions:
REMARK  status: ('A' for Active; 'I' for Inactive)
REMARK    1  A    between atoms: O_2  and  C_3 
REMARK    2  A    between atoms: C_6  and  C_7 
REMARK    3  A    between atoms: C_8  and  C_9 
REMARK       I    between atoms: C_9  and  N_11 
REMARK    4  A    between atoms: N_11  and  C_12 
REMARK    5  A    between atoms: C_12  and  N_14 
REMARK    6  A    between atoms: N_14  and  C_15 
REMARK    7  A    between atoms: C_20  and  C_21 
REMARK       I    between atoms: C_21  and  N_23 
REMARK    8  A    between atoms: N_23  and  C_24 
REMARK    9  A    between atoms: C_24  and  C_25 
ROOT
ATOM      1  N   UNL d   1       6.191 -10.265   2.969  0.00  0.00    -0.332 N 
ATOM      2  H   UNL d   1       5.460 -10.623   2.361  0.00  0.00     0.168 HD
ENDROOT
BRANCH   1   3
ATOM      3  C   UNL d   1       6.870  -9.124   2.420  0.00  0.00     0.179 C 
ATOM      4  S   UNL d   1       8.557  -9.022   2.456  0.00  0.00    -0.040 SA
BRANCH   3   5
ATOM      5  N   UNL d   1       5.942  -8.076   1.952  0.00  0.00    -0.300 N 
ATOM      6  C   UNL d   1       6.272  -6.758   1.471  0.00  0.00     0.247 C 
ATOM      7  O   UNL d   1       7.417  -6.432   1.161  0.00  0.00    -0.268 OA
ATOM      8  H   UNL d   1       4.962  -8.249   2.132  0.00  0.00     0.171 HD
BRANCH   6   9
ATOM      9  C   UNL d   1       5.214  -5.645   1.393  0.00  0.00     0.075 C 
ATOM     10  C   UNL d   1       5.562  -4.315   1.412  0.00  0.00     0.017 C 
BRANCH  10  11
ATOM     11  C   UNL d   1       4.702  -3.119   1.341  0.00  0.00    -0.036 A 
ATOM     12  C   UNL d   1       5.132  -1.798   1.625  0.00  0.00     0.014 A 
ATOM     13  C   UNL d   1       4.312  -0.712   1.294  0.00  0.00     0.037 A 
ATOM     14  C   UNL d   1       3.108  -0.946   0.631  0.00  0.00     0.068 A 
ATOM     15  C   UNL d   1       2.671  -2.249   0.410  0.00  0.00     0.037 A 
ATOM     16  C   UNL d   1       3.453  -3.318   0.784  0.00  0.00     0.014 A 
BRANCH  14  17
ATOM     17  O   UNL d   1       2.472   0.149   0.122  0.00  0.00    -0.356 OA
ATOM     18  C   UNL d   1       1.060   0.016   0.046  0.00  0.00     0.210 C 
ENDBRANCH  14  17
ENDBRANCH  10  11
ENDBRANCH   6   9
ENDBRANCH   3   5
ENDBRANCH   1   3
BRANCH   1  19
ATOM     19  C   UNL d   1       6.907 -11.356   3.658  0.00  0.00     0.050 A 
ATOM     20  C   UNL d   1       7.045 -12.599   2.988  0.00  0.00     0.030 A 
ATOM     21  C   UNL d   1       7.660 -13.713   3.598  0.00  0.00     0.002 A 
ATOM     22  C   UNL d   1       8.205 -13.600   4.869  0.00  0.00     0.001 A 
ATOM     23  C   UNL d   1       8.100 -12.383   5.542  0.00  0.00     0.019 A 
ATOM     24  C   UNL d   1       7.447 -11.255   4.971  0.00  0.00     0.058 A 
BRANCH  24  25
ATOM     25  C   UNL d   1       7.387 -10.043   5.854  0.00  0.00     0.254 C 
ATOM     26  O   UNL d   1       8.057 -10.007   6.908  0.00  0.00    -0.268 OA
ATOM     27  N   UNL d   1       6.600  -8.986   5.481  0.00  0.00    -0.354 N 
ATOM     28  H   UNL d   1       6.160  -9.064   4.575  0.00  0.00     0.162 HD
BRANCH  27  29
ATOM     29  C   UNL d   1       6.749  -7.671   6.104  0.00  0.00     0.155 C 
BRANCH  29  30
ATOM     30  C   UNL d   1       6.271  -6.521   5.236  0.00  0.00     0.139 C 
ATOM     31  C   UNL d   1       7.357  -6.254   4.239  0.00  0.00     0.035 C 
ATOM     32  C   UNL d   1       6.983  -4.900   3.812  0.00  0.00     0.029 C 
ATOM     33  C   UNL d   1       6.649  -4.199   5.067  0.00  0.00     0.168 C 
ATOM     34  O   UNL d   1       6.096  -5.246   5.907  0.00  0.00    -0.384 OA
ENDBRANCH  29  30
ENDBRANCH  27  29
ENDBRANCH  24  25
ENDBRANCH   1  19
TORSDOF 9
