REMARK  6 active torsions:
REMARK  status: ('A' for Active; 'I' for Inactive)
REMARK    1  A    between atoms: C_12  and  N_13 
REMARK       I    between atoms: N_13  and  C_14 
REMARK    2  A    between atoms: C_14  and  C_16 
REMARK    3  A    between atoms: C_16  and  O_17 
REMARK    4  A    between atoms: O_17  and  C_18 
REMARK    5  A    between atoms: C_18  and  C_20 
REMARK    6  A    between atoms: C_25  and  C_26 
ROOT
ATOM      1  C   UNL d   1       7.936  -2.127  -2.819  0.00  0.00     0.281 C 
ENDROOT
BRANCH   1   2
ATOM      2  C   UNL d   1       6.425  -2.038  -3.017  0.00  0.00     0.244 C 
ATOM      3  N   UNL d   1       5.598  -2.562  -2.039  0.00  0.00    -0.329 N 
ATOM      4  H   UNL d   1       5.919  -3.285  -1.410  0.00  0.00     0.165 HD
ATOM      5  O   UNL d   1       5.971  -1.545  -4.046  0.00  0.00    -0.271 OA
BRANCH   3   6
ATOM      6  C   UNL d   1       4.165  -2.381  -2.151  0.00  0.00     0.264 A 
ATOM      7  O   UNL d   1       3.535  -3.276  -1.186  0.00  0.00    -0.353 OA
ATOM      8  C   UNL d   1       2.772  -2.489  -0.232  0.00  0.00     0.152 A 
ATOM      9  C   UNL d   1       3.029  -1.080  -0.613  0.00  0.00    -0.017 A 
ATOM     10  C   UNL d   1       1.279  -2.816  -0.279  0.00  0.00     0.044 C 
ATOM     11  C   UNL d   1       3.775  -1.032  -1.712  0.00  0.00     0.066 A 
ATOM     12  C   UNL d   1       2.564   0.109   0.140  0.00  0.00     0.105 C 
ATOM     13  C   UNL d   1       4.089   0.262  -2.309  0.00  0.00     0.266 C 
ATOM     14  N   UNL d   1       3.760   1.370  -1.581  0.00  0.00    -0.287 N 
ATOM     15  O   UNL d   1       4.620   0.435  -3.400  0.00  0.00    -0.266 OA
ATOM     16  N   UNL d   1       2.913   1.405  -0.468  0.00  0.00    -0.229 NA
ATOM     17  H   UNL d   1       3.980   2.233  -2.072  0.00  0.00     0.184 HD
ATOM     18  H   UNL d   1       3.397   1.976   0.229  0.00  0.00     0.147 HD
ATOM     19  C   UNL d   1       3.219   0.074   1.516  0.00  0.00     0.033 C 
ENDBRANCH   3   6
ENDBRANCH   1   2
BRANCH   1  20
ATOM     20  O   UNL d   1       8.584  -1.182  -3.713  0.00  0.00    -0.307 OA
BRANCH  20  21
ATOM     21  C   UNL d   1       9.935  -1.268  -3.731  0.00  0.00     0.315 C 
ATOM     22  O   UNL d   1      10.572  -2.028  -3.014  0.00  0.00    -0.257 OA
BRANCH  21  23
ATOM     23  C   UNL d   1      10.587  -0.422  -4.785  0.00  0.00     0.163 A 
ATOM     24  N   UNL d   1      10.257   0.903  -4.877  0.00  0.00    -0.251 NA
ATOM     25  C   UNL d   1      11.038   1.642  -5.713  0.00  0.00     0.137 A 
ATOM     26  C   UNL d   1      12.094   1.105  -6.435  0.00  0.00     0.136 A 
ATOM     27  N   UNL d   1      12.405  -0.206  -6.374  0.00  0.00    -0.254 NA
ATOM     28  C   UNL d   1      11.634  -0.966  -5.534  0.00  0.00     0.127 A 
BRANCH  28  29
ATOM     29  C   UNL d   1      12.031  -2.367  -5.439  0.00  0.00     0.130 A 
ATOM     30  N   UNL d   1      13.194  -2.780  -4.984  0.00  0.00    -0.238 NA
ATOM     31  C   UNL d   1      13.194  -4.155  -4.886  0.00  0.00     0.075 A 
ATOM     32  C   UNL d   1      14.259  -4.935  -4.402  0.00  0.00     0.033 A 
ATOM     33  C   UNL d   1      12.026  -4.792  -5.310  0.00  0.00     0.035 A 
ATOM     34  C   UNL d   1      14.135  -6.325  -4.359  0.00  0.00     0.002 A 
ATOM     35  C   UNL d   1      12.957  -6.941  -4.773  0.00  0.00     0.002 A 
ATOM     36  C   UNL d   1      11.879  -6.187  -5.248  0.00  0.00     0.021 A 
ATOM     37  S   UNL d   1      10.925  -3.607  -5.893  0.00  0.00    -0.066 SA
ENDBRANCH  28  29
ENDBRANCH  21  23
ENDBRANCH  20  21
ENDBRANCH   1  20
TORSDOF 6
