@<TRIPOS>MOLECULE
*****
 36 37 0 0 0
SMALL
GASTEIGER

@<TRIPOS>ATOM
      1 C           2.4490   -0.3934   -0.0056 C.3     1  UNL1       -0.0380
      2 C           0.9892   -0.0958    0.0030 C.ar    1  UNL1       -0.0292
      3 C           0.2123   -1.2625    0.0076 C.ar    1  UNL1       -0.0564
      4 C          -1.1620   -1.2130    0.0014 C.ar    1  UNL1       -0.0493
      5 C          -1.8043    0.0208   -0.0096 C.ar    1  UNL1        0.0383
      6 C          -3.3041    0.0578   -0.0377 C.2     1  UNL1        0.2416
      7 N          -3.9942   -1.1344   -0.0543 N.am    1  UNL1       -0.3253
      8 O          -3.9165    1.1183   -0.0502 O.2     1  UNL1       -0.2704
      9 C          -1.0240    1.2205   -0.0029 C.ar    1  UNL1       -0.0281
     10 C           0.4012    1.1915    0.0003 C.ar    1  UNL1        0.0373
     11 N           1.1455    2.4487   -0.0076 N.am    1  UNL1       -0.2817
     12 C           2.5255    2.6169   -0.0216 C.2     1  UNL1        0.2411
     13 O           3.3887    1.7450   -0.0073 O.2     1  UNL1       -0.2705
     14 C           3.1126    3.9713   -0.0358 C.2     1  UNL1        0.0025
     15 C           4.4686    3.9913   -0.0433 C.2     1  UNL1       -0.0314
     16 C           5.2734    5.1931    0.0051 C.ar    1  UNL1        0.0640
     17 C           4.9234    6.1986    0.8875 C.ar    1  UNL1       -0.0363
     18 C           5.6438    7.3768    0.8540 C.ar    1  UNL1       -0.0583
     19 C           6.7167    7.4896   -0.0220 C.ar    1  UNL1       -0.0436
     20 C           7.0427    6.4009   -0.8165 C.ar    1  UNL1        0.0282
     21 N           6.3444    5.2469   -0.8182 N.ar    1  UNL1       -0.2556
     22 H           2.7151   -1.4493   -0.0062 H       1  UNL1        0.0278
     23 H           2.8691   -0.0061    0.9289 H       1  UNL1        0.0278
     24 H           2.8557   -0.0080   -0.9472 H       1  UNL1        0.0278
     25 H           0.7050   -2.2330    0.0099 H       1  UNL1        0.0621
     26 H          -1.6766   -2.1638    0.0013 H       1  UNL1        0.0625
     27 H          -3.5878   -2.0571   -0.0538 H       1  UNL1        0.1453
     28 H          -5.0051   -1.0958   -0.0807 H       1  UNL1        0.1453
     29 H          -1.5644    2.1676   -0.0054 H       1  UNL1        0.0644
     30 H           0.5786    3.2893   -0.0102 H       1  UNL1        0.1551
     31 H           2.5016    4.8570   -0.0255 H       1  UNL1        0.0670
     32 H           5.0841    3.0874   -0.0726 H       1  UNL1        0.0640
     33 H           4.0951    6.0646    1.5729 H       1  UNL1        0.0639
     34 H           5.3544    8.1957    1.5018 H       1  UNL1        0.0619
     35 H           7.2872    8.4079   -0.0794 H       1  UNL1        0.0633
     36 H           7.8868    6.4388   -1.4999 H       1  UNL1        0.0830
@<TRIPOS>BOND
     1     1     2    1
     2     2     3   ar
     3     3     4   ar
     4     4     5   ar
     5     5     6    1
     6     6     7   am
     7     6     8    2
     8     5     9   ar
     9     9    10   ar
    10     2    10   ar
    11    10    11    1
    12    11    12   am
    13    12    13    2
    14    12    14    1
    15    14    15    2
    16    15    16    1
    17    16    17   ar
    18    17    18   ar
    19    18    19   ar
    20    19    20   ar
    21    20    21   ar
    22    16    21   ar
    23     1    22    1
    24     1    23    1
    25     1    24    1
    26     3    25    1
    27     4    26    1
    28     7    27    1
    29     7    28    1
    30     9    29    1
    31    11    30    1
    32    14    31    1
    33    15    32    1
    34    17    33    1
    35    18    34    1
    36    19    35    1
    37    20    36    1
