@<TRIPOS>MOLECULE
*****
 67 70 0 0 0
SMALL
GASTEIGER

@<TRIPOS>ATOM
      1 C           1.0168   -0.0207    0.0869 C.3     1  UNL1       -0.0653
      2 C           2.5391    0.0185    0.0484 C.3     1  UNL1       -0.0556
      3 C           3.0675    1.2744   -0.6921 C.3     1  UNL1       -0.0473
      4 C           4.5957    1.2274   -0.8120 C.3     1  UNL1       -0.0003
      5 C           5.4188    2.2528   -1.5796 C.2     1  UNL1        0.1247
      6 N           6.4775    2.7296   -0.9920 N.2     1  UNL1       -0.0798
      7 N           6.8916    3.8645   -1.6900 N.pl3   1  UNL1       -0.0340
      8 C           6.2766    5.0194   -1.2253 C.2     1  UNL1        0.3489
      9 N           5.3619    4.8966   -0.3056 N.2     1  UNL1       -0.0968
     10 C           6.4801    6.2576   -2.0553 C.2     1  UNL1        0.1318
     11 C           5.8219    7.4118   -1.8306 C.2     1  UNL1       -0.0344
     12 C           4.8812    7.5583   -0.7152 C.ar    1  UNL1       -0.0204
     13 C           3.5218    7.8107   -0.8960 C.ar    1  UNL1       -0.0509
     14 C           2.6793    7.8247    0.2244 C.ar    1  UNL1       -0.0157
     15 C           3.1668    7.4324    1.4867 C.ar    1  UNL1        0.1621
     16 O           2.2703    7.4537    2.5251 O.3     1  UNL1       -0.4849
     17 C           2.7855    6.9889    3.8019 C.3     1  UNL1        0.1237
     18 C           1.6725    7.0722    4.7980 C.3     1  UNL1        0.1237
     19 O           1.8591    6.3552    6.0068 O.3     1  UNL1       -0.4849
     20 C           0.7873    6.2438    6.8744 C.ar    1  UNL1        0.1621
     21 C           1.1632    6.5667    8.1995 C.ar    1  UNL1       -0.0163
     22 C           0.3143    6.3326    9.2895 C.ar    1  UNL1       -0.0581
     23 C          -0.9627    5.8415    9.0755 C.ar    1  UNL1       -0.0581
     24 C          -1.3596    5.5332    7.7821 C.ar    1  UNL1       -0.0163
     25 C          -0.5052    5.6961    6.6748 C.ar    1  UNL1        0.1615
     26 O          -1.1635    5.1766    5.5817 O.3     1  UNL1       -0.4915
     27 C          -0.5560    5.3865    4.3493 C.3     1  UNL1        0.0790
     28 C           4.5104    7.0767    1.6292 C.ar    1  UNL1        0.1624
     29 O           4.9330    6.5326    2.8014 O.3     1  UNL1       -0.4886
     30 C           6.2668    6.1108    2.9787 C.3     1  UNL1        0.0870
     31 C           6.4460    5.8065    4.4534 C.3     1  UNL1       -0.0307
     32 C           5.3622    7.2573    0.5622 C.ar    1  UNL1       -0.0091
     33 C           7.2202    6.0290   -3.3448 C.2     1  UNL1        0.2789
     34 O           7.7955    6.9693   -3.9231 O.2     1  UNL1       -0.2676
     35 N           6.9541    4.7818   -3.9111 N.am    1  UNL1       -0.1303
     36 C           6.6562    3.8470   -3.0496 C.2     1  UNL1        0.2752
     37 S           5.1754    2.8087   -3.2459 S.3     1  UNL1       -0.0097
     38 H           0.6604   -0.9308    0.5834 H       1  UNL1        0.0230
     39 H           0.6060   -0.0095   -0.9271 H       1  UNL1        0.0230
     40 H           0.6165    0.8389    0.6331 H       1  UNL1        0.0230
     41 H           2.9000   -0.8893   -0.4508 H       1  UNL1        0.0263
     42 H           2.9186   -0.0188    1.0790 H       1  UNL1        0.0263
     43 H           2.7347    2.1628   -0.1367 H       1  UNL1        0.0269
     44 H           2.6148    1.3221   -1.6850 H       1  UNL1        0.0269
     45 H           4.9065    0.2597   -1.2028 H       1  UNL1        0.0335
     46 H           4.9625    1.2725    0.2286 H       1  UNL1        0.0335
     47 H           5.3398    3.9360    0.0390 H       1  UNL1        0.3634
     48 H           5.9179    8.2691   -2.4878 H       1  UNL1        0.0634
     49 H           3.1096    7.9666   -1.8914 H       1  UNL1        0.0625
     50 H           1.6434    8.1347    0.1030 H       1  UNL1        0.0655
     51 H           3.6112    7.6008    4.1593 H       1  UNL1        0.0731
     52 H           3.0331    5.9152    3.7031 H       1  UNL1        0.0731
     53 H           1.0749    6.5029    4.1511 H       1  UNL1        0.0731
     54 H           1.1967    8.0474    4.9045 H       1  UNL1        0.0731
     55 H           2.1469    6.9904    8.3983 H       1  UNL1        0.0655
     56 H           0.6547    6.5133   10.3060 H       1  UNL1        0.0619
     57 H          -1.6484    5.6788    9.9015 H       1  UNL1        0.0619
     58 H          -2.3497    5.1100    7.6173 H       1  UNL1        0.0655
     59 H          -1.0597    4.9971    3.4672 H       1  UNL1        0.0660
     60 H           0.4110    4.8621    4.3799 H       1  UNL1        0.0660
     61 H          -0.5987    6.4738    4.1931 H       1  UNL1        0.0660
     62 H           6.9556    6.9114    2.7007 H       1  UNL1        0.0694
     63 H           6.4439    5.2069    2.3887 H       1  UNL1        0.0694
     64 H           6.2423    6.6977    5.0583 H       1  UNL1        0.0262
     65 H           7.4665    5.4706    4.6458 H       1  UNL1        0.0262
     66 H           5.7423    5.0353    4.7858 H       1  UNL1        0.0262
     67 H           6.3858    6.9143    0.6564 H       1  UNL1        0.0661
@<TRIPOS>BOND
     1     1     2    1
     2     2     3    1
     3     3     4    1
     4     4     5    1
     5     5     6    2
     6     6     7    1
     7     7     8    1
     8     8     9    2
     9     8    10    1
    10    10    11    2
    11    11    12    1
    12    12    13   ar
    13    13    14   ar
    14    14    15   ar
    15    15    16    1
    16    16    17    1
    17    17    18    1
    18    18    19    1
    19    19    20    1
    20    20    21   ar
    21    21    22   ar
    22    22    23   ar
    23    23    24   ar
    24    24    25   ar
    25    20    25   ar
    26    25    26    1
    27    26    27    1
    28    15    28   ar
    29    28    29    1
    30    29    30    1
    31    30    31    1
    32    28    32   ar
    33    12    32   ar
    34    10    33    1
    35    33    34    2
    36    33    35    1
    37    35    36    2
    38     7    36    1
    39    36    37    1
    40     5    37    1
    41     1    38    1
    42     1    39    1
    43     1    40    1
    44     2    41    1
    45     2    42    1
    46     3    43    1
    47     3    44    1
    48     4    45    1
    49     4    46    1
    50     9    47    1
    51    11    48    1
    52    13    49    1
    53    14    50    1
    54    17    51    1
    55    17    52    1
    56    18    53    1
    57    18    54    1
    58    21    55    1
    59    22    56    1
    60    23    57    1
    61    24    58    1
    62    27    59    1
    63    27    60    1
    64    27    61    1
    65    30    62    1
    66    30    63    1
    67    31    64    1
    68    31    65    1
    69    31    66    1
    70    32    67    1
