REMARK  5 active torsions:
REMARK  status: ('A' for Active; 'I' for Inactive)
REMARK    1  A    between atoms: O_2  and  C_3 
REMARK    2  A    between atoms: C_6  and  N_7 
REMARK       I    between atoms: N_7  and  C_8 
REMARK    3  A    between atoms: C_8  and  C_10 
REMARK    4  A    between atoms: C_10  and  N_12 
REMARK       I    between atoms: N_12  and  C_13 
REMARK    5  A    between atoms: C_13  and  C_15 
ROOT
ATOM      1  N   UNL d   1       5.537   3.420  -3.193  0.00  0.00    -0.325 N 
ATOM      2  C   UNL d   1       5.221   4.770  -3.404  0.00  0.00     0.244 C 
ATOM      3  O   UNL d   1       4.249   5.354  -2.915  0.00  0.00    -0.271 OA
ATOM      4  H   UNL d   1       6.373   3.038  -3.625  0.00  0.00     0.169 HD
ENDROOT
BRANCH   2   5
ATOM      5  C   UNL d   1       6.156   5.601  -4.319  0.00  0.00     0.173 C 
ATOM      6  C   UNL d   1       6.193   4.995  -5.714  0.00  0.00     0.042 C 
BRANCH   5   7
ATOM      7  N   UNL d   1       5.637   6.993  -4.357  0.00  0.00    -0.344 N 
ATOM      8  C   UNL d   1       6.234   8.005  -5.076  0.00  0.00     0.252 C 
ATOM      9  O   UNL d   1       7.267   7.849  -5.726  0.00  0.00    -0.268 OA
ATOM     10  H   UNL d   1       4.754   7.149  -3.871  0.00  0.00     0.163 HD
BRANCH   8  11
ATOM     11  C   UNL d   1       5.571   9.339  -5.097  0.00  0.00     0.032 A 
ATOM     12  C   UNL d   1       5.110   9.946  -3.924  0.00  0.00     0.018 A 
ATOM     13  C   UNL d   1       4.556  11.234  -3.974  0.00  0.00     0.025 A 
ATOM     14  C   UNL d   1       4.458  11.910  -5.192  0.00  0.00     0.034 A 
ATOM     15 CL   UNL d   1       3.751  13.479  -5.246  0.00  0.00    -0.084 Cl
ATOM     16  C   UNL d   1       4.931  11.321  -6.362  0.00  0.00     0.025 A 
ATOM     17  C   UNL d   1       5.495  10.040  -6.313  0.00  0.00     0.018 A 
ENDBRANCH   8  11
ENDBRANCH   5   7
ENDBRANCH   2   5
BRANCH   1  18
ATOM     18  C   UNL d   1       4.757   2.514  -2.405  0.00  0.00     0.037 A 
ATOM     19  C   UNL d   1       5.139   1.173  -2.235  0.00  0.00     0.032 A 
ATOM     20  C   UNL d   1       4.360   0.299  -1.437  0.00  0.00     0.042 A 
ATOM     21  C   UNL d   1       3.184   0.740  -0.817  0.00  0.00     0.106 A 
ATOM     22  C   UNL d   1       2.817   2.064  -0.994  0.00  0.00     0.151 A 
ATOM     23  C   UNL d   1       3.588   2.925  -1.766  0.00  0.00     0.074 A 
ATOM     24  F   UNL d   1       1.737   2.591  -0.403  0.00  0.00    -0.203 F 
BRANCH  21  25
ATOM     25  O   UNL d   1       2.536  -0.159  -0.015  0.00  0.00    -0.353 OA
ATOM     26  C   UNL d   1       1.111  -0.067  -0.003  0.00  0.00     0.210 C 
ENDBRANCH  21  25
ENDBRANCH   1  18
TORSDOF 5
