@<TRIPOS>MOLECULE
*****
 38 41 0 0 0
SMALL
GASTEIGER

@<TRIPOS>ATOM
      1 O           1.0376    0.2362    0.2595 O.2     1  UNL1       -0.2698
      2 C           2.2569    0.2030    0.0945 C.2     1  UNL1        0.2490
      3 N           2.9615    1.0438   -0.7712 N.am    1  UNL1       -0.2802
      4 C           2.2827    1.9122   -1.6625 C.ar    1  UNL1        0.0525
      5 C           1.1815    2.6638   -1.2720 C.ar    1  UNL1        0.0495
      6 N           0.4670    3.4725   -2.0941 N.ar    1  UNL1       -0.2531
      7 C           0.8186    3.5168   -3.3871 C.ar    1  UNL1        0.0711
      8 C           0.0605    4.2823   -4.2647 C.ar    1  UNL1       -0.0357
      9 C           0.3691    4.3657   -5.6244 C.ar    1  UNL1       -0.0597
     10 C           1.4598    3.6659   -6.1256 C.ar    1  UNL1       -0.0611
     11 C           2.2356    2.8851   -5.2662 C.ar    1  UNL1       -0.0525
     12 C           1.9298    2.8052   -3.8926 C.ar    1  UNL1        0.0021
     13 C           2.6830    2.0192   -2.9932 C.ar    1  UNL1       -0.0298
     14 C           3.0727   -0.8114    0.8297 C.ar    1  UNL1        0.0476
     15 C           4.2758   -0.3962    1.4230 C.ar    1  UNL1       -0.0489
     16 C           5.1278   -1.3274    2.0220 C.ar    1  UNL1       -0.0610
     17 C           4.7503   -2.6640    2.1143 C.ar    1  UNL1       -0.0611
     18 C           3.5217   -3.0744    1.5971 C.ar    1  UNL1       -0.0504
     19 C           2.6656   -2.1568    0.9581 C.ar    1  UNL1        0.0293
     20 C           1.3978   -2.6487    0.4298 C.ar    1  UNL1        0.1388
     21 N           0.9989   -2.5973   -0.8248 N.ar    1  UNL1       -0.2361
     22 C          -0.2854   -3.0761   -0.8284 C.ar    1  UNL1        0.0458
     23 C          -0.6527   -3.5034    0.4240 C.ar    1  UNL1        0.0216
     24 N           0.4281   -3.2331    1.2155 N.ar    1  UNL1       -0.3444
     25 H           3.9172    0.7954   -0.9973 H       1  UNL1        0.1552
     26 H           0.8428    2.6638   -0.2401 H       1  UNL1        0.0849
     27 H          -0.8003    4.8237   -3.8781 H       1  UNL1        0.0639
     28 H          -0.2460    4.9735   -6.2835 H       1  UNL1        0.0618
     29 H           1.7038    3.7255   -7.1834 H       1  UNL1        0.0618
     30 H           3.0763    2.3314   -5.6772 H       1  UNL1        0.0624
     31 H           3.5195    1.4340   -3.3647 H       1  UNL1        0.0643
     32 H           4.5466    0.6568    1.4401 H       1  UNL1        0.0625
     33 H           6.0945   -1.0119    2.4074 H       1  UNL1        0.0618
     34 H           5.4097   -3.3869    2.5903 H       1  UNL1        0.0618
     35 H           3.2527   -4.1285    1.6566 H       1  UNL1        0.0625
     36 H          -0.8760   -3.0859   -1.7343 H       1  UNL1        0.0845
     37 H          -1.5641   -3.9373    0.8094 H       1  UNL1        0.0823
     38 H           0.4953   -3.3875    2.2116 H       1  UNL1        0.1668
@<TRIPOS>BOND
     1     1     2    2
     2     2     3   am
     3     3     4    1
     4     4     5   ar
     5     5     6   ar
     6     6     7   ar
     7     7     8   ar
     8     8     9   ar
     9     9    10   ar
    10    10    11   ar
    11    11    12   ar
    12     7    12   ar
    13    12    13   ar
    14     4    13   ar
    15     2    14    1
    16    14    15   ar
    17    15    16   ar
    18    16    17   ar
    19    17    18   ar
    20    18    19   ar
    21    14    19   ar
    22    19    20    1
    23    20    21   ar
    24    21    22   ar
    25    22    23   ar
    26    23    24   ar
    27    20    24   ar
    28     3    25    1
    29     5    26    1
    30     8    27    1
    31     9    28    1
    32    10    29    1
    33    11    30    1
    34    13    31    1
    35    15    32    1
    36    16    33    1
    37    17    34    1
    38    18    35    1
    39    22    36    1
    40    23    37    1
    41    24    38    1
