@<TRIPOS>MOLECULE
*****
 50 52 0 0 0
SMALL
GASTEIGER

@<TRIPOS>ATOM
      1 C           0.9459    0.0608   -0.0359 C.3     1  UNL1       -0.0307
      2 C           2.4629    0.0511   -0.0499 C.3     1  UNL1        0.0868
      3 O           2.9031   -1.3091   -0.1032 O.3     1  UNL1       -0.4922
      4 C           4.2558   -1.4851    0.0007 C.ar    1  UNL1        0.1206
      5 C           4.8146   -2.5496   -0.7114 C.ar    1  UNL1       -0.0182
      6 C           6.1736   -2.8755   -0.5692 C.ar    1  UNL1       -0.0371
      7 C           7.0140   -2.0832    0.2169 C.ar    1  UNL1        0.0326
      8 N           8.3731   -2.4495    0.4125 N.pl3   1  UNL1       -0.2988
      9 C           9.2845   -1.6774    1.1621 C.ar    1  UNL1        0.1351
     10 N          10.1955   -0.9505    0.4475 N.ar    1  UNL1       -0.2394
     11 C          10.9416   -0.0355    1.1083 C.ar    1  UNL1        0.0297
     12 C          10.8471    0.1759    2.4704 C.ar    1  UNL1       -0.0427
     13 C           9.9496   -0.6047    3.2048 C.ar    1  UNL1       -0.0448
     14 C           9.1486   -1.5634    2.5647 C.ar    1  UNL1        0.0781
     15 C           8.1757   -2.4499    3.3242 C.2     1  UNL1        0.2635
     16 O           7.5432   -3.3698    2.7935 O.2     1  UNL1       -0.2685
     17 N           7.9961   -2.2269    4.6787 N.am    1  UNL1       -0.2291
     18 N           7.0861   -3.0514    5.3879 N.am    1  UNL1       -0.2180
     19 C           6.9908   -2.9066    6.7529 C.2     1  UNL1        0.3160
     20 O           7.6684   -2.0814    7.3721 O.2     1  UNL1       -0.2513
     21 N           6.0939   -3.7459    7.3507 N.am    1  UNL1       -0.2980
     22 C           5.8437   -3.7204    8.7827 C.3     1  UNL1        0.0159
     23 C           4.7370   -4.6443    9.2123 C.3     1  UNL1       -0.0254
     24 C           3.5186   -4.7633    8.3307 C.3     1  UNL1       -0.0485
     25 C           4.4019   -5.9644    8.5566 C.3     1  UNL1       -0.0485
     26 C           6.4264   -1.0209    0.9243 C.ar    1  UNL1       -0.0371
     27 C           5.0663   -0.7353    0.8390 C.ar    1  UNL1       -0.0182
     28 H           0.5660    1.0862   -0.0646 H       1  UNL1        0.0262
     29 H           0.5685   -0.4246    0.8710 H       1  UNL1        0.0262
     30 H           0.5463   -0.4944   -0.8892 H       1  UNL1        0.0262
     31 H           2.8023    0.5716    0.8513 H       1  UNL1        0.0694
     32 H           2.8305    0.5791   -0.9366 H       1  UNL1        0.0694
     33 H           4.1889   -3.1391   -1.3758 H       1  UNL1        0.0655
     34 H           6.5577   -3.7692   -1.0539 H       1  UNL1        0.0637
     35 H           8.8011   -2.8456   -0.4147 H       1  UNL1        0.1536
     36 H          11.6289    0.5523    0.5000 H       1  UNL1        0.0830
     37 H          11.4634    0.9274    2.9563 H       1  UNL1        0.0633
     38 H           9.8937   -0.4346    4.2724 H       1  UNL1        0.0627
     39 H           8.5271   -1.5813    5.2537 H       1  UNL1        0.1732
     40 H           6.5338   -3.6980    4.8262 H       1  UNL1        0.1744
     41 H           5.5825   -4.3970    6.7766 H       1  UNL1        0.1503
     42 H           5.5669   -2.6966    9.0641 H       1  UNL1        0.0465
     43 H           6.7736   -3.9639    9.3081 H       1  UNL1        0.0465
     44 H           4.6092   -4.6211   10.2923 H       1  UNL1        0.0316
     45 H           3.5366   -4.2755    7.3623 H       1  UNL1        0.0269
     46 H           2.5442   -4.7102    8.8006 H       1  UNL1        0.0269
     47 H           5.0583   -6.3254    7.7752 H       1  UNL1        0.0269
     48 H           3.9894   -6.7645    9.1655 H       1  UNL1        0.0269
     49 H           7.0080   -0.4032    1.5984 H       1  UNL1        0.0637
     50 H           4.6808    0.0550    1.4712 H       1  UNL1        0.0655
@<TRIPOS>BOND
     1     1     2    1
     2     2     3    1
     3     3     4    1
     4     4     5   ar
     5     5     6   ar
     6     6     7   ar
     7     7     8    1
     8     8     9    1
     9     9    10   ar
    10    10    11   ar
    11    11    12   ar
    12    12    13   ar
    13    13    14   ar
    14     9    14   ar
    15    14    15    1
    16    15    16    2
    17    15    17   am
    18    17    18    1
    19    18    19   am
    20    19    20    2
    21    19    21   am
    22    21    22    1
    23    22    23    1
    24    23    24    1
    25    24    25    1
    26    23    25    1
    27     7    26   ar
    28    26    27   ar
    29     4    27   ar
    30     1    28    1
    31     1    29    1
    32     1    30    1
    33     2    31    1
    34     2    32    1
    35     5    33    1
    36     6    34    1
    37     8    35    1
    38    11    36    1
    39    12    37    1
    40    13    38    1
    41    17    39    1
    42    18    40    1
    43    21    41    1
    44    22    42    1
    45    22    43    1
    46    23    44    1
    47    24    45    1
    48    24    46    1
    49    25    47    1
    50    25    48    1
    51    26    49    1
    52    27    50    1
