REMARK  9 active torsions:
REMARK  status: ('A' for Active; 'I' for Inactive)
REMARK    1  A    between atoms: C_2  and  O_3 
REMARK    2  A    between atoms: O_3  and  C_4 
REMARK    3  A    between atoms: C_7  and  C_8 
REMARK       I    between atoms: C_8  and  N_10 
REMARK       I    between atoms: C_11  and  N_12 
REMARK       I    between atoms: C_11  and  N_23 
REMARK    4  A    between atoms: N_12  and  C_13 
REMARK    5  A    between atoms: C_13  and  C_14 
REMARK    6  A    between atoms: C_14  and  C_15 
REMARK    7  A    between atoms: N_23  and  C_24 
REMARK    8  A    between atoms: C_33  and  O_34 
REMARK    9  A    between atoms: O_34  and  C_35 
ROOT
ATOM      1  C   UNL d   1       8.398  -2.212  -0.870  0.00  0.00     0.294 C 
ATOM      2  O   UNL d   1       8.500  -2.677  -1.979  0.00  0.00    -0.265 OA
ATOM      3  N   UNL d   1       9.376  -1.936   0.099  0.00  0.00    -0.023 NA
ATOM      4  C   UNL d   1      10.662  -2.177  -0.067  0.00  0.00     0.704 C 
ATOM      5  N   UNL d   1      11.326  -2.705  -1.162  0.00  0.00    -0.224 N 
ATOM      6  N   UNL d   1      11.550  -1.931   0.992  0.00  0.00    -0.190 N 
ATOM      7  H   UNL d   1      12.275  -3.022  -1.047  0.00  0.00     0.177 HD
ATOM      8  H   UNL d   1      11.140  -1.514   1.821  0.00  0.00     0.184 HD
ENDROOT
BRANCH   5   9
ATOM      9  C   UNL d   1      10.678  -3.122  -2.365  0.00  0.00     0.143 C 
BRANCH   9  10
ATOM     10  C   UNL d   1      11.422  -3.665  -3.543  0.00  0.00     0.063 C 
BRANCH  10  11
ATOM     11  C   UNL d   1      10.440  -4.012  -4.648  0.00  0.00    -0.007 A 
ATOM     12  C   UNL d   1       9.585  -3.158  -5.423  0.00  0.00     0.059 A 
ATOM     13  C   UNL d   1       9.428  -1.679  -5.415  0.00  0.00     0.073 C 
ATOM     14  N   UNL d   1       8.858  -3.854  -6.306  0.00  0.00    -0.177 NA
ATOM     15  N   UNL d   1       9.215  -5.128  -6.105  0.00  0.00    -0.278 N 
ATOM     16  C   UNL d   1       8.658  -6.158  -6.952  0.00  0.00     0.179 C 
ATOM     17  C   UNL d   1      10.147  -5.285  -5.114  0.00  0.00     0.034 A 
ATOM     18  C   UNL d   1      10.702  -6.597  -4.708  0.00  0.00     0.070 C 
ENDBRANCH  10  11
ENDBRANCH   9  10
ENDBRANCH   5   9
BRANCH   6  19
ATOM     19  C   UNL d   1      12.973  -1.937   1.003  0.00  0.00     0.050 A 
ATOM     20  C   UNL d   1      13.705  -2.417   2.105  0.00  0.00     0.036 A 
ATOM     21  C   UNL d   1      15.118  -2.446   2.081  0.00  0.00    -0.059 A 
ATOM     22  C   UNL d   1      15.940  -2.695   3.315  0.00  0.00     0.048 C 
ATOM     23  C   UNL d   1      15.800  -2.128   0.902  0.00  0.00     0.013 A 
ATOM     24  C   UNL d   1      15.099  -1.636  -0.192  0.00  0.00    -0.059 A 
ATOM     25  C   UNL d   1      15.801  -1.182  -1.432  0.00  0.00     0.048 C 
ATOM     26  C   UNL d   1      13.709  -1.508  -0.111  0.00  0.00     0.036 A 
ENDBRANCH   6  19
BRANCH   1  27
ATOM     27  C   UNL d   1       6.975  -1.929  -0.711  0.00  0.00     0.037 A 
ATOM     28  C   UNL d   1       6.114  -2.220  -1.804  0.00  0.00     0.020 A 
ATOM     29  C   UNL d   1       4.785  -1.834  -1.798  0.00  0.00     0.040 A 
ATOM     30  C   UNL d   1       4.250  -1.250  -0.646  0.00  0.00     0.102 A 
ATOM     31  C   UNL d   1       5.127  -1.042   0.485  0.00  0.00     0.102 A 
ATOM     32  C   UNL d   1       6.483  -1.354   0.421  0.00  0.00     0.056 A 
BRANCH  30  33
ATOM     33  O   UNL d   1       2.866  -1.183  -0.731  0.00  0.00    -0.349 OA
BRANCH  33  34
ATOM     34  C   UNL d   1       2.219   0.068  -0.534  0.00  0.00     0.171 C 
ATOM     35  C   UNL d   1       0.717   0.022  -0.401  0.00  0.00     0.034 C 
ENDBRANCH  33  34
ENDBRANCH  30  33
BRANCH  31  36
ATOM     36  O   UNL d   1       4.907  -0.593   1.784  0.00  0.00    -0.349 OA
BRANCH  36  37
ATOM     37  C   UNL d   1       3.650  -0.038   1.869  0.00  0.00     0.171 C 
ATOM     38  C   UNL d   1       3.122   0.634   3.093  0.00  0.00     0.034 C 
ENDBRANCH  36  37
ENDBRANCH  31  36
ENDBRANCH   1  27
TORSDOF 9
