REMARK  4 active torsions:
REMARK  status: ('A' for Active; 'I' for Inactive)
REMARK    1  A    between atoms: C_4  and  C_5 
REMARK       I    between atoms: C_5  and  N_7 
REMARK    2  A    between atoms: N_7  and  N_8 
REMARK       I    between atoms: N_8  and  C_9 
REMARK    3  A    between atoms: C_9  and  C_11 
REMARK    4  A    between atoms: C_15  and  O_16 
ROOT
ATOM      1  N   UNL d   1      -1.927   4.973   0.201  0.00  0.00    -0.263 N 
ATOM      2  C   UNL d   1      -1.353   6.239   0.157  0.00  0.00     0.270 C 
ATOM      3  O   UNL d   1      -0.139   6.411   0.072  0.00  0.00    -0.266 OA
ATOM      4  H   UNL d   1      -2.931   4.805   0.159  0.00  0.00     0.190 HD
ENDROOT
BRANCH   1   5
ATOM      5  N   UNL d   1      -1.088   3.817   0.100  0.00  0.00    -0.263 N 
ATOM      6  C   UNL d   1      -1.659   2.547   0.077  0.00  0.00     0.272 C 
ATOM      7  O   UNL d   1      -2.886   2.413   0.112  0.00  0.00    -0.266 OA
ATOM      8  H   UNL d   1      -0.087   3.990   0.076  0.00  0.00     0.190 HD
BRANCH   6   9
ATOM      9  C   UNL d   1      -0.741   1.396   0.023  0.00  0.00     0.065 A 
ATOM     10  C   UNL d   1       0.695   1.354  -0.007  0.00  0.00     0.052 A 
ATOM     11  C   UNL d   1       1.075   0.026  -0.002  0.00  0.00     0.050 A 
ATOM     12  C   UNL d   1       2.376  -0.680   0.033  0.00  0.00     0.076 C 
ATOM     13  O   UNL d   1      -0.028  -0.763  -0.010  0.00  0.00    -0.319 OA
ATOM     14  C   UNL d   1      -1.121   0.053   0.005  0.00  0.00     0.065 A 
ATOM     15  C   UNL d   1      -2.410  -0.677   0.013  0.00  0.00     0.077 C 
ENDBRANCH   6   9
ENDBRANCH   1   5
BRANCH   2  16
ATOM     16  C   UNL d   1      -2.278   7.419   0.204  0.00  0.00     0.036 A 
ATOM     17  C   UNL d   1      -3.364   7.465   1.088  0.00  0.00     0.017 A 
ATOM     18  C   UNL d   1      -4.192   8.598   1.135  0.00  0.00     0.004 A 
ATOM     19  C   UNL d   1      -3.944   9.697   0.307  0.00  0.00     0.036 A 
ATOM     20  C   UNL d   1      -2.851   9.659  -0.552  0.00  0.00     0.066 A 
ATOM     21  C   UNL d   1      -2.017   8.538  -0.604  0.00  0.00     0.053 A 
BRANCH  20  22
ATOM     22  O   UNL d   1      -2.555  10.711  -1.372  0.00  0.00    -0.361 OA
ATOM     23  H   UNL d   1      -3.191  11.432  -1.226  0.00  0.00     0.217 HD
ENDBRANCH  20  22
ENDBRANCH   2  16
TORSDOF 4
