REMARK  5 active torsions:
REMARK  status: ('A' for Active; 'I' for Inactive)
REMARK    1  A    between atoms: C_6  and  S_7 
REMARK    2  A    between atoms: S_7  and  C_8 
REMARK    3  A    between atoms: C_11  and  N_12 
REMARK    4  A    between atoms: N_12  and  S_13 
REMARK    5  A    between atoms: S_13  and  C_16 
ROOT
ATOM      1  N   UNL d   1       6.568  -3.166  -0.059  0.00  0.00    -0.281 N 
ATOM      2  H   UNL d   1       7.061  -3.467  -0.894  0.00  0.00     0.179 HD
ENDROOT
BRANCH   1   3
ATOM      3  C   UNL d   1       5.136  -3.054  -0.064  0.00  0.00     0.042 C 
ATOM      4  C   UNL d   1       4.410  -3.625  -1.108  0.00  0.00     0.031 C 
ATOM      5  C   UNL d   1       3.009  -3.471  -1.176  0.00  0.00     0.021 C 
ATOM      6  C   UNL d   1       2.295  -2.875  -0.128  0.00  0.00     0.008 C 
ATOM      7  C   UNL d   1       3.021  -2.455   0.984  0.00  0.00     0.021 C 
ATOM      8  C   UNL d   1       4.419  -2.466   0.980  0.00  0.00     0.031 C 
BRANCH   6   9
ATOM      9  S   UNL d   1       0.519  -2.789  -0.160  0.00  0.00    -0.051 SA
BRANCH   9  10
ATOM     10  C   UNL d   1       0.031  -1.120  -0.054  0.00  0.00     0.195 A 
ATOM     11  N   UNL d   1      -1.241  -0.762   0.002  0.00  0.00    -0.123 NA
ATOM     12  N   UNL d   1      -1.313   0.614   0.015  0.00  0.00    -0.143 NA
ATOM     13  C   UNL d   1      -0.086   1.067  -0.029  0.00  0.00     0.235 A 
ATOM     14  N   UNL d   1       0.789   0.019  -0.060  0.00  0.00    -0.322 N 
ATOM     15  C   UNL d   1       2.209   0.184  -0.020  0.00  0.00     0.159 C 
ENDBRANCH   9  10
ENDBRANCH   6   9
ENDBRANCH   1   3
BRANCH   1  16
ATOM     16  S   UNL d   1       7.440  -2.369   1.119  0.00  0.00     0.263 S 
ATOM     17  O   UNL d   1       7.042  -0.971   1.025  0.00  0.00    -0.200 OA
ATOM     18  O   UNL d   1       7.296  -3.065   2.377  0.00  0.00    -0.200 OA
BRANCH  16  19
ATOM     19  C   UNL d   1       9.147  -2.444   0.633  0.00  0.00     0.081 C 
ATOM     20  C   UNL d   1      10.076  -3.491   0.554  0.00  0.00     0.028 C 
ATOM     21  C   UNL d   1      11.548  -3.169   0.364  0.00  0.00     0.040 C 
ATOM     22  C   UNL d   1      11.989  -1.796   0.282  0.00  0.00     0.090 C 
ATOM     23  C   UNL d   1      10.996  -1.030   0.749  0.00  0.00     0.050 C 
ATOM     24  O   UNL d   1      13.134  -0.870   0.106  0.00  0.00    -0.341 OA
ATOM     25  C   UNL d   1       9.660  -1.192   0.649  0.00  0.00     0.052 C 
ATOM     26  N   UNL d   1      11.435  -0.056   1.622  0.00  0.00    -0.225 NA
ATOM     27  C   UNL d   1      11.514   1.027   0.817  0.00  0.00     0.226 C 
ATOM     28  H   UNL d   1      12.408  -0.358   1.825  0.00  0.00     0.136 HD
ATOM     29  O   UNL d   1      10.582   1.801   0.528  0.00  0.00    -0.277 OA
ATOM     30  C   UNL d   1      12.875   0.852   0.258  0.00  0.00     0.272 C 
ENDBRANCH  16  19
ENDBRANCH   1  16
TORSDOF 5
