@<TRIPOS>MOLECULE
*****
 46 47 0 0 0
SMALL
GASTEIGER

@<TRIPOS>ATOM
      1 C           3.6806   -2.8934   -1.8747 C.3     1  UNL1       -0.0605
      2 C           2.6289   -2.2186   -0.9887 C.3     1  UNL1       -0.0197
      3 C           1.6607   -1.4749   -1.9077 C.3     1  UNL1       -0.0605
      4 C           3.2200   -1.2857    0.1222 C.3     1  UNL1        0.1034
      5 N           2.6453    0.1058    0.1166 N.am    1  UNL1       -0.2880
      6 C           2.9797    1.3117   -0.3981 C.2     1  UNL1        0.2977
      7 N           4.2440    1.6018   -0.7125 N.am    1  UNL1       -0.3133
      8 O           2.1097    2.1691   -0.5329 O.2     1  UNL1       -0.2531
      9 C           4.7594   -1.3416    0.2495 C.2     1  UNL1        0.2378
     10 O           5.4389   -0.3321    0.0578 O.2     1  UNL1       -0.2734
     11 N           5.3765   -2.5664    0.4782 N.am    1  UNL1       -0.2840
     12 C           6.7868   -2.6378    0.4473 C.ar    1  UNL1        0.0337
     13 C           7.4932   -3.6572   -0.1941 C.ar    1  UNL1       -0.0370
     14 C           8.8993   -3.6965   -0.0831 C.ar    1  UNL1       -0.0176
     15 C           9.5923   -2.6659    0.5741 C.ar    1  UNL1        0.1286
     16 O          10.9734   -2.6617    0.5078 O.3     1  UNL1       -0.4560
     17 C          11.6830   -1.7364    1.2527 C.ar    1  UNL1        0.1285
     18 C          12.6709   -0.9749    0.6239 C.ar    1  UNL1       -0.0181
     19 C          13.5129   -0.1523    1.3896 C.ar    1  UNL1       -0.0409
     20 C          13.2909    0.0090    2.7634 C.ar    1  UNL1        0.0520
     21 C          14.0544    0.9528    3.5194 C.1     1  UNL1        0.0992
     22 N          14.6509    1.7474    4.1367 N.1     1  UNL1       -0.1909
     23 C          12.2835   -0.7332    3.3835 C.ar    1  UNL1       -0.0409
     24 C          11.5119   -1.6259    2.6368 C.ar    1  UNL1       -0.0181
     25 C           8.8629   -1.6533    1.1826 C.ar    1  UNL1       -0.0176
     26 C           7.4865   -1.6505    1.1301 C.ar    1  UNL1       -0.0370
     27 H           3.2258   -3.4893   -2.6686 H       1  UNL1        0.0233
     28 H           4.2898   -3.6098   -1.3260 H       1  UNL1        0.0233
     29 H           4.3334   -2.1392   -2.3240 H       1  UNL1        0.0233
     30 H           2.0619   -3.0248   -0.4941 H       1  UNL1        0.0318
     31 H           2.1796   -0.6407   -2.3904 H       1  UNL1        0.0233
     32 H           0.8027   -1.0877   -1.3496 H       1  UNL1        0.0233
     33 H           1.2719   -2.1267   -2.6947 H       1  UNL1        0.0233
     34 H           2.8365   -1.6791    1.0790 H       1  UNL1        0.0598
     35 H           1.6395    0.1215    0.2256 H       1  UNL1        0.1510
     36 H           5.0094    0.9822   -0.4641 H       1  UNL1        0.1465
     37 H           4.4971    2.5639   -0.8891 H       1  UNL1        0.1465
     38 H           4.8592   -3.4335    0.4464 H       1  UNL1        0.1549
     39 H           6.9932   -4.3738   -0.8434 H       1  UNL1        0.0637
     40 H           9.4490   -4.5285   -0.5201 H       1  UNL1        0.0655
     41 H          12.7936   -1.0088   -0.4564 H       1  UNL1        0.0655
     42 H          14.3485    0.3568    0.9116 H       1  UNL1        0.0631
     43 H          12.0965   -0.6398    4.4508 H       1  UNL1        0.0631
     44 H          10.7399   -2.2049    3.1358 H       1  UNL1        0.0655
     45 H           9.3181   -0.8379    1.7269 H       1  UNL1        0.0655
     46 H           6.9655   -0.8440    1.6369 H       1  UNL1        0.0637
@<TRIPOS>BOND
     1     1     2    1
     2     2     3    1
     3     5     6   am
     4     6     7   am
     5     6     8    2
     6     4     9    1
     7     9    10    2
     8     9    11   am
     9    11    12    1
    10    12    13   ar
    11    13    14   ar
    12    14    15   ar
    13    15    16    1
    14    16    17    1
    15    17    18   ar
    16    18    19   ar
    17    19    20   ar
    18    20    21    1
    19    21    22    3
    20    20    23   ar
    21    23    24   ar
    22    17    24   ar
    23    15    25   ar
    24    25    26   ar
    25    12    26   ar
    26     4     5    1
    27     4     2    1
    28     1    27    1
    29     1    28    1
    30     1    29    1
    31     2    30    1
    32     3    31    1
    33     3    32    1
    34     3    33    1
    35     4    34    1
    36     5    35    1
    37     7    36    1
    38     7    37    1
    39    11    38    1
    40    13    39    1
    41    14    40    1
    42    18    41    1
    43    19    42    1
    44    23    43    1
    45    24    44    1
    46    25    45    1
    47    26    46    1
