@<TRIPOS>MOLECULE
*****
 56 59 0 0 0
SMALL
GASTEIGER

@<TRIPOS>ATOM
      1 O           0.9922    0.0721   -0.0653 O.2     1  UNL1        0.0416
      2 N           2.2283    0.0443   -0.0464 N.pl3   1  UNL1        0.0839
      3 O           2.9328   -0.7225   -0.7229 O.co2   1  UNL1       -0.5759
      4 C           2.8908    0.9067    0.9022 C.ar    1  UNL1        0.3243
      5 C           2.4205    1.0628    2.2283 C.ar    1  UNL1        0.1096
      6 N           1.3177    0.3315    2.6796 N.pl3   1  UNL1       -0.3363
      7 C           0.7263    0.5176    3.9908 C.3     1  UNL1        0.0325
      8 C          -0.5600   -0.2872    4.1544 C.3     1  UNL1        0.0596
      9 O          -1.0403   -0.1357    5.4858 O.3     1  UNL1       -0.3935
     10 C           3.1807    1.8704    3.1422 C.ar    1  UNL1       -0.0108
     11 C           4.3701    2.5932    2.8514 C.ar    1  UNL1        0.0635
     12 N           5.0551    3.3182    3.8102 N.pl3   1  UNL1       -0.3179
     13 C           5.4603    2.7545    5.0969 C.3     1  UNL1        0.0525
     14 C           4.6255    3.3717    6.2465 C.3     1  UNL1       -0.0156
     15 N           4.6552    4.9298    6.2105 N.4     1  UNL1        0.2398
     16 C           3.7351    5.5348    7.2907 C.3     1  UNL1        0.0032
     17 C           3.8366    7.0742    7.4044 C.3     1  UNL1        0.1291
     18 O           2.8858    7.5507    8.3730 O.3     1  UNL1       -0.4867
     19 C           2.8676    8.9167    8.5365 C.ar    1  UNL1        0.1209
     20 C           2.9121    9.8322    7.4818 C.ar    1  UNL1       -0.0186
     21 C           2.9993   11.2057    7.7425 C.ar    1  UNL1       -0.0399
     22 C           2.9226   11.6714    9.0522 C.ar    1  UNL1        0.0412
     23 CL          3.0906   13.3520    9.3749 Cl      1  UNL1       -0.0835
     24 C           2.7256   10.7749   10.0983 C.ar    1  UNL1       -0.0399
     25 C           2.7352    9.3966    9.8435 C.ar    1  UNL1       -0.0186
     26 C           4.3378    5.4550    4.7854 C.3     1  UNL1       -0.0156
     27 C           5.2041    4.7671    3.6977 C.3     1  UNL1        0.0525
     28 C           4.7705    2.4413    1.4914 C.ar    1  UNL1        0.1619
     29 N           5.8341    2.9718    0.8726 N.ar    1  UNL1       -0.0468
     30 O           5.8009    2.4921   -0.4231 O.2     1  UNL1       -0.2413
     31 N           4.7047    1.6826   -0.6416 N.ar    1  UNL1       -0.0419
     32 C           4.0503    1.6046    0.5258 C.ar    1  UNL1        0.2144
     33 H           0.6768   -0.0081    1.9503 H       1  UNL1        0.1463
     34 H           0.5089    1.5744    4.1914 H       1  UNL1        0.0484
     35 H           1.4427    0.1839    4.7507 H       1  UNL1        0.0484
     36 H          -0.3936   -1.3501    3.9492 H       1  UNL1        0.0573
     37 H          -1.3309    0.0729    3.4649 H       1  UNL1        0.0573
     38 H          -0.4049   -0.5725    6.0790 H       1  UNL1        0.2095
     39 H           2.8045    1.9587    4.1583 H       1  UNL1        0.0657
     40 H           6.5171    3.0113    5.2539 H       1  UNL1        0.0516
     41 H           5.4078    1.6599    5.0982 H       1  UNL1        0.0516
     42 H           5.0252    3.0604    7.2177 H       1  UNL1        0.0830
     43 H           3.5755    3.0747    6.1638 H       1  UNL1        0.0830
     44 H           5.6211    5.2035    6.4368 H       1  UNL1        0.2036
     45 H           4.0142    5.0725    8.2455 H       1  UNL1        0.0848
     46 H           2.7102    5.2270    7.0548 H       1  UNL1        0.0848
     47 H           3.6198    7.5161    6.4307 H       1  UNL1        0.0751
     48 H           4.8497    7.3553    7.7178 H       1  UNL1        0.0751
     49 H           2.8585    9.5153    6.4465 H       1  UNL1        0.0654
     50 H           3.1177   11.9098    6.9217 H       1  UNL1        0.0633
     51 H           2.5781   11.1429   11.1115 H       1  UNL1        0.0633
     52 H           2.6496    8.7069   10.6792 H       1  UNL1        0.0654
     53 H           4.5379    6.5290    4.7837 H       1  UNL1        0.0830
     54 H           3.2726    5.2650    4.6181 H       1  UNL1        0.0830
     55 H           6.2576    5.0243    3.8666 H       1  UNL1        0.0516
     56 H           4.9342    5.1438    2.7054 H       1  UNL1        0.0516
@<TRIPOS>UNITY_ATOM_ATTR
2 1
charge 1
3 1
charge -1
15 1
charge 1
@<TRIPOS>BOND
     1     1     2    2
     2     2     3    1
     3     2     4    1
     4     4     5   ar
     5     5     6    1
     6     6     7    1
     7     7     8    1
     8     8     9    1
     9     5    10   ar
    10    10    11   ar
    11    11    12    1
    12    12    13    1
    13    13    14    1
    14    14    15    1
    15    15    16    1
    16    16    17    1
    17    17    18    1
    18    18    19    1
    19    19    20   ar
    20    20    21   ar
    21    21    22   ar
    22    22    23    1
    23    22    24   ar
    24    24    25   ar
    25    19    25   ar
    26    15    26    1
    27    26    27    1
    28    12    27    1
    29    11    28   ar
    30    28    29   ar
    31    29    30   ar
    32    30    31   ar
    33    31    32   ar
    34     4    32   ar
    35    28    32   ar
    36     6    33    1
    37     7    34    1
    38     7    35    1
    39     8    36    1
    40     8    37    1
    41     9    38    1
    42    10    39    1
    43    13    40    1
    44    13    41    1
    45    14    42    1
    46    14    43    1
    47    15    44    1
    48    16    45    1
    49    16    46    1
    50    17    47    1
    51    17    48    1
    52    20    49    1
    53    21    50    1
    54    24    51    1
    55    25    52    1
    56    26    53    1
    57    26    54    1
    58    27    55    1
    59    27    56    1
