REMARK  5 active torsions:
REMARK  status: ('A' for Active; 'I' for Inactive)
REMARK       I    between atoms: C_2  and  N_3 
REMARK    1  A    between atoms: C_2  and  C_16 
REMARK    2  A    between atoms: N_3  and  C_4 
REMARK    3  A    between atoms: C_4  and  C_5 
REMARK    4  A    between atoms: C_5  and  C_6 
REMARK    5  A    between atoms: N_19  and  C_20 
ROOT
ATOM      1  O   UNL d   1       0.935  -0.233   0.065  0.00  0.00    -0.273 OA
ATOM      2  C   UNL d   1       2.155  -0.136   0.039  0.00  0.00     0.221 C 
ATOM      3  N   UNL d   1       2.928  -0.769   0.996  0.00  0.00    -0.360 N 
ATOM      4  H   UNL d   1       3.939  -0.766   0.915  0.00  0.00     0.162 HD
ENDROOT
BRANCH   2   5
ATOM      5  C   UNL d   1       2.914   0.711  -0.986  0.00  0.00     0.081 C 
ATOM      6  C   UNL d   1       3.368   2.034  -0.372  0.00  0.00     0.033 C 
ATOM      7  C   UNL d   1       2.151   3.018  -0.099  0.00  0.00     0.120 C 
ATOM      8  N   UNL d   1       1.165   3.203  -1.188  0.00  0.00    -0.388 N 
ATOM      9  C   UNL d   1       0.874   1.994  -1.925  0.00  0.00     0.120 C 
ATOM     10  C   UNL d   1       2.071   1.054  -2.216  0.00  0.00     0.033 C 
BRANCH   8  11
ATOM     11  C   UNL d   1       0.076   4.274  -1.181  0.00  0.00     0.228 C 
ATOM     12  N   UNL d   1      -1.475   4.362  -0.913  0.00  0.00    -0.260 NA
ATOM     13  C   UNL d   1      -1.919   5.643  -1.483  0.00  0.00     0.046 C 
ATOM     14  H   UNL d   1      -2.077   3.608  -1.240  0.00  0.00     0.130 HD
ATOM     15  C   UNL d   1      -3.045   6.424  -1.172  0.00  0.00     0.028 C 
ATOM     16  C   UNL d   1      -1.008   6.245  -2.348  0.00  0.00     0.117 C 
ATOM     17  C   UNL d   1      -2.938   7.824  -1.367  0.00  0.00     0.021 C 
ATOM     18  C   UNL d   1      -1.873   8.325  -2.107  0.00  0.00     0.118 C 
ATOM     19  N   UNL d   1      -0.959   7.542  -2.695  0.00  0.00    -0.252 NA
ATOM     20  S   UNL d   1       0.298   5.164  -2.783  0.00  0.00    -0.068 SA
ENDBRANCH   8  11
ENDBRANCH   2   5
BRANCH   3  21
ATOM     21  C   UNL d   1       2.265  -1.557   2.017  0.00  0.00     0.127 C 
BRANCH  21  22
ATOM     22  C   UNL d   1       3.243  -2.242   2.962  0.00  0.00     0.056 C 
BRANCH  22  23
ATOM     23  C   UNL d   1       2.566  -3.101   3.984  0.00  0.00    -0.048 A 
ATOM     24  C   UNL d   1       2.691  -4.428   4.098  0.00  0.00    -0.004 A 
ATOM     25  C   UNL d   1       3.397  -5.405   3.347  0.00  0.00     0.037 A 
ATOM     26  C   UNL d   1       1.908  -4.780   5.303  0.00  0.00     0.038 A 
ATOM     27  C   UNL d   1       3.353  -6.684   3.752  0.00  0.00     0.035 A 
ATOM     28 CL   UNL d   1       4.199  -7.891   2.865  0.00  0.00    -0.084 Cl
ATOM     29  C   UNL d   1       2.602  -7.075   4.939  0.00  0.00     0.026 A 
ATOM     30  C   UNL d   1       1.904  -6.211   5.701  0.00  0.00     0.031 A 
ATOM     31  N   UNL d   1       1.362  -3.775   5.830  0.00  0.00    -0.385 N 
ATOM     32  C   UNL d   1       1.683  -2.543   5.067  0.00  0.00     0.155 A 
ATOM     33  H   UNL d   1       0.781  -3.812   6.679  0.00  0.00     0.160 HD
ENDBRANCH  22  23
ENDBRANCH  21  22
ENDBRANCH   3  21
TORSDOF 5
