@<TRIPOS>MOLECULE
*****
 66 69 0 0 0
SMALL
GASTEIGER

@<TRIPOS>ATOM
      1 C           2.5811    3.2089    2.5067 C.3     1  UNL1       -0.0636
      2 C           2.3195    1.7979    2.0902 C.3     1  UNL1       -0.0376
      3 C           3.0140    1.4405    0.8403 C.3     1  UNL1        0.0204
      4 C           2.4890    0.0351    0.5994 C.3     1  UNL1       -0.0466
      5 N           4.4538    1.4895    1.1497 N.am    1  UNL1       -0.3087
      6 C           5.1845    2.6562    0.9644 C.2     1  UNL1        0.2461
      7 O           4.7214    3.7783    0.7873 O.2     1  UNL1       -0.2701
      8 C           6.6334    2.5041    0.8201 C.ar    1  UNL1        0.0594
      9 C           7.4146    3.2588    1.7771 C.ar    1  UNL1       -0.0265
     10 C           8.7824    3.4289    1.6027 C.ar    1  UNL1        0.0356
     11 N           9.5712    4.3308    2.4280 N.am    1  UNL1       -0.2692
     12 C          10.9207    4.6012    2.1866 C.2     1  UNL1        0.3081
     13 O          11.5664    4.0405    1.3030 O.2     1  UNL1       -0.2522
     14 N          11.5584    5.5050    3.0276 N.am    1  UNL1       -0.2692
     15 C          12.9508    5.8107    2.8371 C.ar    1  UNL1        0.0350
     16 C          13.8227    5.9765    3.9170 C.ar    1  UNL1       -0.0404
     17 C          15.1561    6.3747    3.7021 C.ar    1  UNL1       -0.0598
     18 C          15.6566    6.5244    2.4097 C.ar    1  UNL1       -0.0587
     19 C          14.8050    6.3594    1.3221 C.ar    1  UNL1       -0.0487
     20 C          15.2731    6.6280   -0.0744 C.3     1  UNL1       -0.0397
     21 C          13.4679    5.9973    1.5459 C.ar    1  UNL1       -0.0375
     22 C           9.3116    2.7002    0.5318 C.ar    1  UNL1       -0.0386
     23 C           8.5234    1.9423   -0.4161 C.ar    1  UNL1       -0.0382
     24 C           7.1192    1.7787   -0.3175 C.ar    1  UNL1        0.0423
     25 N           6.3325    1.1076   -1.2186 N.pl3   1  UNL1       -0.3247
     26 C           5.0122    1.4907   -1.5811 C.3     1  UNL1        0.0165
     27 C           4.6808    0.7352   -3.1416 C.3     1  UNL1       -0.0116
     28 C           3.4383    0.4447   -2.4511 C.ar    1  UNL1       -0.0412
     29 C           2.3021    1.5229   -2.4328 C.ar    1  UNL1       -0.0582
     30 C           1.0280    1.1694   -1.9861 C.ar    1  UNL1       -0.0615
     31 C           1.0454   -0.1604   -1.9906 C.ar    1  UNL1       -0.0614
     32 C           2.4575   -1.0359   -2.0207 C.ar    1  UNL1       -0.0568
     33 C           4.1212   -0.8075   -1.9944 C.ar    1  UNL1       -0.0270
     34 C           5.8550   -0.2420   -1.8454 C.3     1  UNL1        0.0375
     35 H           2.1059    3.3534    3.4654 H       1  UNL1        0.0230
     36 H           2.2167    3.9195    1.7569 H       1  UNL1        0.0230
     37 H           3.6418    3.3850    2.6863 H       1  UNL1        0.0230
     38 H           1.2506    1.6093    1.9757 H       1  UNL1        0.0280
     39 H           2.7516    1.1064    2.8194 H       1  UNL1        0.0280
     40 H           2.7685    2.1272    0.0087 H       1  UNL1        0.0495
     41 H           2.8068   -0.7604    1.2616 H       1  UNL1        0.0247
     42 H           2.9774   -0.3061   -0.2400 H       1  UNL1        0.0247
     43 H           1.4055   -0.0145    0.4217 H       1  UNL1        0.0247
     44 H           4.9618    0.6114    1.1104 H       1  UNL1        0.1493
     45 H           6.8903    3.6806    2.6344 H       1  UNL1        0.0644
     46 H           9.0715    4.8802    3.1174 H       1  UNL1        0.1564
     47 H          11.1065    5.8938    3.8418 H       1  UNL1        0.1564
     48 H          13.5191    5.7250    4.9286 H       1  UNL1        0.0636
     49 H          15.8157    6.5815    4.5417 H       1  UNL1        0.0618
     50 H          16.7051    6.7722    2.2548 H       1  UNL1        0.0620
     51 H          16.3266    6.9243   -0.0908 H       1  UNL1        0.0278
     52 H          14.6891    7.4508   -0.5010 H       1  UNL1        0.0278
     53 H          15.1539    5.7353   -0.6944 H       1  UNL1        0.0278
     54 H          12.8185    5.8883    0.6803 H       1  UNL1        0.0639
     55 H          10.3873    2.6674    0.3832 H       1  UNL1        0.0637
     56 H           9.1042    1.5675   -1.2562 H       1  UNL1        0.0637
     57 H           4.6406    2.4931   -1.4491 H       1  UNL1        0.0467
     58 H           4.5766    0.8720   -0.7637 H       1  UNL1        0.0467
     59 H           5.0769   -0.4638   -3.5280 H       1  UNL1        0.0328
     60 H           4.8372    1.3117   -4.0397 H       1  UNL1        0.0328
     61 H           2.5301    2.5752   -2.5276 H       1  UNL1        0.0620
     62 H           0.2685    1.8624   -1.6380 H       1  UNL1        0.0618
     63 H           0.0314   -0.6307   -1.7849 H       1  UNL1        0.0618
     64 H           2.0799   -2.0529   -2.0035 H       1  UNL1        0.0621
     65 H           6.4125    0.3058   -2.8572 H       1  UNL1        0.0513
     66 H           6.8453   -0.9134   -2.0471 H       1  UNL1        0.0513
@<TRIPOS>BOND
     1     1     2    1
     2     3     5    1
     3     5     6   am
     4     6     7    2
     5     6     8    1
     6     8     9   ar
     7     9    10   ar
     8    10    11    1
     9    11    12   am
    10    12    13    2
    11    12    14   am
    12    14    15    1
    13    15    16   ar
    14    16    17   ar
    15    17    18   ar
    16    18    19   ar
    17    19    20    1
    18    19    21   ar
    19    15    21   ar
    20    10    22   ar
    21    22    23   ar
    22    23    24   ar
    23     8    24   ar
    24    24    25    1
    25    25    26    1
    26    26    27    1
    27    27    28    1
    28    28    29   ar
    29    29    30   ar
    30    30    31   ar
    31    31    32   ar
    32    32    33   ar
    33    28    33   ar
    34    33    34    1
    35    25    34    1
    36     3     4    1
    37     3     2    1
    38     1    35    1
    39     1    36    1
    40     1    37    1
    41     2    38    1
    42     2    39    1
    43     3    40    1
    44     4    41    1
    45     4    42    1
    46     4    43    1
    47     5    44    1
    48     9    45    1
    49    11    46    1
    50    14    47    1
    51    16    48    1
    52    17    49    1
    53    18    50    1
    54    20    51    1
    55    20    52    1
    56    20    53    1
    57    21    54    1
    58    22    55    1
    59    23    56    1
    60    26    57    1
    61    26    58    1
    62    27    59    1
    63    27    60    1
    64    29    61    1
    65    30    62    1
    66    31    63    1
    67    32    64    1
    68    34    65    1
    69    34    66    1
