REMARK  6 active torsions:
REMARK  status: ('A' for Active; 'I' for Inactive)
REMARK    1  A    between atoms: C_2  and  C_3 
REMARK       I    between atoms: C_2  and  N_13 
REMARK    2  A    between atoms: C_3  and  C_4 
REMARK    3  A    between atoms: C_9  and  N_10 
REMARK    4  A    between atoms: N_13  and  N_14 
REMARK       I    between atoms: N_14  and  C_15 
REMARK       I    between atoms: C_15  and  N_17 
REMARK    5  A    between atoms: N_17  and  C_18 
REMARK    6  A    between atoms: C_18  and  C_19 
ROOT
ATOM      1  O   UNL d   1       1.031   0.378   0.160  0.00  0.00    -0.272 OA
ATOM      2  C   UNL d   1       2.238   0.192   0.008  0.00  0.00     0.240 C 
ATOM      3  N   UNL d   1       3.056   1.275   0.182  0.00  0.00    -0.266 N 
ATOM      4  H   UNL d   1       2.591   2.152   0.423  0.00  0.00     0.190 HD
ENDROOT
BRANCH   2   5
ATOM      5  C   UNL d   1       2.877  -1.150  -0.335  0.00  0.00     0.145 C 
BRANCH   5   6
ATOM      6  C   UNL d   1       1.981  -2.364  -0.569  0.00  0.00    -0.016 C 
ATOM      7  C   UNL d   1       0.595  -2.210  -0.771  0.00  0.00     0.010 C 
ATOM      8  C   UNL d   1      -0.284  -3.291  -0.774  0.00  0.00     0.001 C 
ATOM      9  C   UNL d   1       0.210  -4.583  -0.737  0.00  0.00     0.002 C 
ATOM     10  C   UNL d   1       1.586  -4.789  -0.654  0.00  0.00     0.037 C 
ATOM     11  C   UNL d   1       2.476  -3.694  -0.568  0.00  0.00     0.109 C 
BRANCH  11  12
ATOM     12  N   UNL d   1       3.925  -4.010  -0.515  0.00  0.00    -0.115 N 
ATOM     13  O   UNL d   1       4.254  -5.204  -0.503  0.00  0.00    -0.532 OA
ATOM     14  O   UNL d   1       4.742  -3.077  -0.504  0.00  0.00    -0.532 OA
ENDBRANCH  11  12
ENDBRANCH   5   6
ENDBRANCH   2   5
BRANCH   3  15
ATOM     15  N   UNL d   1       4.452   1.294   0.205  0.00  0.00    -0.249 N 
ATOM     16  C   UNL d   1       5.055   2.509   0.471  0.00  0.00     0.334 C 
ATOM     17  O   UNL d   1       4.408   3.534   0.689  0.00  0.00    -0.246 OA
ATOM     18  N   UNL d   1       6.423   2.467   0.454  0.00  0.00    -0.341 N 
ATOM     19  H   UNL d   1       6.895   1.586   0.334  0.00  0.00     0.164 HD
ATOM     20  H   UNL d   1       4.980   0.447   0.043  0.00  0.00     0.192 HD
BRANCH  18  21
ATOM     21  C   UNL d   1       7.206   3.663   0.687  0.00  0.00     0.129 C 
BRANCH  21  22
ATOM     22  C   UNL d   1       8.686   3.409   0.638  0.00  0.00     0.003 A 
ATOM     23  C   UNL d   1       9.328   2.331  -0.208  0.00  0.00     0.007 A 
ATOM     24  C   UNL d   1       9.459   3.768  -0.614  0.00  0.00     0.007 A 
ENDBRANCH  21  22
ENDBRANCH  18  21
ENDBRANCH   3  15
TORSDOF 6
