REMARK  14 active torsions:
REMARK  status: ('A' for Active; 'I' for Inactive)
REMARK    1  A    between atoms: C_2  and  N_3 
REMARK    2  A    between atoms: C_2  and  C_14 
REMARK       I    between atoms: N_3  and  C_4 
REMARK    3  A    between atoms: C_4  and  O_6 
REMARK    4  A    between atoms: O_6  and  C_7 
REMARK    5  A    between atoms: C_7  and  C_8 
REMARK       I    between atoms: C_14  and  N_16 
REMARK    6  A    between atoms: C_17  and  N_16 
REMARK    7  A    between atoms: C_17  and  C_27 
REMARK    8  A    between atoms: C_17  and  C_18 
REMARK    9  A    between atoms: C_18  and  S_19 
REMARK   10  A    between atoms: S_19  and  C_20 
REMARK   11  A    between atoms: C_20  and  C_21 
REMARK   12  A    between atoms: C_27  and  O_29 
REMARK   13  A    between atoms: O_29  and  C_30 
REMARK   14  A    between atoms: C_30  and  C_31 
ROOT
ATOM      1  C   UNL d   1       5.055   2.175  -2.236  0.00  0.00     0.193 C 
ENDROOT
BRANCH   1   2
ATOM      2  C   UNL d   1       6.595   2.121  -2.243  0.00  0.00     0.282 C 
ATOM      3  O   UNL d   1       7.277   1.482  -1.452  0.00  0.00    -0.263 OA
BRANCH   2   4
ATOM      4  O   UNL d   1       7.116   2.918  -3.218  0.00  0.00    -0.315 OA
BRANCH   4   5
ATOM      5  C   UNL d   1       8.554   2.931  -3.221  0.00  0.00     0.217 C 
BRANCH   5   6
ATOM      6  C   UNL d   1       9.023   3.920  -4.255  0.00  0.00    -0.034 A 
ATOM      7  C   UNL d   1       9.905   3.566  -5.286  0.00  0.00     0.009 A 
ATOM      8  C   UNL d   1      10.357   4.535  -6.186  0.00  0.00     0.001 A 
ATOM      9  C   UNL d   1       9.875   5.842  -6.107  0.00  0.00     0.000 A 
ATOM     10  C   UNL d   1       8.999   6.201  -5.086  0.00  0.00     0.001 A 
ATOM     11  C   UNL d   1       8.593   5.250  -4.155  0.00  0.00     0.009 A 
ENDBRANCH   5   6
ENDBRANCH   4   5
ENDBRANCH   2   4
ENDBRANCH   1   2
BRANCH   1  12
ATOM     12  C   UNL d   1       4.387   1.071  -1.397  0.00  0.00     0.109 C 
BRANCH  12  13
ATOM     13  S   UNL d   1       4.834  -0.572  -2.016  0.00  0.00    -0.162 SA
BRANCH  13  14
ATOM     14  C   UNL d   1       4.827  -1.536  -0.462  0.00  0.00     0.112 C 
BRANCH  14  15
ATOM     15  C   UNL d   1       5.676  -2.795  -0.572  0.00  0.00    -0.049 C 
ATOM     16  C   UNL d   1       5.373  -3.952   0.162  0.00  0.00     0.008 C 
ATOM     17  C   UNL d   1       6.237  -5.059   0.165  0.00  0.00     0.001 C 
ATOM     18  C   UNL d   1       7.325  -5.093  -0.699  0.00  0.00     0.000 C 
ATOM     19  C   UNL d   1       7.613  -3.980  -1.474  0.00  0.00     0.001 C 
ATOM     20  C   UNL d   1       6.833  -2.830  -1.362  0.00  0.00     0.008 C 
ENDBRANCH  14  15
ENDBRANCH  13  14
ENDBRANCH  12  13
ENDBRANCH   1  12
BRANCH   1  21
ATOM     21  N   UNL d   1       4.568   3.524  -1.918  0.00  0.00    -0.345 N 
ATOM     22  C   UNL d   1       4.767   4.294  -0.806  0.00  0.00     0.240 C 
ATOM     23  O   UNL d   1       4.077   5.314  -0.718  0.00  0.00    -0.271 OA
ATOM     24  H   UNL d   1       3.858   3.910  -2.535  0.00  0.00     0.163 HD
BRANCH  22  25
ATOM     25  C   UNL d   1       5.896   3.962   0.223  0.00  0.00     0.174 C 
ATOM     26  C   UNL d   1       5.976   5.068   1.268  0.00  0.00     0.042 C 
BRANCH  25  27
ATOM     27  N   UNL d   1       5.723   2.678   0.903  0.00  0.00    -0.324 N 
ATOM     28  C   UNL d   1       6.682   2.092   1.688  0.00  0.00     0.361 C 
ATOM     29  O   UNL d   1       7.780   2.592   1.928  0.00  0.00    -0.238 OA
ATOM     30  H   UNL d   1       4.783   2.359   1.083  0.00  0.00     0.165 HD
BRANCH  28  31
ATOM     31  O   UNL d   1       6.241   0.912   2.215  0.00  0.00    -0.299 OA
BRANCH  31  32
ATOM     32  C   UNL d   1       7.186   0.292   3.124  0.00  0.00     0.219 C 
BRANCH  32  33
ATOM     33  C   UNL d   1       6.728  -1.056   3.666  0.00  0.00    -0.034 A 
ATOM     34  C   UNL d   1       7.043  -1.489   4.959  0.00  0.00     0.009 A 
ATOM     35  C   UNL d   1       6.739  -2.796   5.385  0.00  0.00     0.001 A 
ATOM     36  C   UNL d   1       6.029  -3.662   4.569  0.00  0.00     0.000 A 
ATOM     37  C   UNL d   1       5.695  -3.240   3.303  0.00  0.00     0.001 A 
ATOM     38  C   UNL d   1       6.091  -1.980   2.849  0.00  0.00     0.009 A 
ENDBRANCH  32  33
ENDBRANCH  31  32
ENDBRANCH  28  31
ENDBRANCH  25  27
ENDBRANCH  22  25
ENDBRANCH   1  21
TORSDOF 14
