REMARK  10 active torsions:
REMARK  status: ('A' for Active; 'I' for Inactive)
REMARK    1  A    between atoms: C_2  and  C_3 
REMARK       I    between atoms: C_2  and  N_11 
REMARK    2  A    between atoms: C_3  and  C_4 
REMARK    3  A    between atoms: C_4  and  C_5 
REMARK    4  A    between atoms: N_11  and  N_12 
REMARK    5  A    between atoms: N_12  and  C_13 
REMARK    6  A    between atoms: C_13  and  N_15 
REMARK       I    between atoms: N_15  and  C_16 
REMARK    7  A    between atoms: C_16  and  C_18 
REMARK    8  A    between atoms: C_18  and  O_19 
REMARK    9  A    between atoms: O_19  and  C_20 
REMARK   10  A    between atoms: C_23  and  N_24 
ROOT
ATOM      1  C   UNL d   1       5.141  -2.097  -1.720  0.00  0.00     0.193 C 
ATOM      2  S   UNL d   1       4.104  -3.126  -2.570  0.00  0.00    -0.039 SA
ENDROOT
BRANCH   1   3
ATOM      3  N   UNL d   1       4.594  -1.098  -0.888  0.00  0.00    -0.273 N 
ATOM      4  H   UNL d   1       5.132  -0.430  -0.348  0.00  0.00     0.189 HD
BRANCH   3   5
ATOM      5  N   UNL d   1       3.165  -1.004  -0.816  0.00  0.00    -0.268 N 
ATOM      6  C   UNL d   1       2.402  -0.127  -0.090  0.00  0.00     0.236 C 
ATOM      7  O   UNL d   1       1.169  -0.193  -0.146  0.00  0.00    -0.272 OA
ATOM      8  H   UNL d   1       2.645  -1.683  -1.378  0.00  0.00     0.190 HD
BRANCH   6   9
ATOM      9  C   UNL d   1       3.118   0.890   0.757  0.00  0.00     0.109 C 
BRANCH   9  10
ATOM     10  C   UNL d   1       2.130   1.781   1.504  0.00  0.00     0.048 C 
BRANCH  10  11
ATOM     11  C   UNL d   1       2.800   2.831   2.352  0.00  0.00    -0.058 A 
ATOM     12  C   UNL d   1       3.579   2.481   3.464  0.00  0.00     0.007 A 
ATOM     13  C   UNL d   1       4.016   3.465   4.351  0.00  0.00     0.001 A 
ATOM     14  C   UNL d   1       3.749   4.809   4.091  0.00  0.00     0.000 A 
ATOM     15  C   UNL d   1       3.028   5.169   2.955  0.00  0.00     0.001 A 
ATOM     16  C   UNL d   1       2.553   4.185   2.092  0.00  0.00     0.007 A 
ENDBRANCH  10  11
ENDBRANCH   9  10
ENDBRANCH   6   9
ENDBRANCH   3   5
ENDBRANCH   1   3
BRANCH   1  17
ATOM     17  N   UNL d   1       6.557  -2.142  -1.762  0.00  0.00    -0.301 N 
ATOM     18  C   UNL d   1       7.336  -3.048  -2.524  0.00  0.00     0.248 C 
ATOM     19  O   UNL d   1       6.836  -3.927  -3.228  0.00  0.00    -0.271 OA
ATOM     20  H   UNL d   1       7.056  -1.464  -1.204  0.00  0.00     0.171 HD
BRANCH  18  21
ATOM     21  C   UNL d   1       8.884  -2.949  -2.460  0.00  0.00     0.278 C 
BRANCH  21  22
ATOM     22  O   UNL d   1       9.418  -3.889  -3.420  0.00  0.00    -0.342 OA
BRANCH  22  23
ATOM     23  C   UNL d   1      10.756  -4.156  -3.458  0.00  0.00     0.069 A 
ATOM     24  C   UNL d   1      11.284  -4.499  -4.714  0.00  0.00     0.039 A 
ATOM     25  C   UNL d   1      12.628  -4.872  -4.859  0.00  0.00     0.039 A 
ATOM     26  C   UNL d   1      13.465  -4.852  -3.739  0.00  0.00     0.103 A 
ATOM     27  C   UNL d   1      12.940  -4.547  -2.477  0.00  0.00     0.039 A 
ATOM     28  C   UNL d   1      11.584  -4.212  -2.340  0.00  0.00     0.039 A 
BRANCH  26  29
ATOM     29  N   UNL d   1      14.907  -5.094  -3.895  0.00  0.00    -0.116 N 
ATOM     30  O   UNL d   1      15.338  -5.332  -5.029  0.00  0.00    -0.532 OA
ATOM     31  O   UNL d   1      15.615  -5.012  -2.876  0.00  0.00    -0.532 OA
ENDBRANCH  26  29
ENDBRANCH  22  23
ENDBRANCH  21  22
ENDBRANCH  18  21
ENDBRANCH   1  17
TORSDOF 10
