REMARK  11 active torsions:
REMARK  status: ('A' for Active; 'I' for Inactive)
REMARK    1  A    between atoms: C_2  and  C_3 
REMARK    2  A    between atoms: C_3  and  C_4 
REMARK    3  A    between atoms: C_4  and  S_5 
REMARK    4  A    between atoms: S_5  and  C_6 
REMARK    5  A    between atoms: C_9  and  C_10 
REMARK       I    between atoms: C_10  and  N_12 
REMARK    6  A    between atoms: N_12  and  C_13 
REMARK    7  A    between atoms: C_13  and  C_14 
REMARK    8  A    between atoms: C_14  and  C_15 
REMARK    9  A    between atoms: C_14  and  N_25 
REMARK   10  A    between atoms: C_17  and  O_18 
REMARK   11  A    between atoms: C_22  and  O_23 
ROOT
ATOM      1  C   UNL d   1      13.933  -2.550  -3.086  0.00  0.00     0.241 C 
ENDROOT
BRANCH   1   2
ATOM      2  C   UNL d   1      13.325  -1.095  -3.057  0.00  0.00     0.161 C 
BRANCH   2   3
ATOM      3  N   UNL d   1      11.857  -1.079  -3.028  0.00  0.00    -0.354 N 
ATOM      4  C   UNL d   1      11.126   0.084  -3.083  0.00  0.00     0.256 C 
ATOM      5  O   UNL d   1      11.700   1.183  -3.079  0.00  0.00    -0.268 OA
ATOM      6  H   UNL d   1      11.352  -1.962  -3.097  0.00  0.00     0.162 HD
BRANCH   4   7
ATOM      7  C   UNL d   1       9.644   0.011  -3.132  0.00  0.00     0.090 A 
ATOM      8  C   UNL d   1       8.909   1.179  -3.130  0.00  0.00     0.139 A 
ATOM      9  N   UNL d   1       7.552   1.228  -3.123  0.00  0.00    -0.234 NA
ATOM     10  C   UNL d   1       6.895   0.058  -3.120  0.00  0.00     0.189 A 
ATOM     11  N   UNL d   1       7.501  -1.132  -3.143  0.00  0.00    -0.210 NA
ATOM     12  C   UNL d   1       8.852  -1.120  -3.155  0.00  0.00     0.146 A 
ATOM     13 CL   UNL d   1       9.464  -2.736  -3.203  0.00  0.00    -0.061 Cl
BRANCH  10  14
ATOM     14  S   UNL d   1       5.132   0.082  -3.291  0.00  0.00    -0.090 SA
BRANCH  14  15
ATOM     15  C   UNL d   1       4.593  -0.012  -1.546  0.00  0.00     0.082 C 
BRANCH  15  16
ATOM     16  C   UNL d   1       3.059  -0.016  -1.504  0.00  0.00     0.010 C 
BRANCH  16  17
ATOM     17  C   UNL d   1       2.518  -0.078  -0.072  0.00  0.00    -0.004 C 
ATOM     18  C   UNL d   1       0.995  -0.078  -0.059  0.00  0.00     0.005 C 
ENDBRANCH  16  17
ENDBRANCH  15  16
ENDBRANCH  14  15
ENDBRANCH  10  14
ENDBRANCH   4   7
ENDBRANCH   2   3
ENDBRANCH   1   2
BRANCH   1  19
ATOM     19  C   UNL d   1      13.452  -3.410  -4.306  0.00  0.00     0.010 C 
ATOM     20  C   UNL d   1      12.743  -2.793  -5.385  0.00  0.00     0.049 C 
ATOM     21  C   UNL d   1      12.232  -3.528  -6.473  0.00  0.00     0.069 C 
ATOM     22  C   UNL d   1      12.608  -4.849  -6.629  0.00  0.00     0.039 C 
ATOM     23  C   UNL d   1      13.273  -5.485  -5.607  0.00  0.00     0.040 C 
ATOM     24  C   UNL d   1      13.556  -4.825  -4.410  0.00  0.00     0.076 C 
BRANCH  21  25
ATOM     25  O   UNL d   1      11.352  -2.889  -7.308  0.00  0.00    -0.356 OA
ATOM     26  C   UNL d   1      10.731  -3.736  -8.287  0.00  0.00     0.210 C 
ENDBRANCH  21  25
BRANCH  24  27
ATOM     27  O   UNL d   1      13.806  -5.804  -3.475  0.00  0.00    -0.355 OA
ATOM     28  C   UNL d   1      14.017  -5.397  -2.167  0.00  0.00     0.210 C 
ENDBRANCH  24  27
ENDBRANCH   1  19
BRANCH   1  29
ATOM     29  N   UNL d   1      15.610  -2.540  -2.814  0.00  0.00    -0.061 N 
ATOM     30  C   UNL d   1      16.041  -1.341  -1.995  0.00  0.00     0.236 C 
ATOM     31  C   UNL d   1      17.547  -1.387  -1.744  0.00  0.00     0.028 C 
ATOM     32  C   UNL d   1      17.962  -2.626  -0.964  0.00  0.00     0.003 C 
ATOM     33  C   UNL d   1      17.751  -3.787  -1.888  0.00  0.00     0.028 C 
ATOM     34  C   UNL d   1      16.282  -3.814  -2.183  0.00  0.00     0.236 C 
ATOM     35  H   UNL d   1      15.994  -2.463  -3.764  0.00  0.00     0.280 HD
ENDBRANCH   1  29
TORSDOF 11
