@<TRIPOS>MOLECULE
*****
 57 59 0 0 0
SMALL
GASTEIGER

@<TRIPOS>ATOM
      1 C           1.0788   -0.0560    0.4550 C.3     1  UNL1        0.0790
      2 O           2.4527    0.0771    0.0839 O.3     1  UNL1       -0.4915
      3 C           2.9435   -0.5284   -1.0541 C.ar    1  UNL1        0.1615
      4 C           4.0575   -1.3544   -0.7952 C.ar    1  UNL1       -0.0155
      5 C           4.8451   -1.8919   -1.8310 C.ar    1  UNL1       -0.0444
      6 C           4.4976   -1.6846   -3.1683 C.ar    1  UNL1        0.0598
      7 C           5.2433   -2.3899   -4.2647 C.2     1  UNL1        0.3407
      8 O           6.1916   -3.1224   -3.9444 O.2     1  UNL1       -0.2483
      9 N           4.7670   -2.2327   -5.5490 N.am    1  UNL1        0.0006
     10 C           5.2696   -2.9341   -6.5313 C.2     1  UNL1        0.3844
     11 N           4.6962   -2.8812   -7.7806 N.pl3   1  UNL1       -0.2729
     12 C           3.7860   -1.8554   -8.2350 C.3     1  UNL1        0.0912
     13 C           3.6059   -1.8553   -9.7393 C.ar    1  UNL1        0.0040
     14 C           2.6174   -2.6348  -10.3486 C.ar    1  UNL1       -0.0527
     15 C           2.4189   -2.5689  -11.7282 C.ar    1  UNL1       -0.0432
     16 C           3.2281   -1.7279  -12.4714 C.ar    1  UNL1        0.0276
     17 N           4.2064   -0.9722  -11.9311 N.ar    1  UNL1       -0.2629
     18 C           4.3713   -1.0522  -10.5853 C.ar    1  UNL1        0.0337
     19 N           6.3087   -3.8295   -6.4217 N.pl3   1  UNL1       -0.2448
     20 C           7.0880   -4.4765   -7.4025 C.ar    1  UNL1        0.1029
     21 C           7.3948   -5.8388   -7.1969 C.ar    1  UNL1       -0.0200
     22 C           8.1452   -6.5677   -8.1303 C.ar    1  UNL1       -0.0472
     23 C           8.6607   -7.9436   -7.8335 C.3     1  UNL1       -0.0396
     24 C           8.4910   -5.9649   -9.3379 C.ar    1  UNL1       -0.0584
     25 C           8.2251   -4.6155   -9.5441 C.ar    1  UNL1       -0.0553
     26 C           7.5664   -3.8479   -8.5705 C.ar    1  UNL1       -0.0120
     27 C           7.4704   -2.3653   -8.8061 C.3     1  UNL1       -0.0365
     28 C           3.4137   -0.8488   -3.4382 C.ar    1  UNL1       -0.0027
     29 C           2.6483   -0.2485   -2.4077 C.ar    1  UNL1        0.1623
     30 O           1.7295    0.6020   -2.9761 O.3     1  UNL1       -0.4914
     31 C           0.7785    1.1429   -2.1033 C.3     1  UNL1        0.0790
     32 H           0.9661    0.0722    1.5353 H       1  UNL1        0.0660
     33 H           0.6291   -0.9987    0.1328 H       1  UNL1        0.0660
     34 H           0.4896    0.7955    0.1140 H       1  UNL1        0.0660
     35 H           4.3373   -1.5787    0.2338 H       1  UNL1        0.0655
     36 H           5.7332   -2.4725   -1.5840 H       1  UNL1        0.0627
     37 H           5.0983   -3.4739   -8.4963 H       1  UNL1        0.2580
     38 H           4.1251   -0.8613   -7.9199 H       1  UNL1        0.0707
     39 H           2.8141   -2.0313   -7.7647 H       1  UNL1        0.0707
     40 H           1.9817   -3.2790   -9.7473 H       1  UNL1        0.0622
     41 H           1.6439   -3.1546  -12.2103 H       1  UNL1        0.0633
     42 H           3.1038   -1.6368  -13.5478 H       1  UNL1        0.0829
     43 H           5.1634   -0.4122  -10.2042 H       1  UNL1        0.0833
     44 H           6.6792   -3.9332   -5.4739 H       1  UNL1        0.2646
     45 H           7.0346   -6.3395   -6.2983 H       1  UNL1        0.0655
     46 H           8.3566   -8.2873   -6.8407 H       1  UNL1        0.0278
     47 H           9.7576   -7.9183   -7.8491 H       1  UNL1        0.0278
     48 H           8.3135   -8.6631   -8.5802 H       1  UNL1        0.0278
     49 H           9.0093   -6.5316  -10.1078 H       1  UNL1        0.0620
     50 H           8.5732   -4.1496  -10.4630 H       1  UNL1        0.0621
     51 H           7.9400   -2.0793   -9.7506 H       1  UNL1        0.0279
     52 H           7.9359   -1.8106   -7.9876 H       1  UNL1        0.0279
     53 H           6.4507   -2.0237   -8.9137 H       1  UNL1        0.0279
     54 H           3.1528   -0.6268   -4.4716 H       1  UNL1        0.0663
     55 H           0.0657    1.8049   -2.5953 H       1  UNL1        0.0660
     56 H           1.2996    1.7584   -1.3632 H       1  UNL1        0.0660
     57 H           0.1751    0.3111   -1.7283 H       1  UNL1        0.0660
@<TRIPOS>BOND
     1     1     2    1
     2     2     3    1
     3     3     4   ar
     4     4     5   ar
     5     5     6   ar
     6     6     7    1
     7     7     8    2
     8     7     9    1
     9     9    10    2
    10    10    11    1
    11    11    12    1
    12    12    13    1
    13    13    14   ar
    14    14    15   ar
    15    15    16   ar
    16    16    17   ar
    17    17    18   ar
    18    13    18   ar
    19    10    19    1
    20    19    20    1
    21    20    21   ar
    22    21    22   ar
    23    22    23    1
    24    22    24   ar
    25    24    25   ar
    26    25    26   ar
    27    20    26   ar
    28    26    27    1
    29     6    28   ar
    30    28    29   ar
    31     3    29   ar
    32    29    30    1
    33    30    31    1
    34     1    32    1
    35     1    33    1
    36     1    34    1
    37     4    35    1
    38     5    36    1
    39    11    37    1
    40    12    38    1
    41    12    39    1
    42    14    40    1
    43    15    41    1
    44    16    42    1
    45    18    43    1
    46    19    44    1
    47    21    45    1
    48    23    46    1
    49    23    47    1
    50    23    48    1
    51    24    49    1
    52    25    50    1
    53    27    51    1
    54    27    52    1
    55    27    53    1
    56    28    54    1
    57    31    55    1
    58    31    56    1
    59    31    57    1
