@<TRIPOS>MOLECULE
*****
 65 67 0 0 0
SMALL
GASTEIGER

@<TRIPOS>ATOM
      1 C           1.0651    0.0661   -0.0273 C.3     1  UNL1        0.0365
      2 O           2.4884    0.0775   -0.0482 O.3     1  UNL1       -0.3814
      3 C           2.9786    0.7790   -1.1915 C.3     1  UNL1        0.0628
      4 C           4.5084    0.7782   -1.2043 C.3     1  UNL1        0.0353
      5 N           5.0628    1.4515   -2.3692 N.am    1  UNL1       -0.3092
      6 C           6.4273    1.5099   -2.5944 C.2     1  UNL1        0.2442
      7 O           7.2702    1.0122   -1.8579 O.2     1  UNL1       -0.2702
      8 C           6.8540    2.2638   -3.8032 C.ar    1  UNL1        0.0384
      9 C           7.8747    1.8384   -4.6432 C.ar    1  UNL1       -0.0495
     10 C           8.2759    2.6619   -5.7058 C.ar    1  UNL1       -0.0593
     11 C           7.6291    3.8892   -5.9546 C.ar    1  UNL1       -0.0404
     12 C           6.6189    4.3303   -5.0931 C.ar    1  UNL1        0.0341
     13 N           5.9989    5.5993   -5.2666 N.am    1  UNL1       -0.2842
     14 C           5.0359    6.1113   -4.3975 C.2     1  UNL1        0.2343
     15 O           4.5639    5.5315   -3.4150 O.2     1  UNL1       -0.2738
     16 C           4.4959    7.5021   -4.7080 C.3     1  UNL1        0.0861
     17 N           3.6092    7.8889   -3.6071 N.pl3   1  UNL1       -0.3354
     18 C           2.7631    8.9665   -3.6257 C.ar    1  UNL1        0.0283
     19 C           2.4846    9.6375   -2.4343 C.ar    1  UNL1       -0.0394
     20 C           1.6384   10.7415   -2.4168 C.ar    1  UNL1       -0.0409
     21 C           1.0937   11.2237   -3.6040 C.ar    1  UNL1        0.0532
     22 CL          0.2034   12.7036   -3.4345 Cl      1  UNL1       -0.0828
     23 C           1.3328   10.5391   -4.8130 C.ar    1  UNL1        0.0567
     24 C           0.6458   10.9242   -6.0651 C.2     1  UNL1        0.2458
     25 O          -0.2005   11.8135   -5.9919 O.2     1  UNL1       -0.2701
     26 N           0.9330   10.2797   -7.2613 N.am    1  UNL1       -0.3085
     27 C           0.2864   10.6422   -8.5266 C.3     1  UNL1        0.0234
     28 C          -1.0110    9.8559   -8.7612 C.3     1  UNL1       -0.0345
     29 C          -1.7194   10.3079  -10.0421 C.3     1  UNL1       -0.0514
     30 C          -1.9546   11.8152  -10.0587 C.3     1  UNL1       -0.0529
     31 C          -0.6383   12.5715   -9.9178 C.3     1  UNL1       -0.0514
     32 C           0.0615   12.1560   -8.6464 C.3     1  UNL1       -0.0345
     33 C           2.1879    9.4308   -4.8041 C.ar    1  UNL1       -0.0273
     34 C           6.2610    3.4989   -4.0309 C.ar    1  UNL1       -0.0284
     35 H           0.7292   -0.4773    0.8599 H       1  UNL1        0.0523
     36 H           0.6764   -0.4407   -0.9162 H       1  UNL1        0.0523
     37 H           0.6774    1.0885    0.0203 H       1  UNL1        0.0523
     38 H           2.6054    1.8099   -1.1702 H       1  UNL1        0.0575
     39 H           2.6016    0.2937   -2.0995 H       1  UNL1        0.0575
     40 H           4.8862   -0.2500   -1.1937 H       1  UNL1        0.0485
     41 H           4.8958    1.2626   -0.3001 H       1  UNL1        0.0485
     42 H           4.4267    1.8900   -3.0244 H       1  UNL1        0.1491
     43 H           8.3533    0.8777   -4.4720 H       1  UNL1        0.0625
     44 H           9.1113    2.3499   -6.3315 H       1  UNL1        0.0618
     45 H           7.9496    4.4751   -6.8137 H       1  UNL1        0.0636
     46 H           6.3185    6.1674   -6.0440 H       1  UNL1        0.1549
     47 H           3.9802    7.4503   -5.6704 H       1  UNL1        0.0557
     48 H           5.3205    8.2171   -4.7464 H       1  UNL1        0.0557
     49 H           3.4138    7.1444   -2.9288 H       1  UNL1        0.1466
     50 H           2.9663    9.3338   -1.5078 H       1  UNL1        0.0636
     51 H           1.4092   11.2343   -1.4754 H       1  UNL1        0.0633
     52 H           1.5098    9.4534   -7.2878 H       1  UNL1        0.1493
     53 H           1.0002   10.3413   -9.3064 H       1  UNL1        0.0498
     54 H          -1.6859    9.9810   -7.9058 H       1  UNL1        0.0283
     55 H          -0.7952    8.7814   -8.8304 H       1  UNL1        0.0283
     56 H          -2.6765    9.7843  -10.1407 H       1  UNL1        0.0266
     57 H          -1.1113   10.0338  -10.9129 H       1  UNL1        0.0266
     58 H          -2.6336   12.0838   -9.2374 H       1  UNL1        0.0265
     59 H          -2.4444   12.1149  -10.9897 H       1  UNL1        0.0265
     60 H          -0.8371   13.6478   -9.8624 H       1  UNL1        0.0266
     61 H           0.0131   12.3891  -10.7759 H       1  UNL1        0.0266
     62 H          -0.6156   12.5103   -7.8686 H       1  UNL1        0.0283
     63 H           1.0102   12.6868   -8.5134 H       1  UNL1        0.0283
     64 H           2.3874    8.8787   -5.7096 H       1  UNL1        0.0644
     65 H           5.5308    3.7925   -3.2958 H       1  UNL1        0.0644
@<TRIPOS>BOND
     1     1     2    1
     2     2     3    1
     3     3     4    1
     4     4     5    1
     5     5     6   am
     6     6     7    2
     7     6     8    1
     8     8     9   ar
     9     9    10   ar
    10    10    11   ar
    11    11    12   ar
    12    12    13    1
    13    13    14   am
    14    14    15    2
    15    14    16    1
    16    16    17    1
    17    17    18    1
    18    18    19   ar
    19    19    20   ar
    20    20    21   ar
    21    21    22    1
    22    21    23   ar
    23    23    24    1
    24    24    25    2
    25    24    26   am
    26    26    27    1
    27    27    28    1
    28    28    29    1
    29    29    30    1
    30    30    31    1
    31    31    32    1
    32    27    32    1
    33    23    33   ar
    34    18    33   ar
    35    12    34   ar
    36     8    34   ar
    37     1    35    1
    38     1    36    1
    39     1    37    1
    40     3    38    1
    41     3    39    1
    42     4    40    1
    43     4    41    1
    44     5    42    1
    45     9    43    1
    46    10    44    1
    47    11    45    1
    48    13    46    1
    49    16    47    1
    50    16    48    1
    51    17    49    1
    52    19    50    1
    53    20    51    1
    54    26    52    1
    55    27    53    1
    56    28    54    1
    57    28    55    1
    58    29    56    1
    59    29    57    1
    60    30    58    1
    61    30    59    1
    62    31    60    1
    63    31    61    1
    64    32    62    1
    65    32    63    1
    66    33    64    1
    67    34    65    1
