@<TRIPOS>MOLECULE
*****
 35 35 0 0 0
SMALL
GASTEIGER

@<TRIPOS>ATOM
      1 C           0.9700    0.0895    0.0488 C.3     1  UNL1       -0.0627
      2 C           2.5029    0.0718    0.0297 C.3     1  UNL1       -0.0463
      3 C           2.9810   -1.2593   -0.5486 C.3     1  UNL1       -0.0627
      4 C           3.0419    1.2661   -0.7813 C.3     1  UNL1       -0.0424
      5 C           4.5789    1.3541   -0.8274 C.3     1  UNL1        0.0256
      6 C           5.0527    2.5489   -1.6497 C.2     1  UNL1        0.2291
      7 O           4.2798    3.3293   -2.2058 O.2     1  UNL1       -0.2743
      8 N           6.4266    2.6975   -1.7442 N.am    1  UNL1       -0.2344
      9 N           6.9304    3.7921   -2.4963 N.am    1  UNL1       -0.2342
     10 C           8.2918    3.9891   -2.6187 C.2     1  UNL1        0.2324
     11 O           9.1184    3.2647   -2.0617 O.2     1  UNL1       -0.2740
     12 C           8.7688    5.0962   -3.5243 C.3     1  UNL1        0.0398
     13 C           8.9845    6.4985   -2.9776 C.3     1  UNL1       -0.0383
     14 C           7.9024    6.2558   -3.9984 C.3     1  UNL1       -0.0320
     15 C           7.9777    6.8551   -5.3685 C.3     1  UNL1       -0.0617
     16 H           0.5780   -0.7458    0.6401 H       1  UNL1        0.0232
     17 H           0.5614    0.0023   -0.9642 H       1  UNL1        0.0232
     18 H           0.5896    1.0172    0.4885 H       1  UNL1        0.0232
     19 H           2.8567    0.1555    1.0652 H       1  UNL1        0.0296
     20 H           2.6496   -1.3716   -1.5867 H       1  UNL1        0.0232
     21 H           2.5890   -2.1018    0.0294 H       1  UNL1        0.0232
     22 H           4.0711   -1.3371   -0.5286 H       1  UNL1        0.0232
     23 H           2.6425    2.1952   -0.3523 H       1  UNL1        0.0272
     24 H           2.6501    1.2106   -1.8056 H       1  UNL1        0.0272
     25 H           4.9962    0.4515   -1.2851 H       1  UNL1        0.0359
     26 H           4.9694    1.4342    0.1937 H       1  UNL1        0.0359
     27 H           7.1089    2.0660   -1.3267 H       1  UNL1        0.1728
     28 H           6.2333    4.3631   -2.9674 H       1  UNL1        0.1728
     29 H           9.5685    4.7514   -4.1769 H       1  UNL1        0.0397
     30 H           9.8999    7.0111   -3.2624 H       1  UNL1        0.0275
     31 H           8.6737    6.7359   -1.9653 H       1  UNL1        0.0275
     32 H           6.8784    6.3037   -3.6524 H       1  UNL1        0.0306
     33 H           8.9873    6.9545   -5.7817 H       1  UNL1        0.0233
     34 H           7.5288    7.8565   -5.3495 H       1  UNL1        0.0233
     35 H           7.3793    6.2585   -6.0656 H       1  UNL1        0.0233
@<TRIPOS>BOND
     1     1     2    1
     2     2     3    1
     3     2     4    1
     4     4     5    1
     5     5     6    1
     6     6     7    2
     7     6     8   am
     8     8     9    1
     9     9    10   am
    10    10    11    2
    11    10    12    1
    12    12    13    1
    13    13    14    1
    14    12    14    1
    15    14    15    1
    16     1    16    1
    17     1    17    1
    18     1    18    1
    19     2    19    1
    20     3    20    1
    21     3    21    1
    22     3    22    1
    23     4    23    1
    24     4    24    1
    25     5    25    1
    26     5    26    1
    27     8    27    1
    28     9    28    1
    29    12    29    1
    30    13    30    1
    31    13    31    1
    32    14    32    1
    33    15    33    1
    34    15    34    1
    35    15    35    1
