REMARK  11 active torsions:
REMARK  status: ('A' for Active; 'I' for Inactive)
REMARK    1  A    between atoms: O_2  and  C_3 
REMARK    2  A    between atoms: C_5  and  C_6 
REMARK    3  A    between atoms: C_6  and  N_7 
REMARK    4  A    between atoms: N_7  and  C_8 
REMARK    5  A    between atoms: C_8  and  C_9 
REMARK    6  A    between atoms: C_9  and  N_10 
REMARK    7  A    between atoms: N_10  and  C_11 
REMARK    8  A    between atoms: C_14  and  N_15 
REMARK    9  A    between atoms: C_23  and  O_24 
REMARK   10  A    between atoms: O_24  and  C_25 
REMARK   11  A    between atoms: C_25  and  C_26 
ROOT
ATOM      1  C   UNL d   1       3.147  -1.111   0.531  0.00  0.00     0.103 A 
ATOM      2  C   UNL d   1       2.719  -2.317  -0.042  0.00  0.00     0.048 A 
ATOM      3  C   UNL d   1       3.347  -3.517   0.284  0.00  0.00    -0.028 A 
ATOM      4  C   UNL d   1       4.416  -3.484   1.180  0.00  0.00     0.035 A 
ATOM      5  C   UNL d   1       4.877  -2.302   1.745  0.00  0.00     0.070 A 
ATOM      6 CL   UNL d   1       6.200  -2.599   2.830  0.00  0.00    -0.081 Cl
ATOM      7  C   UNL d   1       4.264  -1.085   1.414  0.00  0.00     0.124 A 
ENDROOT
BRANCH   3   8
ATOM      8  C   UNL d   1       2.876  -4.801  -0.324  0.00  0.00     0.271 C 
BRANCH   8   9
ATOM      9  N   UNL d   1       3.668  -5.964   0.158  0.00  0.00    -0.070 N 
ATOM     10  H   UNL d   1       3.602  -6.002   1.184  0.00  0.00     0.277 HD
ATOM     11  H   UNL d   1       4.657  -5.804  -0.083  0.00  0.00     0.277 HD
BRANCH   9  12
ATOM     12  C   UNL d   1       3.243  -7.261  -0.406  0.00  0.00     0.252 C 
BRANCH  12  13
ATOM     13  C   UNL d   1       4.124  -8.379   0.158  0.00  0.00     0.147 C 
BRANCH  13  14
ATOM     14  N   UNL d   1       3.796  -9.627  -0.478  0.00  0.00    -0.388 N 
ATOM     15  H   UNL d   1       2.980  -9.711  -1.082  0.00  0.00     0.159 HD
BRANCH  14  16
ATOM     16  C   UNL d   1       4.315 -10.835  -0.051  0.00  0.00     0.028 A 
ATOM     17  C   UNL d   1       4.532 -11.826  -1.016  0.00  0.00     0.031 A 
ATOM     18  C   UNL d   1       5.008 -13.089  -0.662  0.00  0.00     0.038 A 
ATOM     19  C   UNL d   1       5.341 -13.345   0.671  0.00  0.00     0.103 A 
ATOM     20  C   UNL d   1       5.148 -12.364   1.648  0.00  0.00     0.038 A 
ATOM     21  C   UNL d   1       4.646 -11.112   1.279  0.00  0.00     0.031 A 
BRANCH  19  22
ATOM     22  N   UNL d   1       5.957 -14.628   1.029  0.00  0.00    -0.116 N 
ATOM     23  O   UNL d   1       6.142 -15.450   0.127  0.00  0.00    -0.532 OA
ATOM     24  O   UNL d   1       6.277 -14.794   2.219  0.00  0.00    -0.532 OA
ENDBRANCH  19  22
ENDBRANCH  14  16
ENDBRANCH  13  14
ENDBRANCH  12  13
ENDBRANCH   9  12
ENDBRANCH   8   9
ENDBRANCH   3   8
BRANCH   1  25
ATOM     25  O   UNL d   1       2.543   0.076   0.173  0.00  0.00    -0.353 OA
ATOM     26  C   UNL d   1       1.110   0.052   0.118  0.00  0.00     0.210 C 
ENDBRANCH   1  25
BRANCH   7  27
ATOM     27  O   UNL d   1       4.625   0.155   1.866  0.00  0.00    -0.342 OA
BRANCH  27  28
ATOM     28  C   UNL d   1       5.742   0.256   2.754  0.00  0.00     0.216 C 
BRANCH  28  29
ATOM     29  C   UNL d   1       6.003   1.671   3.148  0.00  0.00    -0.017 A 
ATOM     30  C   UNL d   1       5.519   2.733   2.392  0.00  0.00     0.012 A 
ATOM     31  C   UNL d   1       5.734   4.028   2.828  0.00  0.00     0.020 A 
ATOM     32  C   UNL d   1       6.456   4.214   3.994  0.00  0.00     0.116 A 
ATOM     33  N   UNL d   1       6.992   3.210   4.723  0.00  0.00    -0.272 NA
ATOM     34  C   UNL d   1       6.761   1.958   4.280  0.00  0.00     0.125 A 
ENDBRANCH  28  29
ENDBRANCH  27  28
ENDBRANCH   7  27
TORSDOF 11
