@<TRIPOS>MOLECULE
*****
 58 60 0 0 0
SMALL
GASTEIGER

@<TRIPOS>ATOM
      1 C           2.4840    0.0068   -0.0131 C.3     1  UNL1       -0.0397
      2 C           0.9823    0.0236    0.0016 C.ar    1  UNL1       -0.0497
      3 C           0.2574   -1.1708    0.0035 C.ar    1  UNL1       -0.0588
      4 C          -1.1348   -1.1326   -0.0008 C.ar    1  UNL1       -0.0608
      5 C          -1.8085    0.1021   -0.0048 C.ar    1  UNL1       -0.0496
      6 C          -1.1024    1.3239    0.0038 C.ar    1  UNL1        0.0384
      7 C          -1.8661    2.6392    0.0131 C.2     1  UNL1        0.2602
      8 O          -3.1012    2.6287    0.0094 O.2     1  UNL1       -0.2687
      9 N          -1.1441    3.8335    0.0286 N.am    1  UNL1       -0.2292
     10 N          -1.8084    5.1095    0.0432 N.am    1  UNL1       -0.2180
     11 C          -1.0341    6.2638    0.0599 C.2     1  UNL1        0.3160
     12 O           0.1971    6.2172    0.0612 O.2     1  UNL1       -0.2513
     13 N          -1.7367    7.4559    0.0765 N.am    1  UNL1       -0.2970
     14 C          -1.0375    8.7641    0.0926 C.3     1  UNL1        0.0259
     15 C          -1.9626   10.0056    0.1093 C.3     1  UNL1        0.0146
     16 N          -1.3564   11.3267    0.0874 N.3     1  UNL1       -0.2979
     17 C          -0.8482   11.9244   -1.1462 C.3     1  UNL1        0.0147
     18 C          -1.2862   13.4206   -1.2287 C.3     1  UNL1        0.0250
     19 N          -0.8554   14.1321   -0.0159 N.pl3   1  UNL1       -0.3274
     20 C          -0.1070   15.2881   -0.0651 C.ar    1  UNL1        0.0300
     21 C           1.1496   15.3666    0.5502 C.ar    1  UNL1       -0.0406
     22 C           1.9296   16.5291    0.4840 C.ar    1  UNL1       -0.0598
     23 C           1.4512   17.6579   -0.1740 C.ar    1  UNL1       -0.0587
     24 C           0.1946   17.6267   -0.7816 C.ar    1  UNL1       -0.0487
     25 C          -0.3452   18.8553   -1.4557 C.3     1  UNL1       -0.0397
     26 C          -0.5624   16.4365   -0.7353 C.ar    1  UNL1       -0.0377
     27 C          -1.2666   13.5035    1.2505 C.3     1  UNL1        0.0250
     28 C          -0.8575   12.0003    1.2853 C.3     1  UNL1        0.0147
     29 C           0.2989    1.2591    0.0044 C.ar    1  UNL1       -0.0467
     30 H           2.8799   -1.0144    0.0004 H       1  UNL1        0.0278
     31 H           2.8737    0.5300    0.8656 H       1  UNL1        0.0278
     32 H           2.8517    0.4975   -0.9198 H       1  UNL1        0.0278
     33 H           0.7704   -2.1323    0.0050 H       1  UNL1        0.0620
     34 H          -1.6928   -2.0684   -0.0025 H       1  UNL1        0.0618
     35 H          -2.8975    0.0919   -0.0149 H       1  UNL1        0.0625
     36 H          -0.1296    3.8922    0.0357 H       1  UNL1        0.1732
     37 H          -2.8233    5.0854    0.0418 H       1  UNL1        0.1744
     38 H          -2.7464    7.4354    0.0668 H       1  UNL1        0.1503
     39 H          -0.3951    8.8002   -0.7940 H       1  UNL1        0.0475
     40 H          -0.3918    8.7791    0.9770 H       1  UNL1        0.0475
     41 H          -2.6271    9.9432    0.9814 H       1  UNL1        0.0442
     42 H          -2.6448    9.9401   -0.7492 H       1  UNL1        0.0442
     43 H          -1.2083   11.3902   -2.0306 H       1  UNL1        0.0442
     44 H           0.2496   11.8720   -1.1600 H       1  UNL1        0.0442
     45 H          -2.3821   13.4615   -1.2876 H       1  UNL1        0.0476
     46 H          -0.8883   13.8755   -2.1421 H       1  UNL1        0.0476
     47 H           1.5552   14.4987    1.0623 H       1  UNL1        0.0636
     48 H           2.9135   16.5531    0.9451 H       1  UNL1        0.0618
     49 H           2.0608   18.5587   -0.2059 H       1  UNL1        0.0620
     50 H           0.3748   19.6816   -1.4191 H       1  UNL1        0.0278
     51 H          -1.2579   19.1930   -0.9545 H       1  UNL1        0.0278
     52 H          -0.5602   18.6511   -2.5087 H       1  UNL1        0.0278
     53 H          -1.5465   16.4196   -1.1980 H       1  UNL1        0.0639
     54 H          -2.3636   13.5571    1.3051 H       1  UNL1        0.0476
     55 H          -0.8828   14.0367    2.1268 H       1  UNL1        0.0476
     56 H          -1.2467   11.5438    2.2012 H       1  UNL1        0.0442
     57 H           0.2382   11.9348    1.3297 H       1  UNL1        0.0442
     58 H           0.9004    2.1603    0.0043 H       1  UNL1        0.0628
@<TRIPOS>BOND
     1     1     2    1
     2     2     3   ar
     3     3     4   ar
     4     4     5   ar
     5     5     6   ar
     6     6     7    1
     7     7     8    2
     8     7     9   am
     9     9    10    1
    10    10    11   am
    11    11    12    2
    12    11    13   am
    13    13    14    1
    14    14    15    1
    15    15    16    1
    16    16    17    1
    17    17    18    1
    18    18    19    1
    19    19    20    1
    20    20    21   ar
    21    21    22   ar
    22    22    23   ar
    23    23    24   ar
    24    24    25    1
    25    24    26   ar
    26    20    26   ar
    27    19    27    1
    28    27    28    1
    29    16    28    1
    30     6    29   ar
    31     2    29   ar
    32     1    30    1
    33     1    31    1
    34     1    32    1
    35     3    33    1
    36     4    34    1
    37     5    35    1
    38     9    36    1
    39    10    37    1
    40    13    38    1
    41    14    39    1
    42    14    40    1
    43    15    41    1
    44    15    42    1
    45    17    43    1
    46    17    44    1
    47    18    45    1
    48    18    46    1
    49    21    47    1
    50    22    48    1
    51    23    49    1
    52    25    50    1
    53    25    51    1
    54    25    52    1
    55    26    53    1
    56    27    54    1
    57    27    55    1
    58    28    56    1
    59    28    57    1
    60    29    58    1
