REMARK  8 active torsions:
REMARK  status: ('A' for Active; 'I' for Inactive)
REMARK    1  A    between atoms: N_2  and  C_3 
REMARK    2  A    between atoms: C_5  and  C_6 
REMARK    3  A    between atoms: C_6  and  C_7 
REMARK    4  A    between atoms: C_6  and  N_17 
REMARK    5  A    between atoms: C_7  and  C_8 
REMARK       I    between atoms: N_17  and  C_18 
REMARK    6  A    between atoms: C_18  and  C_20 
REMARK    7  A    between atoms: C_25  and  O_26 
REMARK    8  A    between atoms: C_29  and  C_30 
ROOT
ATOM      1  C   UNL d   1       2.964   2.032  -4.412  0.00  0.00     0.141 C 
ENDROOT
BRANCH   1   2
ATOM      2  C   UNL d   1       3.459   1.081  -3.288  0.00  0.00     0.062 C 
ATOM      3  C   UNL d   1       2.758   0.936  -2.114  0.00  0.00     0.073 C 
ATOM      4  C   UNL d   1       3.226   0.103  -1.129  0.00  0.00     0.106 C 
ATOM      5  N   UNL d   1       4.320  -0.635  -1.320  0.00  0.00    -0.221 NA
ATOM      6  C   UNL d   1       4.974  -0.510  -2.504  0.00  0.00     0.132 C 
ATOM      7  N   UNL d   1       4.607   0.385  -3.453  0.00  0.00    -0.235 NA
BRANCH   4   8
ATOM      8  N   UNL d   1       2.573   0.090   0.110  0.00  0.00    -0.281 NA
ATOM      9  C   UNL d   1       1.122  -0.042   0.095  0.00  0.00     0.114 C 
ATOM     10  H   UNL d   1       3.056  -0.525   0.758  0.00  0.00     0.128 HD
ENDBRANCH   4   8
BRANCH   6  11
ATOM     11  C   UNL d   1       6.142  -1.460  -2.729  0.00  0.00     0.057 A 
ATOM     12  C   UNL d   1       6.822  -1.742  -4.042  0.00  0.00     0.013 A 
ATOM     13  C   UNL d   1       7.522  -0.905  -3.027  0.00  0.00     0.013 A 
ENDBRANCH   6  11
ENDBRANCH   1   2
BRANCH   1  14
ATOM     14  C   UNL d   1       2.742   1.321  -5.736  0.00  0.00     0.072 C 
BRANCH  14  15
ATOM     15  C   UNL d   1       3.908   0.607  -6.274  0.00  0.00    -0.028 A 
ATOM     16  C   UNL d   1       5.085   1.145  -6.742  0.00  0.00     0.096 A 
ATOM     17  N   UNL d   1       5.891   0.101  -7.104  0.00  0.00    -0.365 N 
ATOM     18  C   UNL d   1       5.234  -1.099  -6.910  0.00  0.00     0.042 A 
ATOM     19  H   UNL d   1       6.849   0.194  -7.407  0.00  0.00     0.165 HD
ATOM     20  C   UNL d   1       5.655  -2.420  -7.103  0.00  0.00     0.030 A 
ATOM     21  C   UNL d   1       4.007  -0.804  -6.332  0.00  0.00    -0.002 A 
ATOM     22  C   UNL d   1       4.779  -3.443  -6.709  0.00  0.00     0.002 A 
ATOM     23  C   UNL d   1       3.549  -3.164  -6.120  0.00  0.00     0.001 A 
ATOM     24  C   UNL d   1       3.159  -1.847  -5.908  0.00  0.00     0.014 A 
ENDBRANCH  14  15
ENDBRANCH   1  14
BRANCH   1  25
ATOM     25  N   UNL d   1       1.661   2.684  -4.129  0.00  0.00    -0.346 N 
ATOM     26  C   UNL d   1       1.244   3.836  -4.745  0.00  0.00     0.255 C 
ATOM     27  O   UNL d   1       1.764   4.290  -5.774  0.00  0.00    -0.268 OA
ATOM     28  H   UNL d   1       0.999   2.212  -3.529  0.00  0.00     0.163 HD
BRANCH  26  29
ATOM     29  C   UNL d   1       0.119   4.569  -4.115  0.00  0.00     0.065 A 
ATOM     30  C   UNL d   1      -0.955   4.868  -4.978  0.00  0.00     0.020 A 
ATOM     31  C   UNL d   1      -1.983   5.721  -4.572  0.00  0.00     0.001 A 
ATOM     32  C   UNL d   1      -2.000   6.211  -3.272  0.00  0.00     0.003 A 
ATOM     33  C   UNL d   1      -0.957   5.900  -2.403  0.00  0.00     0.038 A 
ATOM     34  C   UNL d   1       0.136   5.122  -2.815  0.00  0.00     0.084 A 
BRANCH  34  35
ATOM     35  O   UNL d   1       1.107   5.129  -1.842  0.00  0.00    -0.355 OA
ATOM     36  C   UNL d   1       2.223   4.297  -2.026  0.00  0.00     0.210 C 
ENDBRANCH  34  35
ENDBRANCH  26  29
ENDBRANCH   1  25
TORSDOF 8
