REMARK  9 active torsions:
REMARK  status: ('A' for Active; 'I' for Inactive)
REMARK    1  A    between atoms: C_2  and  C_3 
REMARK       I    between atoms: C_2  and  N_30 
REMARK    2  A    between atoms: C_3  and  S_4 
REMARK    3  A    between atoms: S_4  and  C_5 
REMARK    4  A    between atoms: N_15  and  N_16 
REMARK       I    between atoms: N_16  and  C_17 
REMARK    5  A    between atoms: C_17  and  C_19 
REMARK    6  A    between atoms: C_19  and  C_20 
REMARK    7  A    between atoms: C_20  and  C_21 
REMARK    8  A    between atoms: N_30  and  C_31 
REMARK    9  A    between atoms: C_32  and  C_31 
ROOT
ATOM      1  C   UNL d   1       5.168  -1.041   8.243  0.00  0.00     0.192 C 
ATOM      2  N   UNL d   1       4.507  -0.389   9.156  0.00  0.00    -0.222 NA
ATOM      3  C   UNL d   1       4.095  -1.002  10.336  0.00  0.00     0.075 C 
ATOM      4  C   UNL d   1       3.448  -0.228  11.319  0.00  0.00     0.032 C 
ATOM      5  C   UNL d   1       3.137  -0.770  12.569  0.00  0.00     0.002 C 
ATOM      6  C   UNL d   1       3.398  -2.115  12.809  0.00  0.00     0.001 C 
ATOM      7  C   UNL d   1       3.856  -2.933  11.763  0.00  0.00     0.019 C 
ATOM      8  C   UNL d   1       4.293  -2.357  10.553  0.00  0.00     0.063 C 
ATOM      9  C   UNL d   1       5.028  -3.118   9.485  0.00  0.00     0.281 C 
ATOM     10  O   UNL d   1       5.150  -4.339   9.606  0.00  0.00    -0.265 OA
ATOM     11  N   UNL d   1       5.540  -2.386   8.373  0.00  0.00    -0.192 N 
ENDROOT
BRANCH  11  12
ATOM     12  N   UNL d   1       6.199  -3.269   7.238  0.00  0.00    -0.258 N 
ATOM     13  C   UNL d   1       7.231  -2.834   6.350  0.00  0.00     0.236 C 
ATOM     14  O   UNL d   1       7.829  -1.750   6.548  0.00  0.00    -0.272 OA
ATOM     15  H   UNL d   1       6.219  -4.237   7.578  0.00  0.00     0.190 HD
BRANCH  13  16
ATOM     16  C   UNL d   1       7.644  -3.737   4.980  0.00  0.00     0.105 C 
BRANCH  16  17
ATOM     17  C   UNL d   1       8.104  -2.901   3.534  0.00  0.00     0.023 C 
BRANCH  17  18
ATOM     18  C   UNL d   1       8.867  -3.346   1.911  0.00  0.00     0.006 C 
ATOM     19  C   UNL d   1       9.821  -2.427   2.276  0.00  0.00     0.089 C 
ATOM     20  N   UNL d   1      10.785  -3.274   1.830  0.00  0.00    -0.288 NA
ATOM     21  C   UNL d   1      10.781  -2.628   0.653  0.00  0.00     0.001 C 
ATOM     22  H   UNL d   1      10.654  -4.287   1.812  0.00  0.00     0.128 HD
ATOM     23  C   UNL d   1      11.400  -1.345   0.393  0.00  0.00     0.020 C 
ATOM     24  C   UNL d   1       9.491  -3.169   0.177  0.00  0.00     0.042 C 
ATOM     25  C   UNL d   1      11.365  -0.738  -0.822  0.00  0.00     0.001 C 
ATOM     26  C   UNL d   1      10.816  -1.542  -1.754  0.00  0.00    -0.003 C 
ATOM     27  C   UNL d   1       9.967  -2.658  -1.252  0.00  0.00    -0.009 C 
ENDBRANCH  17  18
ENDBRANCH  16  17
ENDBRANCH  13  16
ENDBRANCH  11  12
BRANCH   1  28
ATOM     28  S   UNL d   1       5.573  -0.001   6.909  0.00  0.00    -0.081 SA
BRANCH  28  29
ATOM     29  C   UNL d   1       5.194  -0.879   5.386  0.00  0.00     0.185 C 
BRANCH  29  30
ATOM     30  C   UNL d   1       5.982  -0.287   4.209  0.00  0.00     0.227 C 
ATOM     31  O   UNL d   1       6.849   0.582   4.296  0.00  0.00    -0.273 OA
ATOM     32  N   UNL d   1       5.732  -0.805   2.955  0.00  0.00    -0.358 N 
ATOM     33  H   UNL d   1       6.398  -0.438   2.277  0.00  0.00     0.162 HD
BRANCH  32  34
ATOM     34  C   UNL d   1       5.029  -2.054   2.655  0.00  0.00     0.154 C 
BRANCH  34  35
ATOM     35  C   UNL d   1       4.939  -2.407   1.158  0.00  0.00     0.139 C 
ATOM     36  C   UNL d   1       6.245  -2.767   0.478  0.00  0.00     0.035 C 
ATOM     37  C   UNL d   1       6.329  -4.272   0.627  0.00  0.00     0.029 C 
ATOM     38  C   UNL d   1       4.884  -4.681   0.551  0.00  0.00     0.168 C 
ATOM     39  O   UNL d   1       4.104  -3.574   1.029  0.00  0.00    -0.384 OA
ENDBRANCH  34  35
ENDBRANCH  32  34
ENDBRANCH  29  30
ENDBRANCH  28  29
ENDBRANCH   1  28
TORSDOF 9
