REMARK  5 active torsions:
REMARK  status: ('A' for Active; 'I' for Inactive)
REMARK    1  A    between atoms: O_2  and  C_3 
REMARK    2  A    between atoms: C_8  and  C_9 
REMARK    3  A    between atoms: C_15  and  C_16 
REMARK    4  A    between atoms: C_16  and  N_17 
REMARK    5  A    between atoms: C_22  and  O_23 
ROOT
ATOM      1  C   UNL d   1       2.958  -0.224   1.125  0.00  0.00     0.069 C 
ATOM      2  C   UNL d   1       2.666  -1.292   1.956  0.00  0.00     0.039 C 
ATOM      3  C   UNL d   1       3.622  -1.684   2.903  0.00  0.00     0.035 C 
ATOM      4  C   UNL d   1       4.623  -0.770   3.311  0.00  0.00     0.070 A 
ATOM      5  N   UNL d   1       5.405  -0.868   4.410  0.00  0.00    -0.247 NA
ATOM      6  C   UNL d   1       6.476   0.086   4.950  0.00  0.00     0.078 A 
ATOM      7  C   UNL d   1       6.578   1.160   4.107  0.00  0.00     0.031 A 
ATOM      8  C   UNL d   1       5.776   1.300   2.973  0.00  0.00     0.088 A 
ATOM      9  C   UNL d   1       4.816   0.362   2.557  0.00  0.00     0.029 A 
ATOM     10  C   UNL d   1       4.064   0.562   1.400  0.00  0.00     0.053 C 
ENDROOT
BRANCH   7  11
ATOM     11  C   UNL d   1       7.531   2.127   4.553  0.00  0.00     0.278 C 
BRANCH  11  12
ATOM     12  N   UNL d   1       7.914   1.476   5.770  0.00  0.00    -0.067 N 
ATOM     13  C   UNL d   1       8.861  -0.099   5.188  0.00  0.00     0.235 C 
ATOM     14  C   UNL d   1       7.474  -1.525   5.056  0.00  0.00     0.029 C 
ATOM     15  C   UNL d   1       5.860  -0.987   6.414  0.00  0.00     0.029 C 
ATOM     16  C   UNL d   1       6.121   1.095   6.631  0.00  0.00     0.235 C 
ATOM     17  H   UNL d   1       8.564   2.066   6.326  0.00  0.00     0.280 HD
ENDBRANCH  11  12
ENDBRANCH   7  11
BRANCH   6  18
ATOM     18  C   UNL d   1       7.554  -0.400   6.702  0.00  0.00    -0.007 C 
ATOM     19  C   UNL d   1       7.390   0.087   8.036  0.00  0.00     0.014 C 
ATOM     20  C   UNL d   1       8.437   0.143   8.828  0.00  0.00     0.001 C 
ATOM     21  C   UNL d   1       9.144  -1.044   8.780  0.00  0.00     0.000 C 
ATOM     22  C   UNL d   1       8.853  -2.145   7.974  0.00  0.00     0.001 C 
ATOM     23  C   UNL d   1       7.913  -1.885   7.074  0.00  0.00     0.014 C 
ENDBRANCH   6  18
BRANCH   8  24
ATOM     24  O   UNL d   1       5.910   2.441   2.225  0.00  0.00    -0.359 OA
ATOM     25  H   UNL d   1       6.557   3.050   2.604  0.00  0.00     0.217 HD
ENDBRANCH   8  24
BRANCH   1  26
ATOM     26  O   UNL d   1       2.323   0.076  -0.040  0.00  0.00    -0.356 OA
ATOM     27  C   UNL d   1       0.907   0.017  -0.006  0.00  0.00     0.210 C 
ENDBRANCH   1  26
TORSDOF 5
