@<TRIPOS>MOLECULE
*****
 44 46 0 0 0
SMALL
GASTEIGER

@<TRIPOS>ATOM
      1 C           2.5097    1.0887    0.0082 C.3     1  UNL1       -0.0397
      2 C           1.2109    0.3386    0.0018 C.ar    1  UNL1       -0.0501
      3 C           1.2248   -1.0503    0.0054 C.ar    1  UNL1       -0.0571
      4 C           0.0297   -1.7613    0.0054 C.ar    1  UNL1       -0.0400
      5 C          -1.2270   -1.1280    0.0040 C.ar    1  UNL1        0.0357
      6 N          -2.4083   -1.9049    0.0649 N.pl3   1  UNL1       -0.2935
      7 C          -2.4229   -3.2597    0.1022 C.ar    1  UNL1        0.1631
      8 N          -1.8577   -3.9906    1.0468 N.ar    1  UNL1       -0.2200
      9 C          -2.0090   -5.3479    0.7766 C.ar    1  UNL1        0.1349
     10 C          -1.5045   -6.4196    1.6511 C.2     1  UNL1        0.2672
     11 O          -1.6672   -7.6016    1.3274 O.2     1  UNL1       -0.2682
     12 N          -0.9164   -6.0207    2.8418 N.am    1  UNL1       -0.2802
     13 C          -0.2976   -6.9038    3.7635 C.ar    1  UNL1        0.0338
     14 C          -0.2827   -6.5905    5.1250 C.ar    1  UNL1       -0.0398
     15 C           0.4399   -7.3805    6.0390 C.ar    1  UNL1       -0.0479
     16 C           1.1150   -8.5322    5.6165 C.ar    1  UNL1        0.0366
     17 C           1.8210   -9.4539    6.5617 C.2     1  UNL1        0.2415
     18 N           1.8026   -9.1622    7.8989 N.am    1  UNL1       -0.3253
     19 O           2.3888  -10.4698    6.1686 O.2     1  UNL1       -0.2704
     20 C           1.0893   -8.8523    4.2536 C.ar    1  UNL1       -0.0479
     21 C           0.3790   -8.0536    3.3419 C.ar    1  UNL1       -0.0398
     22 C          -2.6801   -5.6117   -0.4061 C.ar    1  UNL1        0.0094
     23 S          -3.1988   -4.1621   -1.1468 S.2     1  UNL1       -0.0598
     24 C          -1.2519    0.2834    0.0051 C.ar    1  UNL1       -0.0290
     25 C          -2.5290    1.0851    0.0007 C.3     1  UNL1       -0.0379
     26 C          -0.0272    0.9993   -0.0036 C.ar    1  UNL1       -0.0542
     27 H           3.3625    0.3986    0.0028 H       1  UNL1        0.0278
     28 H           2.5914    1.7031    0.9095 H       1  UNL1        0.0278
     29 H           2.5938    1.7202   -0.8808 H       1  UNL1        0.0278
     30 H           2.1602   -1.6036    0.0089 H       1  UNL1        0.0621
     31 H           0.1034   -2.8449   -0.0041 H       1  UNL1        0.0636
     32 H          -3.2625   -1.4360   -0.1962 H       1  UNL1        0.1541
     33 H          -0.9799   -5.0339    3.0786 H       1  UNL1        0.1552
     34 H          -0.8752   -5.7655    5.5134 H       1  UNL1        0.0636
     35 H           0.4602   -7.0668    7.0760 H       1  UNL1        0.0626
     36 H           1.3277   -8.3802    8.3190 H       1  UNL1        0.1453
     37 H           2.2416   -9.8277    8.5230 H       1  UNL1        0.1453
     38 H           1.6335   -9.7195    3.8811 H       1  UNL1        0.0626
     39 H           0.4061   -8.3294    2.2907 H       1  UNL1        0.0636
     40 H          -2.9006   -6.5800   -0.8356 H       1  UNL1        0.0717
     41 H          -3.4282    0.4670    0.0322 H       1  UNL1        0.0278
     42 H          -2.5928    1.6908   -0.9098 H       1  UNL1        0.0278
     43 H          -2.5710    1.7411    0.8762 H       1  UNL1        0.0278
     44 H          -0.0409    2.0892   -0.0122 H       1  UNL1        0.0623
@<TRIPOS>BOND
     1     1     2    1
     2     2     3   ar
     3     3     4   ar
     4     4     5   ar
     5     5     6    1
     6     6     7    1
     7     7     8   ar
     8     8     9   ar
     9     9    10    1
    10    10    11    2
    11    10    12   am
    12    12    13    1
    13    13    14   ar
    14    14    15   ar
    15    15    16   ar
    16    16    17    1
    17    17    18   am
    18    17    19    2
    19    16    20   ar
    20    20    21   ar
    21    13    21   ar
    22     9    22   ar
    23    22    23   ar
    24     7    23   ar
    25     5    24   ar
    26    24    25    1
    27    24    26   ar
    28     2    26   ar
    29     1    27    1
    30     1    28    1
    31     1    29    1
    32     3    30    1
    33     4    31    1
    34     6    32    1
    35    12    33    1
    36    14    34    1
    37    15    35    1
    38    18    36    1
    39    18    37    1
    40    20    38    1
    41    21    39    1
    42    22    40    1
    43    25    41    1
    44    25    42    1
    45    25    43    1
    46    26    44    1
