@<TRIPOS>MOLECULE
*****
 42 44 0 0 0
SMALL
GASTEIGER

@<TRIPOS>ATOM
      1 C          -2.7009    1.6363   -0.0282 C.3     1  UNL1       -0.0397
      2 C          -1.6561    0.5624    0.0116 C.ar    1  UNL1       -0.0490
      3 C          -2.0381   -0.7723    0.0093 C.ar    1  UNL1       -0.0570
      4 C          -1.0792   -1.7845   -0.0040 C.ar    1  UNL1       -0.0388
      5 C           0.2944   -1.5216   -0.0101 C.ar    1  UNL1        0.0519
      6 N           1.2577   -2.5891   -0.0415 N.am    1  UNL1       -0.2830
      7 C           0.9405   -3.9481   -0.0741 C.2     1  UNL1        0.2344
      8 O          -0.2025   -4.4147   -0.0626 O.2     1  UNL1       -0.2737
      9 C           2.1016   -4.9497   -0.1184 C.3     1  UNL1        0.0888
     10 N           1.5362   -6.3134   -0.2154 N.am    1  UNL1       -0.3015
     11 C           2.3245   -7.4359   -0.1831 C.2     1  UNL1        0.2608
     12 O           3.5530   -7.3319   -0.1151 O.2     1  UNL1       -0.2686
     13 C           1.6581   -8.7312   -0.1586 C.ar    1  UNL1        0.1030
     14 C           2.0555   -9.8347    0.5826 C.ar    1  UNL1       -0.0239
     15 C           1.1710  -10.9151    0.3367 C.ar    1  UNL1        0.0071
     16 C           1.0767  -12.2270    0.8467 C.ar    1  UNL1       -0.0521
     17 C           0.0436  -13.0678    0.4245 C.ar    1  UNL1       -0.0547
     18 C          -0.8728  -12.6295   -0.5277 C.ar    1  UNL1        0.0178
     19 C          -0.7797  -11.3339   -1.0834 C.ar    1  UNL1        0.2967
     20 N          -1.7595  -10.9381   -2.1015 N.pl3   1  UNL1        0.0818
     21 O          -1.6376   -9.8052   -2.5915 O.2     1  UNL1        0.0415
     22 O          -2.6436  -11.7497   -2.4124 O.co2   1  UNL1       -0.5760
     23 C           0.2476  -10.4784   -0.6133 C.ar    1  UNL1        0.1251
     24 N           0.5791   -9.1593   -0.9140 N.ar    1  UNL1       -0.3453
     25 C           0.6778   -0.1649    0.0111 C.ar    1  UNL1        0.0624
     26 CL          2.3435    0.3038    0.0051 Cl      1  UNL1       -0.0816
     27 C          -0.2886    0.8646    0.0258 C.ar    1  UNL1       -0.0387
     28 H          -3.7112    1.2088   -0.0328 H       1  UNL1        0.0278
     29 H          -2.5916    2.2293   -0.9411 H       1  UNL1        0.0278
     30 H          -2.6181    2.2854    0.8476 H       1  UNL1        0.0278
     31 H          -3.0873   -1.0604    0.0086 H       1  UNL1        0.0621
     32 H          -1.4794   -2.7882   -0.0175 H       1  UNL1        0.0637
     33 H           2.2324   -2.2972   -0.0459 H       1  UNL1        0.1549
     34 H           2.7006   -4.8700    0.7946 H       1  UNL1        0.0558
     35 H           2.7240   -4.7771   -0.9996 H       1  UNL1        0.0558
     36 H           0.5280   -6.3851   -0.1008 H       1  UNL1        0.1496
     37 H           2.8979   -9.8449    1.2635 H       1  UNL1        0.0646
     38 H           1.7931  -12.5793    1.5853 H       1  UNL1        0.0624
     39 H          -0.0437  -14.0674    0.8475 H       1  UNL1        0.0620
     40 H          -1.6674  -13.3134   -0.8278 H       1  UNL1        0.0686
     41 H           0.1040   -8.6124   -1.6232 H       1  UNL1        0.1662
     42 H           0.0194    1.9092    0.0398 H       1  UNL1        0.0635
@<TRIPOS>UNITY_ATOM_ATTR
20 1
charge 1
22 1
charge -1
@<TRIPOS>BOND
     1     1     2    1
     2     2     3   ar
     3     3     4   ar
     4     4     5   ar
     5     5     6    1
     6     6     7   am
     7     7     8    2
     8     7     9    1
     9     9    10    1
    10    10    11   am
    11    11    12    2
    12    11    13    1
    13    13    14   ar
    14    14    15   ar
    15    15    16   ar
    16    16    17   ar
    17    17    18   ar
    18    18    19   ar
    19    19    20    1
    20    20    21    2
    21    20    22    1
    22    19    23   ar
    23    15    23   ar
    24    23    24   ar
    25    13    24   ar
    26     5    25   ar
    27    25    26    1
    28    25    27   ar
    29     2    27   ar
    30     1    28    1
    31     1    29    1
    32     1    30    1
    33     3    31    1
    34     4    32    1
    35     6    33    1
    36     9    34    1
    37     9    35    1
    38    10    36    1
    39    14    37    1
    40    16    38    1
    41    17    39    1
    42    18    40    1
    43    24    41    1
    44    27    42    1
