@<TRIPOS>MOLECULE
*****
 51 53 0 0 0
SMALL
GASTEIGER

@<TRIPOS>ATOM
      1 C           2.9125   -0.0420    0.0046 C.3     1  UNL1       -0.0397
      2 C           1.4144   -0.0599    0.0020 C.ar    1  UNL1       -0.0487
      3 C           0.6788   -1.2336    0.0026 C.ar    1  UNL1       -0.0585
      4 C          -0.7161   -1.1729   -0.0002 C.ar    1  UNL1       -0.0568
      5 C          -1.4052    0.0636   -0.0002 C.ar    1  UNL1       -0.0292
      6 C          -2.9086    0.0206   -0.0011 C.3     1  UNL1       -0.0380
      7 C          -0.6626    1.2637    0.0003 C.ar    1  UNL1        0.0366
      8 N          -1.2974    2.5456   -0.0027 N.am    1  UNL1       -0.2840
      9 C          -0.6225    3.7687   -0.0074 C.2     1  UNL1        0.2343
     10 O           0.6017    3.9212    0.0125 O.2     1  UNL1       -0.2738
     11 C          -1.4945    5.0324   -0.0204 C.3     1  UNL1        0.0861
     12 N          -0.6172    6.2002   -0.1801 N.pl3   1  UNL1       -0.3354
     13 C          -1.0047    7.5075    0.0000 C.ar    1  UNL1        0.0275
     14 C          -0.3864    8.5195   -0.7429 C.ar    1  UNL1       -0.0401
     15 C          -0.7729    9.8644   -0.6102 C.ar    1  UNL1       -0.0479
     16 C          -1.8298   10.2272    0.2354 C.ar    1  UNL1        0.0368
     17 C          -2.3012   11.6594    0.2341 C.2     1  UNL1        0.2444
     18 O          -1.7539   12.4942   -0.4870 O.2     1  UNL1       -0.2702
     19 N          -3.3742   11.9775    1.0326 N.am    1  UNL1       -0.3042
     20 C          -3.9682   13.3091    1.0911 C.3     1  UNL1        0.0700
     21 C          -5.1393   13.2834    2.0232 C.ar    1  UNL1        0.1218
     22 C          -5.8857   12.2543    2.5667 C.ar    1  UNL1       -0.0192
     23 C          -6.8721   12.8397    3.3863 C.ar    1  UNL1       -0.0236
     24 C          -6.6935   14.1978    3.2823 C.ar    1  UNL1        0.0921
     25 O          -5.6435   14.4810    2.4600 O.2     1  UNL1       -0.4662
     26 C          -2.4291    9.2182    0.9996 C.ar    1  UNL1       -0.0479
     27 C          -2.0217    7.8813    0.8740 C.ar    1  UNL1       -0.0401
     28 C           0.7353    1.1603    0.0010 C.ar    1  UNL1       -0.0373
     29 H           3.3246   -1.0537   -0.0040 H       1  UNL1        0.0278
     30 H           3.2788    0.4711    0.9007 H       1  UNL1        0.0278
     31 H           3.2830    0.4869   -0.8807 H       1  UNL1        0.0278
     32 H           1.1840   -2.1955    0.0051 H       1  UNL1        0.0620
     33 H          -1.2645   -2.1138   -0.0026 H       1  UNL1        0.0621
     34 H          -3.2829   -1.0112    0.0007 H       1  UNL1        0.0278
     35 H          -3.3038    0.5061   -0.8980 H       1  UNL1        0.0278
     36 H          -3.3045    0.5089    0.8940 H       1  UNL1        0.0278
     37 H          -2.3099    2.5514   -0.0074 H       1  UNL1        0.1549
     38 H          -2.0657    5.0596    0.9113 H       1  UNL1        0.0557
     39 H          -2.1665    4.9964   -0.8818 H       1  UNL1        0.0557
     40 H           0.3818    5.9892   -0.0828 H       1  UNL1        0.1466
     41 H           0.3744    8.2604   -1.4788 H       1  UNL1        0.0636
     42 H          -0.2498   10.6235   -1.1894 H       1  UNL1        0.0626
     43 H          -3.7845   11.2689    1.6114 H       1  UNL1        0.1495
     44 H          -4.2890   13.5936    0.0828 H       1  UNL1        0.0543
     45 H          -3.2008   14.0158    1.4242 H       1  UNL1        0.0543
     46 H          -5.7335   11.2011    2.3921 H       1  UNL1        0.0652
     47 H          -7.6231   12.3267    3.9699 H       1  UNL1        0.0649
     48 H          -7.2095   15.0462    3.7127 H       1  UNL1        0.1029
     49 H          -3.2198    9.4183    1.7104 H       1  UNL1        0.0626
     50 H          -2.5058    7.1360    1.4965 H       1  UNL1        0.0636
     51 H           1.3740    2.0329    0.0005 H       1  UNL1        0.0639
@<TRIPOS>BOND
     1     1     2    1
     2     2     3   ar
     3     3     4   ar
     4     4     5   ar
     5     5     6    1
     6     5     7   ar
     7     7     8    1
     8     8     9   am
     9     9    10    2
    10     9    11    1
    11    11    12    1
    12    12    13    1
    13    13    14   ar
    14    14    15   ar
    15    15    16   ar
    16    16    17    1
    17    17    18    2
    18    17    19   am
    19    19    20    1
    20    20    21    1
    21    21    22   ar
    22    22    23   ar
    23    23    24   ar
    24    24    25   ar
    25    21    25   ar
    26    16    26   ar
    27    26    27   ar
    28    13    27   ar
    29     7    28   ar
    30     2    28   ar
    31     1    29    1
    32     1    30    1
    33     1    31    1
    34     3    32    1
    35     4    33    1
    36     6    34    1
    37     6    35    1
    38     6    36    1
    39     8    37    1
    40    11    38    1
    41    11    39    1
    42    12    40    1
    43    14    41    1
    44    15    42    1
    45    19    43    1
    46    20    44    1
    47    20    45    1
    48    22    46    1
    49    23    47    1
    50    24    48    1
    51    26    49    1
    52    27    50    1
    53    28    51    1
