REMARK  4 active torsions:
REMARK  status: ('A' for Active; 'I' for Inactive)
REMARK    1  A    between atoms: C_2  and  C_4 
REMARK    2  A    between atoms: C_6  and  C_7 
REMARK       I    between atoms: C_7  and  N_9 
REMARK    3  A    between atoms: N_9  and  C_10 
REMARK    4  A    between atoms: C_13  and  N_14 
REMARK       I    between atoms: N_14  and  C_15 
REMARK       I    between atoms: C_15  and  N_16 
ROOT
ATOM      1  C   UNL d   1       1.780   6.801   0.196  0.00  0.00     0.035 C 
ATOM      2  C   UNL d   1       0.574   7.431  -0.133  0.00  0.00     0.032 C 
ATOM      3  C   UNL d   1       0.526   8.845  -0.265  0.00  0.00     0.032 C 
ATOM      4  C   UNL d   1       1.691   9.615  -0.099  0.00  0.00     0.036 C 
ATOM      5  C   UNL d   1       2.877   8.923   0.061  0.00  0.00     0.032 C 
ATOM      6  C   UNL d   1       2.923   7.564   0.282  0.00  0.00     0.032 C 
ENDROOT
BRANCH   1   7
ATOM      7  N   UNL d   1       1.923   5.410   0.332  0.00  0.00    -0.321 N 
ATOM      8  C   UNL d   1       2.834   4.833   1.241  0.00  0.00     0.282 C 
ATOM      9  O   UNL d   1       3.432   5.474   2.094  0.00  0.00    -0.265 OA
ATOM     10  H   UNL d   1       1.371   4.833  -0.284  0.00  0.00     0.169 HD
BRANCH   8  11
ATOM     11  C   UNL d   1       2.975   3.405   1.117  0.00  0.00     0.171 A 
ATOM     12  C   UNL d   1       2.453   2.511   0.228  0.00  0.00     0.075 A 
ATOM     13  C   UNL d   1       2.886   1.250   0.674  0.00  0.00     0.068 A 
ATOM     14  N   UNL d   1       3.681   1.353   1.744  0.00  0.00    -0.132 NA
ATOM     15  O   UNL d   1       3.743   2.721   2.020  0.00  0.00    -0.207 OA
BRANCH  13  16
ATOM     16  C   UNL d   1       2.470  -0.050   0.064  0.00  0.00     0.032 C 
ATOM     17  C   UNL d   1       0.935  -0.126   0.062  0.00  0.00     0.016 C 
ATOM     18  C   UNL d   1       2.986  -0.141  -1.376  0.00  0.00     0.016 C 
ENDBRANCH  13  16
ENDBRANCH   8  11
ENDBRANCH   1   7
BRANCH   4  19
ATOM     19  N   UNL d   1       1.650  11.029  -0.075  0.00  0.00    -0.309 N 
ATOM     20  C   UNL d   1       2.611  11.969   0.178  0.00  0.00     0.318 C 
ATOM     21  N   UNL d   1       3.898  11.607   0.380  0.00  0.00    -0.352 N 
ATOM     22  O   UNL d   1       2.326  13.165   0.194  0.00  0.00    -0.247 OA
ATOM     23  H   UNL d   1       4.114  10.787   0.920  0.00  0.00     0.160 HD
ATOM     24  H   UNL d   1       4.528  12.365   0.606  0.00  0.00     0.160 HD
ATOM     25  H   UNL d   1       0.744  11.467  -0.198  0.00  0.00     0.170 HD
ENDBRANCH   4  19
TORSDOF 4
