@<TRIPOS>MOLECULE
*****
 64 68 0 0 0
SMALL
GASTEIGER

@<TRIPOS>ATOM
      1 C           0.9217   -0.0687   -0.0173 C.3     1  UNL1       -0.0242
      2 C           2.4225   -0.0188   -0.1004 C.2     1  UNL1        0.0400
      3 N           3.1356    1.0051    0.3491 N.2     1  UNL1       -0.1888
      4 N           2.5957    2.1393    0.9531 N.pl3   1  UNL1       -0.2055
      5 C           3.3238    3.2339    1.3718 C.ar    1  UNL1        0.2317
      6 N           4.3921    3.8383    0.8722 N.ar    1  UNL1       -0.1865
      7 C           4.6253    4.8891    1.7302 C.ar    1  UNL1        0.2105
      8 S           5.9106    6.0657    1.6238 S.3     1  UNL1       -0.0750
      9 C           6.7787    5.7187    0.0639 C.3     1  UNL1        0.0776
     10 C           7.9790    6.6845   -0.1025 C.2     1  UNL1        0.2233
     11 O           8.2632    7.5645    0.6876 O.2     1  UNL1       -0.2749
     12 N           8.7565    6.4851   -1.2496 N.am    1  UNL1       -0.3143
     13 C           9.8759    7.3924   -1.4914 C.3     1  UNL1        0.0156
     14 C          10.5967    7.2017   -2.8351 C.3     1  UNL1       -0.0107
     15 C          11.7426    8.1777   -3.0592 C.ar    1  UNL1       -0.0276
     16 C          13.0375    7.6733   -3.3022 C.ar    1  UNL1       -0.0571
     17 C          14.1203    8.5342   -3.5215 C.ar    1  UNL1       -0.0614
     18 C          13.9340    9.9124   -3.4975 C.ar    1  UNL1       -0.0604
     19 C          12.6641   10.4301   -3.2682 C.ar    1  UNL1       -0.0431
     20 C          11.5739    9.5764   -3.0730 C.ar    1  UNL1        0.0442
     21 CL         10.0366   10.3517   -2.9197 Cl      1  UNL1       -0.0833
     22 N           3.7643    4.9703    2.7510 N.ar    1  UNL1       -0.1443
     23 N           2.9547    3.9284    2.5056 N.ar    1  UNL1       -0.2446
     24 C           3.2346   -1.3633   -0.6359 C.3     1  UNL1        0.0110
     25 C           2.7419   -2.5949   -1.6198 C.3     1  UNL1       -0.0393
     26 C           3.9272   -3.6294   -1.8296 C.3     1  UNL1       -0.0397
     27 C           5.0486   -2.8411   -2.5241 C.3     1  UNL1       -0.0473
     28 C           5.5795   -1.7731   -1.5820 C.3     1  UNL1       -0.0397
     29 C           6.0037   -2.4145   -0.2539 C.3     1  UNL1       -0.0473
     30 C           4.8067   -3.0740    0.4468 C.3     1  UNL1       -0.0397
     31 C           4.2607   -4.1894   -0.4365 C.3     1  UNL1       -0.0473
     32 C           3.6923   -2.0474    0.6830 C.3     1  UNL1       -0.0393
     33 C           4.4772   -0.7518   -1.3340 C.3     1  UNL1       -0.0393
     34 H           0.4932    0.8526    0.3845 H       1  UNL1        0.0290
     35 H           0.6201   -0.8828    0.6436 H       1  UNL1        0.0290
     36 H           0.5171   -0.2056   -1.0194 H       1  UNL1        0.0290
     37 H           1.5925    2.1904    1.0976 H       1  UNL1        0.1774
     38 H           6.0944    5.8604   -0.7774 H       1  UNL1        0.0475
     39 H           7.1577    4.6937    0.0693 H       1  UNL1        0.0475
     40 H           8.4687    5.8352   -1.9667 H       1  UNL1        0.1487
     41 H          10.5896    7.2811   -0.6664 H       1  UNL1        0.0465
     42 H           9.4645    8.3973   -1.4004 H       1  UNL1        0.0465
     43 H           9.8960    7.2909   -3.6742 H       1  UNL1        0.0329
     44 H          10.9766    6.1713   -2.8769 H       1  UNL1        0.0329
     45 H          13.2216    6.6001   -3.3315 H       1  UNL1        0.0621
     46 H          15.1126    8.1303   -3.7114 H       1  UNL1        0.0618
     47 H          14.7686   10.5869   -3.6685 H       1  UNL1        0.0618
     48 H          12.5176   11.5074   -3.2556 H       1  UNL1        0.0632
     49 H           2.2204    3.7269    3.1737 H       1  UNL1        0.1919
     50 H           2.4436   -2.2669   -2.6268 H       1  UNL1        0.0277
     51 H           1.8932   -3.1802   -1.2339 H       1  UNL1        0.0277
     52 H           3.6924   -4.4898   -2.4749 H       1  UNL1        0.0301
     53 H           4.6289   -2.3586   -3.4199 H       1  UNL1        0.0271
     54 H           5.8662   -3.4752   -2.8832 H       1  UNL1        0.0271
     55 H           6.4302   -1.2607   -2.0432 H       1  UNL1        0.0301
     56 H           6.4407   -1.6543    0.4026 H       1  UNL1        0.0271
     57 H           6.7793   -3.1654   -0.4456 H       1  UNL1        0.0271
     58 H           5.1206   -3.4907    1.4104 H       1  UNL1        0.0301
     59 H           3.3370   -4.5885    0.0087 H       1  UNL1        0.0271
     60 H           4.9619   -5.0317   -0.4688 H       1  UNL1        0.0271
     61 H           4.0555   -1.2985    1.3950 H       1  UNL1        0.0277
     62 H           2.8293   -2.5291    1.1653 H       1  UNL1        0.0277
     63 H           4.1568   -0.2756   -2.2705 H       1  UNL1        0.0277
     64 H           4.9204    0.0404   -0.7240 H       1  UNL1        0.0277
@<TRIPOS>BOND
     1     1     2    1
     2     2     3    2
     3     3     4    1
     4     4     5    1
     5     5     6   ar
     6     6     7   ar
     7     7     8    1
     8     8     9    1
     9     9    10    1
    10    10    11    2
    11    10    12   am
    12    12    13    1
    13    13    14    1
    14    14    15    1
    15    15    16   ar
    16    16    17   ar
    17    17    18   ar
    18    18    19   ar
    19    19    20   ar
    20    15    20   ar
    21    20    21    1
    22     7    22   ar
    23    22    23   ar
    24     5    23   ar
    25     2    24    1
    26    24    25    1
    27    25    26    1
    28    26    27    1
    29    27    28    1
    30    28    29    1
    31    29    30    1
    32    30    31    1
    33    26    31    1
    34    30    32    1
    35    24    32    1
    36    28    33    1
    37    24    33    1
    38     1    34    1
    39     1    35    1
    40     1    36    1
    41     4    37    1
    42     9    38    1
    43     9    39    1
    44    12    40    1
    45    13    41    1
    46    13    42    1
    47    14    43    1
    48    14    44    1
    49    16    45    1
    50    17    46    1
    51    18    47    1
    52    19    48    1
    53    23    49    1
    54    25    50    1
    55    25    51    1
    56    26    52    1
    57    27    53    1
    58    27    54    1
    59    28    55    1
    60    29    56    1
    61    29    57    1
    62    30    58    1
    63    31    59    1
    64    31    60    1
    65    32    61    1
    66    32    62    1
    67    33    63    1
    68    33    64    1
