@<TRIPOS>MOLECULE
*****
 49 52 0 0 0
SMALL
GASTEIGER

@<TRIPOS>ATOM
      1 O           1.0085   -0.0049   -0.0948 O.2     1  UNL1       -0.2746
      2 C           2.2367   -0.0886    0.0579 C.2     1  UNL1        0.2275
      3 C           2.9000   -0.9915    1.1177 C.3     1  UNL1        0.0770
      4 S           1.6731   -1.8319    2.1614 S.3     1  UNL1       -0.0876
      5 C           2.6314   -2.9304    3.1360 C.ar    1  UNL1        0.1604
      6 N           3.4992   -2.5309    4.0380 N.ar    1  UNL1       -0.1332
      7 N           3.9485   -3.5879    4.8227 N.ar    1  UNL1       -0.1252
      8 C           3.4309   -4.7528    4.4787 C.ar    1  UNL1        0.1827
      9 N           3.7234   -5.9052    5.1254 N.pl3   1  UNL1       -0.3149
     10 C           3.2062   -7.2213    4.7837 C.3     1  UNL1        0.0691
     11 C           3.6675   -8.3131    5.7022 C.ar    1  UNL1        0.1218
     12 C           4.3996   -8.3064    6.8726 C.ar    1  UNL1       -0.0192
     13 C           4.4594   -9.6412    7.3271 C.ar    1  UNL1       -0.0236
     14 C           3.7819  -10.3918    6.3962 C.ar    1  UNL1        0.0921
     15 O           3.2988   -9.5967    5.4013 O.2     1  UNL1       -0.4662
     16 S           2.3610   -4.6245    3.1318 S.2     1  UNL1       -0.0245
     17 N           3.0252    0.7394   -0.7170 N.am    1  UNL1       -0.2848
     18 C           4.4224    0.7379   -0.8627 C.ar    1  UNL1        0.0335
     19 C           5.1166    1.9341   -1.0502 C.ar    1  UNL1       -0.0384
     20 C           6.5203    1.9185   -1.2020 C.ar    1  UNL1       -0.0328
     21 C           7.2583    0.7238   -1.1386 C.ar    1  UNL1        0.0863
     22 N           8.6796    0.7816   -1.1962 N.2     1  UNL1       -0.1493
     23 N           9.2154   -0.3485   -1.1187 N.2     1  UNL1       -0.1493
     24 C          10.6268   -0.3176   -1.0321 C.ar    1  UNL1        0.0862
     25 C          11.3605   -1.3193   -1.6865 C.ar    1  UNL1       -0.0345
     26 C          12.7475   -1.4313   -1.5228 C.ar    1  UNL1       -0.0597
     27 C          13.4327   -0.5045   -0.7425 C.ar    1  UNL1       -0.0616
     28 C          12.7246    0.5032   -0.0911 C.ar    1  UNL1       -0.0597
     29 C          11.3313    0.5848   -0.2222 C.ar    1  UNL1       -0.0345
     30 C           6.5288   -0.4627   -1.0035 C.ar    1  UNL1       -0.0328
     31 C           5.1359   -0.4539   -0.9011 C.ar    1  UNL1       -0.0384
     32 H           3.5623   -0.3771    1.7360 H       1  UNL1        0.0475
     33 H           3.4635   -1.7789    0.6226 H       1  UNL1        0.0475
     34 H           4.3637   -5.8491    5.9073 H       1  UNL1        0.1484
     35 H           3.5025   -7.4780    3.7588 H       1  UNL1        0.0542
     36 H           2.1093   -7.2061    4.8190 H       1  UNL1        0.0542
     37 H           4.8180   -7.4350    7.3533 H       1  UNL1        0.0652
     38 H           4.9327  -10.0033    8.2287 H       1  UNL1        0.0649
     39 H           3.5603  -11.4476    6.3133 H       1  UNL1        0.1029
     40 H           2.4956    1.4348   -1.2354 H       1  UNL1        0.1548
     41 H           4.6001    2.8926   -1.0263 H       1  UNL1        0.0637
     42 H           7.0465    2.8576   -1.3620 H       1  UNL1        0.0640
     43 H          10.8451   -2.0329   -2.3246 H       1  UNL1        0.0639
     44 H          13.2898   -2.2480   -1.9938 H       1  UNL1        0.0618
     45 H          14.5135   -0.5710   -0.6375 H       1  UNL1        0.0618
     46 H          13.2544    1.2151    0.5370 H       1  UNL1        0.0618
     47 H          10.7928    1.3511    0.3281 H       1  UNL1        0.0639
     48 H           7.0301   -1.4262   -0.9898 H       1  UNL1        0.0640
     49 H           4.6298   -1.4109   -0.9190 H       1  UNL1        0.0637
@<TRIPOS>BOND
     1     1     2    2
     2     2     3    1
     3     3     4    1
     4     4     5    1
     5     5     6   ar
     6     6     7   ar
     7     7     8   ar
     8     8     9    1
     9     9    10    1
    10    10    11    1
    11    11    12   ar
    12    12    13   ar
    13    13    14   ar
    14    14    15   ar
    15    11    15   ar
    16     8    16   ar
    17     5    16   ar
    18     2    17   am
    19    17    18    1
    20    18    19   ar
    21    19    20   ar
    22    20    21   ar
    23    21    22    1
    24    22    23    2
    25    23    24    1
    26    24    25   ar
    27    25    26   ar
    28    26    27   ar
    29    27    28   ar
    30    28    29   ar
    31    24    29   ar
    32    21    30   ar
    33    30    31   ar
    34    18    31   ar
    35     3    32    1
    36     3    33    1
    37     9    34    1
    38    10    35    1
    39    10    36    1
    40    12    37    1
    41    13    38    1
    42    14    39    1
    43    17    40    1
    44    19    41    1
    45    20    42    1
    46    25    43    1
    47    26    44    1
    48    27    45    1
    49    28    46    1
    50    29    47    1
    51    30    48    1
    52    31    49    1
