REMARK  9 active torsions:
REMARK  status: ('A' for Active; 'I' for Inactive)
REMARK    1  A    between atoms: C_2  and  C_3 
REMARK       I    between atoms: C_2  and  N_21 
REMARK    2  A    between atoms: C_3  and  C_4 
REMARK    3  A    between atoms: C_4  and  N_5 
REMARK       I    between atoms: N_5  and  C_6 
REMARK       I    between atoms: C_6  and  N_8 
REMARK    4  A    between atoms: N_8  and  C_9 
REMARK    5  A    between atoms: C_9  and  C_10 
REMARK    6  A    between atoms: C_10  and  N_11 
REMARK    7  A    between atoms: N_11  and  C_12 
REMARK    8  A    between atoms: C_15  and  N_16 
REMARK    9  A    between atoms: N_21  and  C_22 
ROOT
ATOM      1  N   UNL d   1       2.788   2.580   2.821  0.00  0.00    -0.343 N 
ATOM      2  C   UNL d   1       2.053   3.332   3.708  0.00  0.00     0.316 C 
ATOM      3  O   UNL d   1       0.823   3.336   3.719  0.00  0.00    -0.247 OA
ATOM      4  N   UNL d   1       2.799   4.090   4.579  0.00  0.00    -0.342 N 
ATOM      5  H   UNL d   1       3.795   2.586   2.869  0.00  0.00     0.164 HD
ATOM      6  H   UNL d   1       3.806   4.045   4.547  0.00  0.00     0.164 HD
ENDROOT
BRANCH   1   7
ATOM      7  C   UNL d   1       2.107   1.726   1.833  0.00  0.00     0.133 C 
BRANCH   7   8
ATOM      8  C   UNL d   1       3.057   0.934   0.936  0.00  0.00     0.122 C 
BRANCH   8   9
ATOM      9  C   UNL d   1       2.342   0.035  -0.070  0.00  0.00     0.219 C 
ATOM     10  O   UNL d   1       1.117  -0.026  -0.156  0.00  0.00    -0.274 OA
ATOM     11  N   UNL d   1       3.105  -0.742  -0.910  0.00  0.00    -0.356 N 
ATOM     12  H   UNL d   1       2.553  -1.296  -1.560  0.00  0.00     0.162 HD
BRANCH  11  13
ATOM     13  C   UNL d   1       4.554  -0.828  -0.970  0.00  0.00     0.084 C 
ATOM     14  C   UNL d   1       5.158  -1.421   0.298  0.00  0.00     0.025 C 
ATOM     15  C   UNL d   1       6.570  -1.799  -0.092  0.00  0.00     0.002 C 
ATOM     16  C   UNL d   1       6.500  -2.157  -1.570  0.00  0.00     0.002 C 
ATOM     17  C   UNL d   1       5.087  -1.791  -2.037  0.00  0.00     0.025 C 
ENDBRANCH  11  13
ENDBRANCH   8   9
ENDBRANCH   7   8
ENDBRANCH   1   7
BRANCH   4  18
ATOM     18  C   UNL d   1       2.138   4.938   5.584  0.00  0.00     0.144 C 
BRANCH  18  19
ATOM     19  C   UNL d   1       3.105   5.722   6.497  0.00  0.00     0.139 C 
BRANCH  19  20
ATOM     20  N   UNL d   1       2.429   6.430   7.592  0.00  0.00    -0.388 N 
ATOM     21  H   UNL d   1       1.430   6.597   7.479  0.00  0.00     0.159 HD
BRANCH  20  22
ATOM     22  C   UNL d   1       3.073   7.413   8.343  0.00  0.00     0.028 A 
ATOM     23  C   UNL d   1       2.613   7.686   9.643  0.00  0.00     0.031 A 
ATOM     24  C   UNL d   1       3.183   8.699  10.431  0.00  0.00     0.038 A 
ATOM     25  C   UNL d   1       4.279   9.414   9.942  0.00  0.00     0.103 A 
ATOM     26  C   UNL d   1       4.762   9.157   8.657  0.00  0.00     0.038 A 
ATOM     27  C   UNL d   1       4.161   8.161   7.875  0.00  0.00     0.031 A 
BRANCH  25  28
ATOM     28  N   UNL d   1       4.963  10.395  10.795  0.00  0.00    -0.116 N 
ATOM     29  O   UNL d   1       4.523  10.573  11.940  0.00  0.00    -0.532 OA
ATOM     30  O   UNL d   1       5.956  10.972  10.327  0.00  0.00    -0.532 OA
ENDBRANCH  25  28
ENDBRANCH  20  22
ENDBRANCH  19  20
ENDBRANCH  18  19
ENDBRANCH   4  18
TORSDOF 9
