@<TRIPOS>MOLECULE
*****
 41 43 0 0 0
SMALL
GASTEIGER

@<TRIPOS>ATOM
      1 C           2.5144   -1.1645    0.0322 C.3     1  UNL1       -0.0396
      2 C           1.2307   -0.3906    0.0291 C.ar    1  UNL1       -0.0486
      3 C           1.2637    0.9883    0.1379 C.ar    1  UNL1       -0.0570
      4 C           0.0756    1.7010    0.2821 C.ar    1  UNL1       -0.0384
      5 C          -1.1871    1.0951    0.2250 C.ar    1  UNL1        0.0545
      6 N          -2.3803    1.8879    0.2439 N.am    1  UNL1       -0.2798
      7 C          -2.4172    3.2614    0.4796 C.2     1  UNL1        0.2535
      8 O          -1.5145    3.9545    0.9554 O.2     1  UNL1       -0.2697
      9 C          -3.6735    3.9737    0.1972 C.ar    1  UNL1        0.0988
     10 C          -4.7689    3.6300    0.9985 C.ar    1  UNL1       -0.0430
     11 C          -5.9140    4.4168    0.9792 C.ar    1  UNL1       -0.0426
     12 C          -5.9336    5.5168    0.1435 C.ar    1  UNL1        0.0314
     13 N          -4.9069    5.8555   -0.6685 N.ar    1  UNL1       -0.2204
     14 C          -3.7697    5.0981   -0.6363 C.ar    1  UNL1        0.2327
     15 O          -2.7974    5.6269   -1.4615 O.3     1  UNL1       -0.4373
     16 C          -1.6662    4.9189   -1.7817 C.ar    1  UNL1        0.1304
     17 C          -0.4331    5.5205   -1.5038 C.ar    1  UNL1       -0.0193
     18 C           0.7544    4.8199   -1.7240 C.ar    1  UNL1       -0.0583
     19 C           0.7049    3.5075   -2.1882 C.ar    1  UNL1       -0.0615
     20 C          -0.5255    2.9137   -2.4818 C.ar    1  UNL1       -0.0583
     21 C          -1.7108    3.6330   -2.3224 C.ar    1  UNL1       -0.0193
     22 C          -1.2391   -0.3080    0.0920 C.ar    1  UNL1        0.0463
     23 N          -2.4395   -1.0044   -0.1393 N.pl3   1  UNL1       -0.3565
     24 C          -0.0213   -1.0266   -0.0122 C.ar    1  UNL1       -0.0363
     25 H           3.3855   -0.4971    0.0374 H       1  UNL1        0.0278
     26 H           2.5940   -1.8102   -0.8460 H       1  UNL1        0.0278
     27 H           2.5645   -1.7690    0.9430 H       1  UNL1        0.0278
     28 H           2.2014    1.5392    0.1069 H       1  UNL1        0.0621
     29 H           0.1825    2.7770    0.3476 H       1  UNL1        0.0637
     30 H          -3.2350    1.4116   -0.0079 H       1  UNL1        0.1552
     31 H          -4.6961    2.7997    1.6943 H       1  UNL1        0.0627
     32 H          -6.7526    4.1984    1.6312 H       1  UNL1        0.0633
     33 H          -6.7948    6.1815    0.1160 H       1  UNL1        0.0831
     34 H          -0.3982    6.4957   -1.0246 H       1  UNL1        0.0654
     35 H           1.7101    5.2637   -1.4588 H       1  UNL1        0.0619
     36 H           1.6109    2.9053   -2.2020 H       1  UNL1        0.0618
     37 H          -0.5702    1.8458   -2.6917 H       1  UNL1        0.0619
     38 H          -2.6595    3.1265   -2.4700 H       1  UNL1        0.0654
     39 H          -3.2976   -0.5574    0.1458 H       1  UNL1        0.1424
     40 H          -2.4061   -1.9928    0.0990 H       1  UNL1        0.1424
     41 H          -0.0431   -2.1096   -0.1127 H       1  UNL1        0.0639
@<TRIPOS>BOND
     1     1     2    1
     2     2     3   ar
     3     3     4   ar
     4     4     5   ar
     5     5     6    1
     6     6     7   am
     7     7     8    2
     8     7     9    1
     9     9    10   ar
    10    10    11   ar
    11    11    12   ar
    12    12    13   ar
    13    13    14   ar
    14     9    14   ar
    15    14    15    1
    16    15    16    1
    17    16    17   ar
    18    17    18   ar
    19    18    19   ar
    20    19    20   ar
    21    20    21   ar
    22    16    21   ar
    23     5    22   ar
    24    22    23    1
    25    22    24   ar
    26     2    24   ar
    27     1    25    1
    28     1    26    1
    29     1    27    1
    30     3    28    1
    31     4    29    1
    32     6    30    1
    33    10    31    1
    34    11    32    1
    35    12    33    1
    36    17    34    1
    37    18    35    1
    38    19    36    1
    39    20    37    1
    40    21    38    1
    41    23    39    1
    42    23    40    1
    43    24    41    1
