@<TRIPOS>MOLECULE
*****
 68 70 0 0 0
SMALL
GASTEIGER

@<TRIPOS>ATOM
      1 C           1.4752    7.0775    4.9601 C.3     1  UNL1       -0.0362
      2 C           1.9103    8.4831    4.6048 C.ar    1  UNL1       -0.0088
      3 C           1.7148    9.4306    5.6112 C.ar    1  UNL1       -0.0554
      4 C           2.0415   10.7691    5.4154 C.ar    1  UNL1       -0.0613
      5 C           2.5717   11.1971    4.2038 C.ar    1  UNL1       -0.0583
      6 C           2.7928   10.2784    3.1887 C.ar    1  UNL1       -0.0197
      7 C           2.4776    8.9291    3.3822 C.ar    1  UNL1        0.1235
      8 O           2.8106    8.1809    2.2809 O.3     1  UNL1       -0.4889
      9 C           2.4850    6.8396    2.4642 C.3     1  UNL1        0.1204
     10 C           2.9793    5.9576    1.3996 C.3     1  UNL1        0.1286
     11 O           2.4777    4.6659    1.7781 O.3     1  UNL1       -0.3831
     12 C           4.4726    5.9412    1.2679 C.3     1  UNL1       -0.0013
     13 N           4.9287    5.2090   -0.0032 N.4     1  UNL1        0.2443
     14 C           4.3254    3.7840   -0.1734 C.3     1  UNL1        0.0278
     15 C           2.8141    3.7213   -0.4540 C.ar    1  UNL1        0.1564
     16 N           2.1788    4.7753   -0.8821 N.ar    1  UNL1       -0.2211
     17 C           0.8458    4.7749   -0.5518 C.ar    1  UNL1        0.1166
     18 S          -0.0284    6.2251   -0.3231 S.2     1  UNL1       -0.0617
     19 C          -1.4902    5.3952    0.0368 C.ar    1  UNL1        0.1018
     20 C          -2.6794    6.2302    0.1973 C.2     1  UNL1        0.3465
     21 O          -2.6826    7.4431    0.3103 O.2     1  UNL1       -0.2444
     22 O          -3.8090    5.4636    0.1528 O.3     1  UNL1       -0.4581
     23 C          -5.0734    6.1510    0.1808 C.3     1  UNL1        0.0978
     24 C          -5.2505    6.9921   -1.0791 C.3     1  UNL1       -0.0280
     25 C          -6.1826    5.0986    0.2324 C.3     1  UNL1       -0.0280
     26 C          -1.2868    4.0167    0.0474 C.ar    1  UNL1       -0.0149
     27 C          -2.3261    2.9535    0.1612 C.3     1  UNL1       -0.0376
     28 C           0.1076    3.6958   -0.1319 C.ar    1  UNL1        0.0756
     29 C           0.8147    2.4325   -0.0101 C.ar    1  UNL1        0.2602
     30 O           0.2885    1.3435    0.1457 O.2     1  UNL1       -0.2671
     31 N           2.1897    2.5560   -0.0652 N.ar    1  UNL1       -0.3061
     32 C           6.4558    5.2351   -0.0424 C.3     1  UNL1       -0.0261
     33 C           6.9736    4.5227   -1.2821 C.3     1  UNL1       -0.0218
     34 C           6.9662    6.6810   -0.0457 C.3     1  UNL1       -0.0218
     35 H           1.0337    6.9953    5.9528 H       1  UNL1        0.0279
     36 H           2.3276    6.3923    4.9991 H       1  UNL1        0.0279
     37 H           0.7021    6.7211    4.2722 H       1  UNL1        0.0279
     38 H           1.2921    9.1213    6.5640 H       1  UNL1        0.0621
     39 H           1.8679   11.4790    6.2171 H       1  UNL1        0.0618
     40 H           2.8103   12.2447    4.0500 H       1  UNL1        0.0619
     41 H           3.2083   10.6132    2.2396 H       1  UNL1        0.0654
     42 H           1.3974    6.7118    2.4714 H       1  UNL1        0.0725
     43 H           3.0084    6.4384    3.3244 H       1  UNL1        0.0725
     44 H           2.5892    6.3931    0.4810 H       1  UNL1        0.0681
     45 H           3.0387    4.2326    2.4404 H       1  UNL1        0.2102
     46 H           4.9419    5.4351    2.1176 H       1  UNL1        0.0841
     47 H           4.8095    6.9751    1.1939 H       1  UNL1        0.0841
     48 H           4.5487    5.7450   -0.8015 H       1  UNL1        0.2041
     49 H           4.7917    3.3049   -1.0288 H       1  UNL1        0.0897
     50 H           4.5906    3.2444    0.7450 H       1  UNL1        0.0897
     51 H          -5.1257    6.7643    1.0875 H       1  UNL1        0.0728
     52 H          -5.1725    6.3638   -1.9732 H       1  UNL1        0.0265
     53 H          -4.4763    7.7568   -1.1746 H       1  UNL1        0.0265
     54 H          -6.2181    7.4996   -1.0763 H       1  UNL1        0.0265
     55 H          -6.1431    4.4395   -0.6434 H       1  UNL1        0.0265
     56 H          -7.1689    5.5742    0.2585 H       1  UNL1        0.0265
     57 H          -6.0829    4.4559    1.1131 H       1  UNL1        0.0265
     58 H          -3.3441    3.3320    0.1785 H       1  UNL1        0.0278
     59 H          -2.1827    2.3447    1.0561 H       1  UNL1        0.0278
     60 H          -2.2537    2.3193   -0.7289 H       1  UNL1        0.0278
     61 H           2.6928    1.6918    0.0772 H       1  UNL1        0.1702
     62 H           6.7964    4.7180    0.8635 H       1  UNL1        0.0846
     63 H           6.5810    4.9882   -2.1915 H       1  UNL1        0.0284
     64 H           6.7158    3.4617   -1.2908 H       1  UNL1        0.0284
     65 H           8.0657    4.5605   -1.3095 H       1  UNL1        0.0284
     66 H           6.5742    7.2341   -0.9059 H       1  UNL1        0.0284
     67 H           8.0589    6.6990   -0.0866 H       1  UNL1        0.0284
     68 H           6.7050    7.2335    0.8613 H       1  UNL1        0.0284
@<TRIPOS>UNITY_ATOM_ATTR
13 1
charge 1
@<TRIPOS>BOND
     1     1     2    1
     2     2     3   ar
     3     3     4   ar
     4     4     5   ar
     5     5     6   ar
     6     6     7   ar
     7     2     7   ar
     8     7     8    1
     9     8     9    1
    10    10    12    1
    11    14    15    1
    12    15    16   ar
    13    16    17   ar
    14    17    18   ar
    15    18    19   ar
    16    19    20    1
    17    20    21    2
    18    20    22    1
    19    22    23    1
    20    23    24    1
    21    23    25    1
    22    19    26   ar
    23    26    27    1
    24    26    28   ar
    25    17    28   ar
    26    28    29   ar
    27    29    30    2
    28    29    31   ar
    29    15    31   ar
    30    13    32    1
    31    32    33    1
    32    32    34    1
    33    13    14    1
    34    13    12    1
    35    10    11    1
    36    10     9    1
    37     1    35    1
    38     1    36    1
    39     1    37    1
    40     3    38    1
    41     4    39    1
    42     5    40    1
    43     6    41    1
    44     9    42    1
    45     9    43    1
    46    10    44    1
    47    11    45    1
    48    12    46    1
    49    12    47    1
    50    13    48    1
    51    14    49    1
    52    14    50    1
    53    23    51    1
    54    24    52    1
    55    24    53    1
    56    24    54    1
    57    25    55    1
    58    25    56    1
    59    25    57    1
    60    27    58    1
    61    27    59    1
    62    27    60    1
    63    31    61    1
    64    32    62    1
    65    33    63    1
    66    33    64    1
    67    33    65    1
    68    34    66    1
    69    34    67    1
    70    34    68    1
