@<TRIPOS>MOLECULE
*****
 40 41 0 0 0
SMALL
GASTEIGER

@<TRIPOS>ATOM
      1 C           2.4901    1.1846   -0.0007 C.3     1  UNL1       -0.0396
      2 C           1.2483    0.3398    0.0046 C.ar    1  UNL1       -0.0470
      3 C           1.3012   -1.0561    0.0189 C.ar    1  UNL1       -0.0579
      4 C           0.1219   -1.8227    0.0009 C.ar    1  UNL1       -0.0458
      5 C          -1.1431   -1.2136   -0.0207 C.ar    1  UNL1        0.0795
      6 C          -2.4163   -2.0222   -0.0631 C.2     1  UNL1        0.2637
      7 O          -3.5022   -1.4311   -0.0746 O.2     1  UNL1       -0.2685
      8 N          -2.3297   -3.4111   -0.0943 N.am    1  UNL1       -0.2303
      9 N          -3.5062   -4.2000   -0.1766 N.am    1  UNL1       -0.2339
     10 C          -3.3952   -5.5864   -0.1260 C.2     1  UNL1        0.2322
     11 O          -2.2907   -6.1358   -0.1217 O.2     1  UNL1       -0.2740
     12 C          -4.7222   -6.3854   -0.1576 C.3     1  UNL1        0.0370
     13 C          -4.5075   -7.8754    0.2095 C.3     1  UNL1       -0.0419
     14 C          -5.8166   -8.6706    0.3020 C.3     1  UNL1       -0.0524
     15 C          -6.8086   -8.0143    1.2539 C.3     1  UNL1       -0.0530
     16 C          -7.0621   -6.5722    0.8439 C.3     1  UNL1       -0.0524
     17 C          -5.7669   -5.7692    0.7815 C.3     1  UNL1       -0.0419
     18 C          -1.1811    0.1959   -0.0115 C.ar    1  UNL1        0.1292
     19 O          -2.3382    0.9328   -0.0046 O.3     1  UNL1       -0.5060
     20 C          -0.0046    0.9580   -0.0064 C.ar    1  UNL1       -0.0165
     21 H           3.4008    0.5767    0.0031 H       1  UNL1        0.0278
     22 H           2.5117    1.8293    0.8845 H       1  UNL1        0.0278
     23 H           2.5123    1.8146   -0.8967 H       1  UNL1        0.0278
     24 H           2.2624   -1.5675    0.0407 H       1  UNL1        0.0620
     25 H           0.2376   -2.9002    0.0034 H       1  UNL1        0.0626
     26 H          -1.4645   -3.9445   -0.0814 H       1  UNL1        0.1731
     27 H          -4.3859   -3.6895   -0.1658 H       1  UNL1        0.1728
     28 H          -5.0946   -6.3485   -1.1908 H       1  UNL1        0.0395
     29 H          -3.9903   -7.9439    1.1756 H       1  UNL1        0.0272
     30 H          -3.8536   -8.3605   -0.5256 H       1  UNL1        0.0272
     31 H          -5.6123   -9.6937    0.6404 H       1  UNL1        0.0265
     32 H          -6.2701   -8.7524   -0.6937 H       1  UNL1        0.0265
     33 H          -6.4175   -8.0465    2.2784 H       1  UNL1        0.0265
     34 H          -7.7535   -8.5703    1.2558 H       1  UNL1        0.0265
     35 H          -7.7481   -6.0997    1.5552 H       1  UNL1        0.0265
     36 H          -7.5522   -6.5525   -0.1375 H       1  UNL1        0.0265
     37 H          -5.3389   -5.6864    1.7884 H       1  UNL1        0.0272
     38 H          -6.0191   -4.7550    0.4584 H       1  UNL1        0.0272
     39 H          -3.0984    0.3134   -0.0010 H       1  UNL1        0.2922
     40 H          -0.0698    2.0450   -0.0120 H       1  UNL1        0.0657
@<TRIPOS>BOND
     1     1     2    1
     2     2     3   ar
     3     3     4   ar
     4     4     5   ar
     5     5     6    1
     6     6     7    2
     7     6     8   am
     8     8     9    1
     9     9    10   am
    10    10    11    2
    11    10    12    1
    12    12    13    1
    13    13    14    1
    14    14    15    1
    15    15    16    1
    16    16    17    1
    17    12    17    1
    18     5    18   ar
    19    18    19    1
    20    18    20   ar
    21     2    20   ar
    22     1    21    1
    23     1    22    1
    24     1    23    1
    25     3    24    1
    26     4    25    1
    27     8    26    1
    28     9    27    1
    29    12    28    1
    30    13    29    1
    31    13    30    1
    32    14    31    1
    33    14    32    1
    34    15    33    1
    35    15    34    1
    36    16    35    1
    37    16    36    1
    38    17    37    1
    39    17    38    1
    40    19    39    1
    41    20    40    1
