REMARK  8 active torsions:
REMARK  status: ('A' for Active; 'I' for Inactive)
REMARK    1  A    between atoms: C_6  and  N_7 
REMARK       I    between atoms: N_7  and  C_8 
REMARK    2  A    between atoms: C_8  and  C_10 
REMARK    3  A    between atoms: C_10  and  O_11 
REMARK    4  A    between atoms: O_11  and  C_12 
REMARK    5  A    between atoms: C_15  and  C_16 
REMARK    6  A    between atoms: N_17  and  N_18 
REMARK       I    between atoms: N_18  and  C_19 
REMARK    7  A    between atoms: C_19  and  C_21 
REMARK       I    between atoms: C_21  and  N_23 
REMARK    8  A    between atoms: N_23  and  C_24 
ROOT
ATOM      1  C   UNL d   1      -3.494  -6.694   0.067  0.00  0.00     0.069 A 
ATOM      2  C   UNL d   1      -3.156  -7.848   0.787  0.00  0.00     0.037 A 
ATOM      3  C   UNL d   1      -3.909  -9.025   0.651  0.00  0.00     0.015 A 
ATOM      4  C   UNL d   1      -5.038  -9.029  -0.177  0.00  0.00    -0.017 A 
ATOM      5  C   UNL d   1      -5.322  -7.895  -0.947  0.00  0.00     0.015 A 
ATOM      6  C   UNL d   1      -4.542  -6.741  -0.840  0.00  0.00     0.037 A 
ENDROOT
BRANCH   4   7
ATOM      7  C   UNL d   1      -5.981 -10.188  -0.206  0.00  0.00     0.150 C 
ATOM      8  N   UNL d   1      -7.061 -10.138  -0.928  0.00  0.00    -0.183 NA
BRANCH   8   9
ATOM      9  N   UNL d   1      -7.931 -11.201  -0.910  0.00  0.00    -0.239 N 
ATOM     10  C   UNL d   1      -9.088 -11.161  -1.715  0.00  0.00     0.329 C 
ATOM     11  O   UNL d   1      -9.460 -10.252  -2.429  0.00  0.00    -0.261 OA
ATOM     12  H   UNL d   1      -7.741 -12.028  -0.349  0.00  0.00     0.192 HD
BRANCH  10  13
ATOM     13  C   UNL d   1      -9.928 -12.464  -1.648  0.00  0.00     0.315 C 
ATOM     14  O   UNL d   1      -9.470 -13.406  -1.022  0.00  0.00    -0.262 OA
ATOM     15  N   UNL d   1     -11.116 -12.457  -2.395  0.00  0.00    -0.317 N 
ATOM     16  H   UNL d   1     -11.230 -11.710  -3.076  0.00  0.00     0.169 HD
BRANCH  15  17
ATOM     17  C   UNL d   1     -12.083 -13.506  -2.359  0.00  0.00     0.057 A 
ATOM     18  C   UNL d   1     -12.706 -13.908  -3.559  0.00  0.00     0.031 A 
ATOM     19  C   UNL d   1     -13.708 -14.897  -3.560  0.00  0.00     0.002 A 
ATOM     20  C   UNL d   1     -14.079 -15.523  -2.374  0.00  0.00     0.002 A 
ATOM     21  C   UNL d   1     -13.486 -15.125  -1.180  0.00  0.00     0.026 A 
ATOM     22  C   UNL d   1     -12.510 -14.119  -1.163  0.00  0.00     0.060 A 
ATOM     23 CL   UNL d   1     -12.033 -13.575   0.412  0.00  0.00    -0.082 Cl
ENDBRANCH  15  17
ENDBRANCH  10  13
ENDBRANCH   8   9
ENDBRANCH   4   7
BRANCH   1  24
ATOM     24  O   UNL d   1      -2.710  -5.607   0.288  0.00  0.00    -0.342 OA
BRANCH  24  25
ATOM     25  C   UNL d   1      -3.234  -4.281   0.061  0.00  0.00     0.278 C 
BRANCH  25  26
ATOM     26  C   UNL d   1      -2.000  -3.432  -0.243  0.00  0.00     0.246 C 
ATOM     27  N   UNL d   1      -2.082  -2.046  -0.012  0.00  0.00    -0.324 N 
ATOM     28  H   UNL d   1      -3.018  -1.671   0.070  0.00  0.00     0.169 HD
ATOM     29  O   UNL d   1      -1.049  -4.032  -0.746  0.00  0.00    -0.271 OA
BRANCH  27  30
ATOM     30  C   UNL d   1      -1.018  -1.047  -0.038  0.00  0.00     0.046 A 
ATOM     31  C   UNL d   1      -1.337   0.346  -0.016  0.00  0.00    -0.034 A 
ATOM     32  C   UNL d   1      -0.297   1.332   0.003  0.00  0.00     0.015 A 
ATOM     33  C   UNL d   1      -2.763   0.847   0.002  0.00  0.00     0.050 C 
ATOM     34  C   UNL d   1       1.052   0.968  -0.020  0.00  0.00    -0.061 A 
ATOM     35  C   UNL d   1       2.216   1.910   0.034  0.00  0.00     0.048 C 
ATOM     36  C   UNL d   1       1.357  -0.381  -0.042  0.00  0.00     0.015 A 
ATOM     37  C   UNL d   1       0.358  -1.366   0.001  0.00  0.00    -0.034 A 
ATOM     38  C   UNL d   1       0.901  -2.739   0.186  0.00  0.00     0.050 C 
ENDBRANCH  27  30
ENDBRANCH  25  26
ENDBRANCH  24  25
ENDBRANCH   1  24
TORSDOF 8
