@<TRIPOS>MOLECULE
*****
 48 48 0 0 0
SMALL
GASTEIGER

@<TRIPOS>ATOM
      1 C           1.0428   -0.0870    0.0030 C.3     1  UNL1       -0.0306
      2 C           2.5653   -0.0802    0.0352 C.3     1  UNL1        0.0900
      3 O           3.0391    0.1298    1.3872 O.3     1  UNL1       -0.4614
      4 C           4.3931    0.2127    1.5028 C.2     1  UNL1        0.3394
      5 O           5.1946    0.1172    0.5795 O.2     1  UNL1       -0.2450
      6 C           4.8455    0.4051    2.9158 C.ar    1  UNL1        0.0661
      7 C           6.0034    1.1760    3.1968 C.ar    1  UNL1       -0.0352
      8 C           6.6060    1.1757    4.4815 C.ar    1  UNL1        0.0453
      9 C           7.9778    1.8073    4.6839 C.2     1  UNL1        0.2604
     10 O           8.5308    2.3758    3.7460 O.2     1  UNL1       -0.2687
     11 N           8.5855    1.6670    5.9304 N.am    1  UNL1       -0.2311
     12 N           9.8996    2.1773    6.1960 N.am    1  UNL1       -0.2456
     13 C          10.4496    2.0330    7.4703 C.2     1  UNL1        0.1468
     14 S           9.6237    1.2388    8.7087 S.2     1  UNL1       -0.0174
     15 N          11.7104    2.6015    7.6276 N.am    1  UNL1       -0.3254
     16 C          12.4655    2.5374    8.8879 C.3     1  UNL1        0.0109
     17 C          13.8546    3.1842    8.8695 C.3     1  UNL1       -0.0351
     18 C          14.5708    3.0669   10.2392 C.3     1  UNL1       -0.0453
     19 C          14.7663    1.6080   10.6621 C.3     1  UNL1       -0.0626
     20 C          15.9352    3.7591   10.1926 C.3     1  UNL1       -0.0626
     21 C           5.9547    0.4842    5.5089 C.ar    1  UNL1        0.0278
     22 C           4.8045   -0.2805    5.2293 C.ar    1  UNL1        0.2747
     23 N           4.2366   -1.1208    6.2955 N.pl3   1  UNL1        0.0796
     24 O           4.7749   -1.0726    7.4100 O.2     1  UNL1        0.0414
     25 O           3.2691   -1.8375    6.0093 O.co2   1  UNL1       -0.5760
     26 C           4.2482   -0.3310    3.9416 C.ar    1  UNL1        0.0296
     27 H           0.6712   -0.2447   -1.0165 H       1  UNL1        0.0262
     28 H           0.6396    0.8614    0.3718 H       1  UNL1        0.0262
     29 H           0.6404   -0.8802    0.6410 H       1  UNL1        0.0262
     30 H           2.9299    0.7223   -0.6173 H       1  UNL1        0.0695
     31 H           2.9330   -1.0435   -0.3386 H       1  UNL1        0.0695
     32 H           6.4563    1.7553    2.3901 H       1  UNL1        0.0633
     33 H           8.1816    1.1686    6.7183 H       1  UNL1        0.1731
     34 H          10.3677    2.6341    5.4169 H       1  UNL1        0.1718
     35 H          12.1665    3.0307    6.8334 H       1  UNL1        0.1478
     36 H          12.5610    1.4759    9.1331 H       1  UNL1        0.0462
     37 H          11.8624    3.0151    9.6691 H       1  UNL1        0.0462
     38 H          13.7613    4.2443    8.6022 H       1  UNL1        0.0283
     39 H          14.4728    2.7165    8.0938 H       1  UNL1        0.0283
     40 H          13.9626    3.5692   11.0038 H       1  UNL1        0.0296
     41 H          15.3598    1.0662    9.9182 H       1  UNL1        0.0232
     42 H          13.8118    1.0884   10.7814 H       1  UNL1        0.0232
     43 H          15.2817    1.5417   11.6258 H       1  UNL1        0.0232
     44 H          16.5872    3.2897    9.4482 H       1  UNL1        0.0232
     45 H          16.4383    3.6973   11.1647 H       1  UNL1        0.0232
     46 H          15.8312    4.8181    9.9372 H       1  UNL1        0.0232
     47 H           6.3384    0.5007    6.5242 H       1  UNL1        0.0693
     48 H           3.3929   -0.9699    3.7264 H       1  UNL1        0.0693
@<TRIPOS>UNITY_ATOM_ATTR
23 1
charge 1
25 1
charge -1
@<TRIPOS>BOND
     1     1     2    1
     2     2     3    1
     3     3     4    1
     4     4     5    2
     5     4     6    1
     6     6     7   ar
     7     7     8   ar
     8     8     9    1
     9     9    10    2
    10     9    11   am
    11    11    12    1
    12    12    13    1
    13    13    14    2
    14    13    15    1
    15    15    16    1
    16    16    17    1
    17    17    18    1
    18    18    19    1
    19    18    20    1
    20     8    21   ar
    21    21    22   ar
    22    22    23    1
    23    23    24    2
    24    23    25    1
    25    22    26   ar
    26     6    26   ar
    27     1    27    1
    28     1    28    1
    29     1    29    1
    30     2    30    1
    31     2    31    1
    32     7    32    1
    33    11    33    1
    34    12    34    1
    35    15    35    1
    36    16    36    1
    37    16    37    1
    38    17    38    1
    39    17    39    1
    40    18    40    1
    41    19    41    1
    42    19    42    1
    43    19    43    1
    44    20    44    1
    45    20    45    1
    46    20    46    1
    47    21    47    1
    48    26    48    1
