@<TRIPOS>MOLECULE
*****
 50 52 0 0 0
SMALL
GASTEIGER

@<TRIPOS>ATOM
      1 C          -2.5018    0.0620    0.0744 C.3     1  UNL1       -0.0610
      2 C          -1.0302    0.0156   -0.3329 C.3     1  UNL1       -0.0280
      3 C          -0.3668   -1.2683    0.1901 C.3     1  UNL1       -0.0476
      4 C           1.1139   -1.2985   -0.1833 C.3     1  UNL1       -0.0368
      5 C           1.8373   -0.0330    0.2825 C.3     1  UNL1        0.0150
      6 N           1.1570    1.1698   -0.1986 N.am    1  UNL1       -0.2972
      7 C           1.7509    2.2034   -0.9421 C.2     1  UNL1        0.2502
      8 O           1.1527    3.2303   -1.2621 O.2     1  UNL1       -0.2699
      9 C           3.1802    2.0956   -1.3693 C.ar    1  UNL1        0.0800
     10 C           4.1223    3.0878   -0.9888 C.ar    1  UNL1       -0.0237
     11 C           5.4735    2.9860   -1.3837 C.ar    1  UNL1        0.0490
     12 N           6.4459    3.9702   -0.9621 N.pl3   1  UNL1       -0.2162
     13 S           8.0791    3.8557   -1.4227 S.O2    1  UNL1        0.0726
     14 O           8.6395    2.6894   -0.7811 O.2     1  UNL1       -0.1500
     15 O           8.1648    4.0338   -2.8602 O.2     1  UNL1       -0.1500
     16 C           8.8614    5.2833   -0.6997 C.ar    1  UNL1        0.1149
     17 C           9.8472    5.1420    0.2878 C.ar    1  UNL1       -0.0347
     18 C          10.3591    6.2778    0.9257 C.ar    1  UNL1       -0.0535
     19 C           9.9597    7.5521    0.5163 C.ar    1  UNL1        0.0157
     20 C           9.0280    7.6809   -0.5241 C.ar    1  UNL1        0.2750
     21 N           8.5526    9.0130   -0.9163 N.pl3   1  UNL1        0.0797
     22 O           9.0111    9.9913   -0.3114 O.2     1  UNL1        0.0414
     23 O           7.6951    9.0724   -1.8082 O.co2   1  UNL1       -0.5760
     24 C           8.4838    6.5499   -1.1469 C.ar    1  UNL1        0.0422
     25 C           5.8432    1.8937   -2.1758 C.ar    1  UNL1       -0.0358
     26 C           4.9147    0.9329   -2.5834 C.ar    1  UNL1       -0.0176
     27 C           3.5857    1.0443   -2.1978 C.ar    1  UNL1        0.1291
     28 O           2.6822    0.1160   -2.6295 O.3     1  UNL1       -0.5060
     29 C          -0.2604    1.2488    0.1766 C.3     1  UNL1        0.0175
     30 H          -3.0386   -0.8140   -0.3076 H       1  UNL1        0.0233
     31 H          -2.9885    0.9538   -0.3333 H       1  UNL1        0.0233
     32 H          -2.6174    0.0779    1.1633 H       1  UNL1        0.0233
     33 H          -0.9834    0.0040   -1.4303 H       1  UNL1        0.0313
     34 H          -0.8671   -2.1515   -0.2251 H       1  UNL1        0.0269
     35 H          -0.4663   -1.3272    1.2814 H       1  UNL1        0.0269
     36 H           1.1913   -1.3997   -1.2717 H       1  UNL1        0.0280
     37 H           1.5917   -2.1806    0.2553 H       1  UNL1        0.0280
     38 H           2.8828   -0.0681   -0.0214 H       1  UNL1        0.0464
     39 H           1.8407    0.0146    1.3774 H       1  UNL1        0.0464
     40 H           3.7763    3.9252   -0.3868 H       1  UNL1        0.0645
     41 H           6.1462    4.7637   -0.4006 H       1  UNL1        0.1737
     42 H          10.2253    4.1597    0.5703 H       1  UNL1        0.0637
     43 H          11.0547    6.1717    1.7576 H       1  UNL1        0.0620
     44 H          10.3782    8.4261    1.0144 H       1  UNL1        0.0685
     45 H           7.7744    6.6426   -1.9672 H       1  UNL1        0.0705
     46 H           6.8660    1.7564   -2.5140 H       1  UNL1        0.0638
     47 H           5.2588    0.1131   -3.2063 H       1  UNL1        0.0655
     48 H           3.1360   -0.6047   -3.0949 H       1  UNL1        0.2922
     49 H          -0.7228    2.1683   -0.1946 H       1  UNL1        0.0467
     50 H          -0.3017    1.2824    1.2737 H       1  UNL1        0.0467
@<TRIPOS>UNITY_ATOM_ATTR
21 1
charge 1
23 1
charge -1
@<TRIPOS>BOND
     1     1     2    1
     2     2     3    1
     3     3     4    1
     4     4     5    1
     5     5     6    1
     6     6     7   am
     7     7     8    2
     8     7     9    1
     9     9    10   ar
    10    10    11   ar
    11    11    12    1
    12    12    13    1
    13    13    14    2
    14    13    15    2
    15    13    16    1
    16    16    17   ar
    17    17    18   ar
    18    18    19   ar
    19    19    20   ar
    20    20    21    1
    21    21    22    2
    22    21    23    1
    23    20    24   ar
    24    16    24   ar
    25    11    25   ar
    26    25    26   ar
    27    26    27   ar
    28     9    27   ar
    29    27    28    1
    30     6    29    1
    31     2    29    1
    32     1    30    1
    33     1    31    1
    34     1    32    1
    35     2    33    1
    36     3    34    1
    37     3    35    1
    38     4    36    1
    39     4    37    1
    40     5    38    1
    41     5    39    1
    42    10    40    1
    43    12    41    1
    44    17    42    1
    45    18    43    1
    46    19    44    1
    47    24    45    1
    48    25    46    1
    49    26    47    1
    50    28    48    1
    51    29    49    1
    52    29    50    1
