REMARK  15 active torsions:
REMARK  status: ('A' for Active; 'I' for Inactive)
REMARK    1  A    between atoms: C_2  and  C_3 
REMARK    2  A    between atoms: C_3  and  O_4 
REMARK    3  A    between atoms: O_4  and  C_5 
REMARK    4  A    between atoms: C_8  and  C_9 
REMARK    5  A    between atoms: C_9  and  C_10 
REMARK    6  A    between atoms: C_10  and  C_11 
REMARK       I    between atoms: C_11  and  N_13 
REMARK    7  A    between atoms: N_13  and  N_14 
REMARK    8  A    between atoms: C_15  and  C_16 
REMARK    9  A    between atoms: N_18  and  N_19 
REMARK       I    between atoms: N_19  and  C_20 
REMARK   10  A    between atoms: C_20  and  C_22 
REMARK   11  A    between atoms: C_22  and  C_23 
REMARK   12  A    between atoms: C_23  and  C_24 
REMARK   13  A    between atoms: C_27  and  O_28 
REMARK   14  A    between atoms: O_28  and  C_29 
REMARK   15  A    between atoms: C_29  and  C_30 
ROOT
ATOM      1  C   UNL d   1       8.745  -9.756   9.160  0.00  0.00     0.070 C 
ATOM      2  C   UNL d   1      10.028  -9.124   9.632  0.00  0.00     0.074 C 
ATOM      3  N   UNL d   1       8.314 -10.924   9.554  0.00  0.00    -0.176 NA
ENDROOT
BRANCH   1   4
ATOM      4  C   UNL d   1       7.892  -8.972   8.147  0.00  0.00     0.167 C 
ATOM      5  N   UNL d   1       8.287  -7.811   7.728  0.00  0.00    -0.183 NA
BRANCH   5   6
ATOM      6  N   UNL d   1       7.522  -7.107   6.814  0.00  0.00    -0.247 N 
ATOM      7  C   UNL d   1       7.987  -5.856   6.384  0.00  0.00     0.237 C 
ATOM      8  O   UNL d   1       9.037  -5.344   6.779  0.00  0.00    -0.272 OA
ATOM      9  H   UNL d   1       6.650  -7.498   6.471  0.00  0.00     0.192 HD
BRANCH   7  10
ATOM     10  C   UNL d   1       7.094  -5.146   5.373  0.00  0.00     0.109 C 
BRANCH  10  11
ATOM     11  C   UNL d   1       7.664  -3.778   4.929  0.00  0.00     0.048 C 
BRANCH  11  12
ATOM     12  C   UNL d   1       6.801  -2.992   3.955  0.00  0.00    -0.058 A 
ATOM     13  C   UNL d   1       7.199  -1.711   3.542  0.00  0.00     0.010 A 
ATOM     14  C   UNL d   1       6.362  -0.929   2.732  0.00  0.00     0.037 A 
ATOM     15  C   UNL d   1       5.152  -1.438   2.261  0.00  0.00     0.068 A 
ATOM     16  C   UNL d   1       4.763  -2.717   2.642  0.00  0.00     0.037 A 
ATOM     17  C   UNL d   1       5.581  -3.483   3.476  0.00  0.00     0.010 A 
BRANCH  15  18
ATOM     18  O   UNL d   1       4.487  -0.656   1.358  0.00  0.00    -0.351 OA
BRANCH  18  19
ATOM     19  C   UNL d   1       3.066  -0.786   1.327  0.00  0.00     0.175 C 
BRANCH  19  20
ATOM     20  C   UNL d   1       2.542  -0.003   0.126  0.00  0.00     0.022 C 
ATOM     21  C   UNL d   1       1.024  -0.000   0.096  0.00  0.00     0.007 C 
ENDBRANCH  19  20
ENDBRANCH  18  19
ENDBRANCH  15  18
ENDBRANCH  11  12
ENDBRANCH  10  11
ENDBRANCH   7  10
ENDBRANCH   5   6
ENDBRANCH   1   4
BRANCH   3  22
ATOM     22  N   UNL d   1       9.061 -11.666  10.465  0.00  0.00    -0.247 N 
ATOM     23  C   UNL d   1       8.604 -12.919  10.880  0.00  0.00     0.237 C 
ATOM     24  O   UNL d   1       7.547 -13.426  10.494  0.00  0.00    -0.272 OA
ATOM     25  H   UNL d   1       9.934 -11.296  10.828  0.00  0.00     0.192 HD
BRANCH  23  26
ATOM     26  C   UNL d   1       9.510 -13.629  11.886  0.00  0.00     0.109 C 
BRANCH  26  27
ATOM     27  C   UNL d   1       8.940 -15.002  12.298  0.00  0.00     0.048 C 
BRANCH  27  28
ATOM     28  C   UNL d   1       9.740 -15.773  13.331  0.00  0.00    -0.058 A 
ATOM     29  C   UNL d   1       9.645 -17.172  13.404  0.00  0.00     0.010 A 
ATOM     30  C   UNL d   1      10.217 -17.873  14.477  0.00  0.00     0.037 A 
ATOM     31  C   UNL d   1      10.961 -17.201  15.448  0.00  0.00     0.068 A 
ATOM     32  C   UNL d   1      11.073 -15.815  15.366  0.00  0.00     0.037 A 
ATOM     33  C   UNL d   1      10.466 -15.113  14.326  0.00  0.00     0.010 A 
BRANCH  31  34
ATOM     34  O   UNL d   1      11.539 -17.977  16.419  0.00  0.00    -0.351 OA
BRANCH  34  35
ATOM     35  C   UNL d   1      12.402 -17.284  17.327  0.00  0.00     0.175 C 
BRANCH  35  36
ATOM     36  C   UNL d   1      13.062 -18.282  18.268  0.00  0.00     0.022 C 
ATOM     37  C   UNL d   1      13.942 -17.571  19.283  0.00  0.00     0.007 C 
ENDBRANCH  35  36
ENDBRANCH  34  35
ENDBRANCH  31  34
ENDBRANCH  27  28
ENDBRANCH  26  27
ENDBRANCH  23  26
ENDBRANCH   3  22
TORSDOF 15
