@<TRIPOS>MOLECULE
*****
 66 69 0 0 0
SMALL
GASTEIGER

@<TRIPOS>ATOM
      1 C           0.9958   -0.0918    0.0457 C.3     1  UNL1       -0.0307
      2 C           2.5145   -0.1089    0.0291 C.3     1  UNL1        0.0868
      3 O           2.9674   -1.4610    0.1935 O.3     1  UNL1       -0.4922
      4 C           4.3169   -1.6162    0.3572 C.ar    1  UNL1        0.1207
      5 C           4.9191   -2.7771   -0.1358 C.ar    1  UNL1       -0.0167
      6 C           6.2958   -3.0500    0.0983 C.ar    1  UNL1       -0.0197
      7 C           7.1142   -2.1249    0.7751 C.ar    1  UNL1        0.1000
      8 N           8.5193   -2.3078    0.9595 N.pl3   1  UNL1       -0.2450
      9 C           9.4305   -1.3809    1.4926 C.2     1  UNL1        0.3842
     10 N           9.0390   -0.2460    1.9997 N.am    1  UNL1        0.0006
     11 C           9.7497    0.7885    2.5687 C.2     1  UNL1        0.3405
     12 O          10.8883    0.8839    3.0086 O.2     1  UNL1       -0.2484
     13 C           9.0512    1.9836    2.9787 C.ar    1  UNL1        0.0562
     14 C           9.8046    3.1777    2.9896 C.ar    1  UNL1       -0.0463
     15 C           9.4769    4.2013    3.8699 C.ar    1  UNL1       -0.0397
     16 C           8.3748    4.0348    4.7065 C.ar    1  UNL1        0.0334
     17 N           7.9024    5.1366    5.4322 N.am    1  UNL1       -0.2857
     18 C           6.7299    5.3282    6.1114 C.2     1  UNL1        0.2141
     19 C           5.6923    4.2489    6.3127 C.3     1  UNL1        0.0125
     20 O           6.5217    6.4498    6.5864 O.2     1  UNL1       -0.2758
     21 C           7.7797    2.7743    4.7722 C.ar    1  UNL1       -0.0397
     22 C           8.0210    1.7752    3.8597 C.ar    1  UNL1       -0.0463
     23 N          10.7422   -1.8157    1.4009 N.pl3   1  UNL1       -0.2767
     24 C          11.7639   -1.0055    2.0051 C.3     1  UNL1        0.0684
     25 C          13.1925   -1.3595    1.9859 C.3     1  UNL1        0.0059
     26 C          14.0975   -0.3282    2.6349 C.2     1  UNL1        0.0106
     27 C          15.3907   -0.6246    2.6817 C.ar    1  UNL1        0.0510
     28 C          16.0474   -1.7858    2.2119 C.ar    1  UNL1       -0.0482
     29 C          17.3303   -1.9477    2.5281 C.ar    1  UNL1       -0.0608
     30 C          18.0693   -0.8918    3.1988 C.ar    1  UNL1       -0.0555
     31 C          17.5202    0.2687    3.6230 C.ar    1  UNL1        0.0098
     32 C          16.0718    0.4576    3.3869 C.ar    1  UNL1        0.2086
     33 N          15.2621    1.4010    3.6900 N.2     1  UNL1       -0.2369
     34 C          13.8527    1.0175    3.2973 C.3     1  UNL1        0.1661
     35 C           6.4495   -1.0047    1.2801 C.ar    1  UNL1       -0.0197
     36 C           5.0967   -0.7393    1.0801 C.ar    1  UNL1       -0.0167
     37 H           0.6174    0.9143   -0.1618 H       1  UNL1        0.0262
     38 H           0.6173   -0.4068    1.0245 H       1  UNL1        0.0262
     39 H           0.5920   -0.7853   -0.6967 H       1  UNL1        0.0262
     40 H           2.8532    0.5604    0.8271 H       1  UNL1        0.0694
     41 H           2.8772    0.2653   -0.9341 H       1  UNL1        0.0694
     42 H           4.3125   -3.4726   -0.7148 H       1  UNL1        0.0655
     43 H           6.6812   -4.0042   -0.2567 H       1  UNL1        0.0653
     44 H           8.8845   -3.1190    0.4792 H       1  UNL1        0.2646
     45 H          10.7164    3.2362    2.3971 H       1  UNL1        0.0626
     46 H          10.1249    5.0730    3.9260 H       1  UNL1        0.0636
     47 H           8.4089    6.0122    5.3300 H       1  UNL1        0.1548
     48 H           5.7441    3.3951    5.6593 H       1  UNL1        0.0323
     49 H           4.7065    4.6351    6.0561 H       1  UNL1        0.0323
     50 H           5.7307    3.9046    7.3498 H       1  UNL1        0.0323
     51 H           7.1937    2.4489    5.6144 H       1  UNL1        0.0636
     52 H           7.5436    0.8068    3.9848 H       1  UNL1        0.0626
     53 H          10.9959   -2.7124    1.0151 H       1  UNL1        0.2577
     54 H          11.5338   -0.9938    3.0774 H       1  UNL1        0.0658
     55 H          11.7504   -0.0633    1.4444 H       1  UNL1        0.0658
     56 H          13.4973   -1.4835    0.9435 H       1  UNL1        0.0343
     57 H          13.3048   -2.3129    2.5131 H       1  UNL1        0.0343
     58 H          15.4903   -2.5327    1.6581 H       1  UNL1        0.0626
     59 H          17.8162   -2.8824    2.2687 H       1  UNL1        0.0618
     60 H          19.1317   -1.0924    3.3124 H       1  UNL1        0.0620
     61 H          18.1260    1.0170    4.1187 H       1  UNL1        0.0683
     62 H          15.5736    2.2687    4.1291 H       1  UNL1        0.4459
     63 H          13.4688    1.7878    2.6213 H       1  UNL1        0.1077
     64 H          13.2608    0.9743    4.2190 H       1  UNL1        0.1077
     65 H           6.9525   -0.2726    1.8844 H       1  UNL1        0.0653
     66 H           4.7035    0.1581    1.5397 H       1  UNL1        0.0655
@<TRIPOS>UNITY_ATOM_ATTR
33 1
charge 1
@<TRIPOS>BOND
     1     1     2    1
     2     2     3    1
     3     3     4    1
     4     4     5   ar
     5     5     6   ar
     6     6     7   ar
     7     7     8    1
     8     8     9    1
     9     9    10    2
    10    10    11    1
    11    11    12    2
    12    11    13    1
    13    13    14   ar
    14    14    15   ar
    15    15    16   ar
    16    16    17    1
    17    17    18   am
    18    18    19    1
    19    18    20    2
    20    16    21   ar
    21    21    22   ar
    22    13    22   ar
    23     9    23    1
    24    23    24    1
    25    24    25    1
    26    25    26    1
    27    26    27    2
    28    27    28   ar
    29    28    29   ar
    30    29    30   ar
    31    30    31   ar
    32    31    32   ar
    33    27    32   ar
    34    32    33    2
    35    33    34    1
    36    26    34    1
    37     7    35   ar
    38    35    36   ar
    39     4    36   ar
    40     1    37    1
    41     1    38    1
    42     1    39    1
    43     2    40    1
    44     2    41    1
    45     5    42    1
    46     6    43    1
    47     8    44    1
    48    14    45    1
    49    15    46    1
    50    17    47    1
    51    19    48    1
    52    19    49    1
    53    19    50    1
    54    21    51    1
    55    22    52    1
    56    23    53    1
    57    24    54    1
    58    24    55    1
    59    25    56    1
    60    25    57    1
    61    28    58    1
    62    29    59    1
    63    30    60    1
    64    31    61    1
    65    33    62    1
    66    34    63    1
    67    34    64    1
    68    35    65    1
    69    36    66    1
