@<TRIPOS>MOLECULE
*****
 32 32 0 0 0
SMALL
GASTEIGER

@<TRIPOS>ATOM
      1 C           1.0811    0.0484   -0.0473 C.3     1  UNL1       -0.0544
      2 C           2.6114    0.0838   -0.0840 C.3     1  UNL1        0.0299
      3 C           3.1143   -0.8996   -1.1359 C.3     1  UNL1       -0.0544
      4 C           3.0942    1.5004   -0.3804 C.2     1  UNL1        0.2156
      5 O           2.3199    2.4451   -0.5368 O.2     1  UNL1       -0.2755
      6 N           4.4649    1.6632   -0.4366 N.am    1  UNL1       -0.3148
      7 C           4.9985    2.9843   -0.6858 C.3     1  UNL1        0.0156
      8 C           6.5300    3.0767   -0.6884 C.3     1  UNL1       -0.0121
      9 C           7.0201    4.4844   -0.9709 C.ar    1  UNL1       -0.0457
     10 C           8.1895    4.7141   -1.7133 C.ar    1  UNL1       -0.0551
     11 C           8.6069    6.0235   -1.9984 C.ar    1  UNL1       -0.0199
     12 C           7.8582    7.1015   -1.5343 C.ar    1  UNL1        0.1169
     13 O           8.1916    8.3964   -1.7962 O.3     1  UNL1       -0.5068
     14 C           6.7241    6.8937   -0.7696 C.ar    1  UNL1       -0.0199
     15 C           6.3204    5.5963   -0.4757 C.ar    1  UNL1       -0.0551
     16 H           0.7120   -0.9590    0.1693 H       1  UNL1        0.0237
     17 H           0.6596    0.3631   -1.0095 H       1  UNL1        0.0237
     18 H           0.6893    0.7251    0.7200 H       1  UNL1        0.0237
     19 H           2.9922   -0.2052    0.9037 H       1  UNL1        0.0389
     20 H           2.7713   -0.6082   -2.1348 H       1  UNL1        0.0237
     21 H           2.7467   -1.9104   -0.9301 H       1  UNL1        0.0237
     22 H           4.2072   -0.9423   -1.1603 H       1  UNL1        0.0237
     23 H           5.0871    0.8959   -0.2213 H       1  UNL1        0.1487
     24 H           4.5703    3.6260    0.0914 H       1  UNL1        0.0465
     25 H           4.5989    3.3313   -1.6475 H       1  UNL1        0.0465
     26 H           6.9231    2.3857   -1.4455 H       1  UNL1        0.0328
     27 H           6.9300    2.7506    0.2795 H       1  UNL1        0.0328
     28 H           8.7795    3.8790   -2.0870 H       1  UNL1        0.0621
     29 H           9.5078    6.1797   -2.5838 H       1  UNL1        0.0654
     30 H           8.9835    8.4143   -2.3549 H       1  UNL1        0.2921
     31 H           6.1445    7.7348   -0.4025 H       1  UNL1        0.0654
     32 H           5.4318    5.4834    0.1376 H       1  UNL1        0.0621
@<TRIPOS>BOND
     1     1     2    1
     2     2     3    1
     3     2     4    1
     4     4     5    2
     5     4     6   am
     6     6     7    1
     7     7     8    1
     8     8     9    1
     9     9    10   ar
    10    10    11   ar
    11    11    12   ar
    12    12    13    1
    13    12    14   ar
    14    14    15   ar
    15     9    15   ar
    16     1    16    1
    17     1    17    1
    18     1    18    1
    19     2    19    1
    20     3    20    1
    21     3    21    1
    22     3    22    1
    23     6    23    1
    24     7    24    1
    25     7    25    1
    26     8    26    1
    27     8    27    1
    28    10    28    1
    29    11    29    1
    30    13    30    1
    31    14    31    1
    32    15    32    1
