@<TRIPOS>MOLECULE
*****
 38 41 0 0 0
SMALL
GASTEIGER

@<TRIPOS>ATOM
      1 O           1.1060    0.0852    0.0659 O.2     1  UNL1       -0.2670
      2 C           2.3381    0.0175    0.0486 C.2     1  UNL1        0.2784
      3 N           3.0842   -0.3375    1.1749 N.am    1  UNL1       -0.2312
      4 N           2.4120   -0.5250    2.3938 N.pl3   1  UNL1       -0.2635
      5 C           3.1303   -0.7614    3.5845 C.ar    1  UNL1        0.0550
      6 C           2.7514   -1.8311    4.4037 C.ar    1  UNL1       -0.0206
      7 C           3.4850   -2.1001    5.5494 C.ar    1  UNL1        0.0301
      8 N           4.5565   -1.3830    5.9431 N.ar    1  UNL1       -0.2548
      9 C           4.9301   -0.3456    5.1805 C.ar    1  UNL1        0.0741
     10 C           6.0235    0.4092    5.5878 C.ar    1  UNL1       -0.0173
     11 C           6.4661    1.4979    4.8396 C.ar    1  UNL1        0.0430
     12 CL          7.8352    2.4051    5.3481 Cl      1  UNL1       -0.0835
     13 C           5.8017    1.8700    3.6828 C.ar    1  UNL1       -0.0426
     14 C           4.6869    1.1480    3.2794 C.ar    1  UNL1       -0.0494
     15 C           4.2504    0.0096    3.9861 C.ar    1  UNL1        0.0228
     16 C           3.1186    0.2956   -1.2158 C.ar    1  UNL1        0.1275
     17 C           4.1839   -0.5186   -1.5756 C.ar    1  UNL1       -0.0305
     18 C           4.8408   -0.2575   -2.7783 C.ar    1  UNL1       -0.0504
     19 C           4.4314    0.8090   -3.5898 C.ar    1  UNL1        0.0004
     20 C           5.0811    1.1052   -4.8064 C.ar    1  UNL1       -0.0526
     21 C           4.6574    2.1728   -5.5949 C.ar    1  UNL1       -0.0611
     22 C           3.5779    2.9401   -5.1767 C.ar    1  UNL1       -0.0597
     23 C           2.9326    2.6391   -3.9689 C.ar    1  UNL1       -0.0357
     24 C           3.3374    1.5856   -3.1515 C.ar    1  UNL1        0.0718
     25 N           2.6940    1.3338   -1.9884 N.ar    1  UNL1       -0.2420
     26 H           4.0985   -0.3258    1.1924 H       1  UNL1        0.1731
     27 H           1.3968   -0.6265    2.3570 H       1  UNL1        0.1700
     28 H           1.9101   -2.4678    4.1527 H       1  UNL1        0.0652
     29 H           3.2306   -2.9342    6.2002 H       1  UNL1        0.0830
     30 H           6.5382    0.1407    6.5079 H       1  UNL1        0.0653
     31 H           6.1248    2.7230    3.0945 H       1  UNL1        0.0632
     32 H           4.1401    1.5053    2.4122 H       1  UNL1        0.0625
     33 H           4.4819   -1.3649   -0.9683 H       1  UNL1        0.0641
     34 H           5.6640   -0.8976   -3.0885 H       1  UNL1        0.0625
     35 H           5.9244    0.5070   -5.1463 H       1  UNL1        0.0624
     36 H           5.1652    2.4032   -6.5291 H       1  UNL1        0.0618
     37 H           3.2333    3.7733   -5.7855 H       1  UNL1        0.0618
     38 H           2.0862    3.2482   -3.6585 H       1  UNL1        0.0639
@<TRIPOS>BOND
     1     1     2    2
     2     2     3   am
     3     3     4    1
     4     4     5    1
     5     5     6   ar
     6     6     7   ar
     7     7     8   ar
     8     8     9   ar
     9     9    10   ar
    10    10    11   ar
    11    11    12    1
    12    11    13   ar
    13    13    14   ar
    14    14    15   ar
    15     5    15   ar
    16     9    15   ar
    17     2    16    1
    18    16    17   ar
    19    17    18   ar
    20    18    19   ar
    21    19    20   ar
    22    20    21   ar
    23    21    22   ar
    24    22    23   ar
    25    23    24   ar
    26    19    24   ar
    27    24    25   ar
    28    16    25   ar
    29     3    26    1
    30     4    27    1
    31     6    28    1
    32     7    29    1
    33    10    30    1
    34    13    31    1
    35    14    32    1
    36    17    33    1
    37    18    34    1
    38    20    35    1
    39    21    36    1
    40    22    37    1
    41    23    38    1
