REMARK  11 active torsions:
REMARK  status: ('A' for Active; 'I' for Inactive)
REMARK    1  A    between atoms: C_2  and  C_3 
REMARK    2  A    between atoms: C_3  and  N_4 
REMARK    3  A    between atoms: C_5  and  O_6 
REMARK    4  A    between atoms: C_9  and  S_10 
REMARK    5  A    between atoms: S_10  and  C_11 
REMARK    6  A    between atoms: C_11  and  C_12 
REMARK       I    between atoms: C_12  and  N_14 
REMARK    7  A    between atoms: N_14  and  C_15 
REMARK    8  A    between atoms: C_16  and  C_15 
REMARK    9  A    between atoms: C_16  and  C_25 
REMARK   10  A    between atoms: C_16  and  C_17 
REMARK   11  A    between atoms: C_20  and  O_21 
ROOT
ATOM      1  C   UNL d   1      -0.935  -4.777  -0.924  0.00  0.00     0.071 C 
ENDROOT
BRANCH   1   2
ATOM      2  C   UNL d   1      -1.462  -6.182  -0.842  0.00  0.00    -0.020 A 
ATOM      3  C   UNL d   1      -0.659  -7.323  -0.918  0.00  0.00     0.097 A 
ATOM      4  N   UNL d   1      -1.450  -8.399  -0.893  0.00  0.00    -0.365 N 
ATOM      5  C   UNL d   1      -2.724  -8.019  -0.832  0.00  0.00     0.042 A 
ATOM      6  H   UNL d   1      -1.233  -9.377  -0.901  0.00  0.00     0.165 HD
ATOM      7  C   UNL d   1      -3.771  -8.845  -0.786  0.00  0.00     0.027 C 
ATOM      8  C   UNL d   1      -2.870  -6.662  -0.803  0.00  0.00    -0.004 A 
ATOM      9  C   UNL d   1      -4.890  -8.123  -0.740  0.00  0.00    -0.015 C 
ATOM     10  C   UNL d   1      -5.987  -7.497  -0.706  0.00  0.00     0.043 C 
ATOM     11  C   UNL d   1      -4.448  -6.346  -0.767  0.00  0.00    -0.003 C 
ENDBRANCH   1   2
BRANCH   1  12
ATOM     12  C   UNL d   1       0.580  -4.791  -0.939  0.00  0.00    -0.048 C 
ATOM     13  C   UNL d   1       1.324  -5.379  -1.952  0.00  0.00     0.011 C 
ATOM     14  C   UNL d   1       2.687  -5.588  -1.762  0.00  0.00     0.037 C 
ATOM     15  C   UNL d   1       3.393  -4.948  -0.760  0.00  0.00     0.068 C 
ATOM     16  C   UNL d   1       2.653  -4.294   0.191  0.00  0.00     0.037 C 
ATOM     17  C   UNL d   1       1.272  -4.199   0.099  0.00  0.00     0.011 C 
BRANCH  15  18
ATOM     18  O   UNL d   1       4.758  -4.984  -0.805  0.00  0.00    -0.356 OA
ATOM     19  C   UNL d   1       5.462  -4.264   0.214  0.00  0.00     0.210 C 
ENDBRANCH  15  18
ENDBRANCH   1  12
BRANCH   1  20
ATOM     20  C   UNL d   1      -1.426  -4.080  -2.170  0.00  0.00     0.136 C 
BRANCH  20  21
ATOM     21  N   UNL d   1      -1.937  -4.973  -3.183  0.00  0.00    -0.359 N 
ATOM     22  C   UNL d   1      -2.275  -4.448  -4.403  0.00  0.00     0.227 C 
ATOM     23  O   UNL d   1      -2.214  -3.280  -4.726  0.00  0.00    -0.273 OA
ATOM     24  H   UNL d   1      -2.060  -5.962  -2.948  0.00  0.00     0.162 HD
BRANCH  22  25
ATOM     25  C   UNL d   1      -2.930  -5.398  -5.240  0.00  0.00     0.185 C 
BRANCH  25  26
ATOM     26  S   UNL d   1      -3.359  -4.591  -7.045  0.00  0.00    -0.081 SA
BRANCH  26  27
ATOM     27  C   UNL d   1      -4.010  -5.855  -8.242  0.00  0.00     0.193 A 
ATOM     28  N   UNL d   1      -4.400  -5.492  -9.453  0.00  0.00    -0.120 NA
ATOM     29  N   UNL d   1      -4.878  -6.635 -10.135  0.00  0.00    -0.103 NA
ATOM     30  C   UNL d   1      -4.785  -7.725  -9.341  0.00  0.00     0.267 A 
ATOM     31  N   UNL d   1      -4.206  -7.279  -8.088  0.00  0.00    -0.288 N 
BRANCH  30  32
ATOM     32  O   UNL d   1      -5.182  -8.987  -9.742  0.00  0.00    -0.330 OA
ATOM     33  H   UNL d   1      -5.102  -9.763  -9.138  0.00  0.00     0.221 HD
ENDBRANCH  30  32
BRANCH  31  34
ATOM     34  C   UNL d   1      -3.864  -8.025  -6.807  0.00  0.00     0.135 C 
BRANCH  34  35
ATOM     35  C   UNL d   1      -4.325  -7.266  -5.620  0.00  0.00     0.016 C 
ATOM     36  C   UNL d   1      -3.898  -7.834  -4.250  0.00  0.00     0.006 C 
ENDBRANCH  34  35
ENDBRANCH  31  34
ENDBRANCH  26  27
ENDBRANCH  25  26
ENDBRANCH  22  25
ENDBRANCH  20  21
ENDBRANCH   1  20
TORSDOF 11
