@<TRIPOS>MOLECULE
*****
 66 68 0 0 0
SMALL
GASTEIGER

@<TRIPOS>ATOM
      1 C          -2.1533   -9.5249    2.2655 C.3     1  UNL1       -0.0397
      2 C          -2.0020   -8.0906    1.9180 C.ar    1  UNL1       -0.0501
      3 C          -2.2309   -7.4980    0.6959 C.ar    1  UNL1       -0.0571
      4 C          -1.8569   -6.1317    0.4653 C.ar    1  UNL1       -0.0397
      5 C          -1.6595   -5.2289    1.5222 C.ar    1  UNL1        0.0407
      6 N          -1.6140   -3.7315    1.3412 N.am    1  UNL1       -0.2506
      7 C          -0.7425   -2.7428    2.1234 C.2     1  UNL1        0.2617
      8 O          -0.6882   -1.5416    1.8173 O.2     1  UNL1       -0.2689
      9 C           0.1579   -3.0855    3.2473 C.ar    1  UNL1        0.1156
     10 S          -0.0669   -2.3964    4.8397 S.2     1  UNL1        0.0190
     11 N           0.7592   -3.6096    5.6811 N.ar    1  UNL1       -0.2031
     12 C           1.3619   -4.4174    4.7878 C.ar    1  UNL1        0.1554
     13 C           1.8936   -5.7631    5.1704 C.2     1  UNL1        0.2624
     14 N           2.0874   -6.0693    6.4894 N.am    1  UNL1       -0.3240
     15 O           2.0839   -6.6562    4.3404 O.2     1  UNL1       -0.2687
     16 C           1.1089   -4.0735    3.3726 C.ar    1  UNL1        0.0765
     17 N           1.3895   -4.8979    2.3258 N.pl3   1  UNL1       -0.3551
     18 C          -2.5106   -3.2107    0.1635 C.3     1  UNL1        0.1323
     19 C          -2.6372   -1.6366   -0.0890 C.2     1  UNL1        0.2385
     20 O          -2.4840   -0.7380    0.7330 O.2     1  UNL1       -0.2734
     21 N          -3.2936   -1.2919   -1.2743 N.am    1  UNL1       -0.3135
     22 C          -4.0801   -0.0811   -1.1448 C.3     1  UNL1        0.0119
     23 C          -5.2165   -0.0485   -2.1402 C.3     1  UNL1       -0.0350
     24 C          -5.9441    1.2952   -2.0968 C.3     1  UNL1       -0.0453
     25 C          -4.9616    2.4432   -2.3261 C.3     1  UNL1       -0.0626
     26 C          -7.0246    1.3083   -3.1703 C.3     1  UNL1       -0.0626
     27 C          -4.0354   -3.7817    0.1265 C.ar    1  UNL1       -0.0177
     28 C          -4.4435   -5.1127   -0.0448 C.ar    1  UNL1       -0.0536
     29 C          -5.7587   -5.5776   -0.0894 C.ar    1  UNL1       -0.0261
     30 C          -6.7747   -4.6712   -0.0788 C.ar    1  UNL1        0.1234
     31 F          -8.0396   -5.0945   -0.1238 F       1  UNL1       -0.2055
     32 C          -6.4721   -3.3319    0.0175 C.ar    1  UNL1       -0.0261
     33 C          -5.1398   -2.9182    0.1864 C.ar    1  UNL1       -0.0536
     34 C          -1.5803   -5.8940    2.7460 C.ar    1  UNL1       -0.0287
     35 C          -1.3602   -5.2467    4.0215 C.3     1  UNL1       -0.0379
     36 C          -1.5419   -7.2789    2.9024 C.ar    1  UNL1       -0.0542
     37 H          -2.7044  -10.0656    1.4999 H       1  UNL1        0.0278
     38 H          -2.6863   -9.6206    3.2222 H       1  UNL1        0.0278
     39 H          -1.1525   -9.9515    2.3889 H       1  UNL1        0.0278
     40 H          -2.7637   -8.0664   -0.0664 H       1  UNL1        0.0621
     41 H          -1.9339   -5.7825   -0.5655 H       1  UNL1        0.0636
     42 H           1.8463   -5.4426    7.2420 H       1  UNL1        0.1453
     43 H           2.5221   -6.9621    6.6892 H       1  UNL1        0.1453
     44 H           1.5286   -5.8806    2.5930 H       1  UNL1        0.1424
     45 H           0.7226   -4.8933    1.5552 H       1  UNL1        0.1424
     46 H          -1.9983   -3.5629   -0.7494 H       1  UNL1        0.0651
     47 H          -3.7058   -2.0474   -1.8083 H       1  UNL1        0.1487
     48 H          -3.3696    0.7391   -1.2333 H       1  UNL1        0.0462
     49 H          -4.5148    0.0082   -0.1353 H       1  UNL1        0.0462
     50 H          -5.9293   -0.8582   -1.9253 H       1  UNL1        0.0283
     51 H          -4.8177   -0.2465   -3.1397 H       1  UNL1        0.0283
     52 H          -6.4194    1.4233   -1.1141 H       1  UNL1        0.0296
     53 H          -4.4255    2.2988   -3.2705 H       1  UNL1        0.0232
     54 H          -4.2187    2.5115   -1.5257 H       1  UNL1        0.0232
     55 H          -5.4745    3.4054   -2.3478 H       1  UNL1        0.0232
     56 H          -6.5832    1.1526   -4.1607 H       1  UNL1        0.0232
     57 H          -7.5506    2.2667   -3.1752 H       1  UNL1        0.0232
     58 H          -7.7581    0.5136   -2.9979 H       1  UNL1        0.0232
     59 H          -3.8184   -5.9601   -0.1373 H       1  UNL1        0.0622
     60 H          -5.9410   -6.6474   -0.1261 H       1  UNL1        0.0646
     61 H          -7.2655   -2.5967    0.0034 H       1  UNL1        0.0646
     62 H          -5.0186   -1.8620    0.3614 H       1  UNL1        0.0622
     63 H          -1.5111   -4.2310    3.7604 H       1  UNL1        0.0278
     64 H          -0.3825   -5.6489    4.2455 H       1  UNL1        0.0278
     65 H          -1.9505   -5.3341    4.9169 H       1  UNL1        0.0278
     66 H          -1.1868   -7.6980    3.8436 H       1  UNL1        0.0623
@<TRIPOS>BOND
     1     1     2    1
     2     2     3   ar
     3     3     4   ar
     4     4     5   ar
     5     5     6    1
     6     6     7   am
     7     7     8    2
     8     7     9    1
     9     9    10   ar
    10    10    11   ar
    11    11    12   ar
    12    12    13    1
    13    13    14   am
    14    13    15    2
    15    12    16   ar
    16     9    16   ar
    17    16    17    1
    18    19    20    2
    19    19    21   am
    20    21    22    1
    21    22    23    1
    22    23    24    1
    23    24    25    1
    24    24    26    1
    25    18    27    1
    26    27    28   ar
    27    28    29   ar
    28    29    30   ar
    29    30    31    1
    30    30    32   ar
    31    32    33   ar
    32    27    33   ar
    33     5    34   ar
    34    34    35    1
    35    34    36   ar
    36     2    36   ar
    37    18    19    1
    38    18     6    1
    39     1    37    1
    40     1    38    1
    41     1    39    1
    42     3    40    1
    43     4    41    1
    44    14    42    1
    45    14    43    1
    46    17    44    1
    47    17    45    1
    48    18    46    1
    49    21    47    1
    50    22    48    1
    51    22    49    1
    52    23    50    1
    53    23    51    1
    54    24    52    1
    55    25    53    1
    56    25    54    1
    57    25    55    1
    58    26    56    1
    59    26    57    1
    60    26    58    1
    61    28    59    1
    62    29    60    1
    63    32    61    1
    64    33    62    1
    65    35    63    1
    66    35    64    1
    67    35    65    1
    68    36    66    1
