REMARK  5 active torsions:
REMARK  status: ('A' for Active; 'I' for Inactive)
REMARK       I    between atoms: C_2  and  N_3 
REMARK    1  A    between atoms: C_2  and  C_12 
REMARK    2  A    between atoms: N_3  and  N_4 
REMARK    3  A    between atoms: N_4  and  C_5 
REMARK    4  A    between atoms: C_17  and  S_18 
REMARK    5  A    between atoms: S_18  and  C_19 
ROOT
ATOM      1  C   UNL d   1       3.102   0.733   0.887  0.00  0.00     0.069 A 
ATOM      2  C   UNL d   1       2.644   1.134   2.159  0.00  0.00     0.021 A 
ATOM      3  C   UNL d   1       3.360   2.052   2.934  0.00  0.00     0.020 A 
ATOM      4  C   UNL d   1       4.501   2.599   2.397  0.00  0.00     0.118 A 
ATOM      5  N   UNL d   1       4.911   2.326   1.144  0.00  0.00    -0.253 NA
ATOM      6  C   UNL d   1       4.211   1.419   0.385  0.00  0.00     0.113 A 
ENDROOT
BRANCH   1   7
ATOM      7  C   UNL d   1       2.298  -0.372   0.226  0.00  0.00     0.269 C 
ATOM      8  O   UNL d   1       1.089  -0.250   0.186  0.00  0.00    -0.266 OA
ATOM      9  N   UNL d   1       2.994  -1.502  -0.279  0.00  0.00    -0.283 N 
ATOM     10  H   UNL d   1       3.974  -1.409  -0.516  0.00  0.00     0.184 HD
BRANCH   9  11
ATOM     11  N   UNL d   1       2.230  -2.520  -1.043  0.00  0.00    -0.203 NA
ATOM     12  H   UNL d   1       1.405  -2.091  -1.474  0.00  0.00     0.153 HD
BRANCH  11  13
ATOM     13  C   UNL d   1       2.965  -3.387  -1.929  0.00  0.00     0.027 C 
ATOM     14  C   UNL d   1       4.211  -3.907  -1.575  0.00  0.00     0.028 C 
ATOM     15  C   UNL d   1       4.975  -4.676  -2.478  0.00  0.00     0.044 C 
ATOM     16  C   UNL d   1       4.539  -4.889  -3.779  0.00  0.00     0.116 C 
ATOM     17  F   UNL d   1       5.324  -5.523  -4.662  0.00  0.00    -0.206 F 
ATOM     18  C   UNL d   1       3.298  -4.427  -4.165  0.00  0.00     0.044 C 
ATOM     19  C   UNL d   1       2.475  -3.781  -3.209  0.00  0.00     0.028 C 
ENDBRANCH  11  13
ENDBRANCH   9  11
ENDBRANCH   1   7
BRANCH   6  20
ATOM     20  S   UNL d   1       4.940   1.323  -1.227  0.00  0.00    -0.070 SA
BRANCH  20  21
ATOM     21  C   UNL d   1       3.736   0.594  -2.285  0.00  0.00     0.007 C 
ATOM     22  C   UNL d   1       4.148  -0.512  -3.017  0.00  0.00     0.019 C 
ATOM     23  C   UNL d   1       3.260  -1.107  -3.897  0.00  0.00     0.001 C 
ATOM     24  C   UNL d   1       1.896  -0.805  -3.834  0.00  0.00     0.000 C 
ATOM     25  C   UNL d   1       1.460   0.243  -3.045  0.00  0.00     0.001 C 
ATOM     26  C   UNL d   1       2.400   1.010  -2.359  0.00  0.00     0.019 C 
ENDBRANCH  20  21
ENDBRANCH   6  20
TORSDOF 5
