@<TRIPOS>MOLECULE
*****
 64 66 0 0 0
SMALL
GASTEIGER

@<TRIPOS>ATOM
      1 C           1.0830    0.0144   -0.0433 C.3     1  UNL1       -0.0652
      2 C           2.6017    0.0098   -0.0562 C.3     1  UNL1       -0.0528
      3 C           3.1381   -0.7535   -1.2650 C.3     1  UNL1       -0.0189
      4 C           4.6633   -0.7483   -1.2893 C.3     1  UNL1        0.0896
      5 O           5.1049   -1.3792   -2.4988 O.3     1  UNL1       -0.4920
      6 C           6.4542   -1.5862   -2.5903 C.ar    1  UNL1        0.1206
      7 C           7.0384   -1.5193   -3.8586 C.ar    1  UNL1       -0.0182
      8 C           8.4050   -1.8281   -4.0482 C.ar    1  UNL1       -0.0370
      9 C           9.2152   -2.1459   -2.9500 C.ar    1  UNL1        0.0337
     10 N          10.6203   -2.3442   -3.1005 N.am    1  UNL1       -0.2842
     11 C          11.4956   -2.5696   -2.0360 C.2     1  UNL1        0.2343
     12 O          11.1763   -2.6490   -0.8464 O.2     1  UNL1       -0.2738
     13 C          12.9858   -2.7003   -2.3777 C.3     1  UNL1        0.0861
     14 N          13.6999   -3.1051   -1.1604 N.pl3   1  UNL1       -0.3354
     15 C          15.0638   -3.1326   -1.0113 C.ar    1  UNL1        0.0283
     16 C          15.6374   -4.0882   -0.1692 C.ar    1  UNL1       -0.0394
     17 C          17.0157   -4.1572    0.0095 C.ar    1  UNL1       -0.0409
     18 C          17.8550   -3.3045   -0.6992 C.ar    1  UNL1        0.0532
     19 CL         19.5470   -3.6288   -0.4744 Cl      1  UNL1       -0.0828
     20 C          17.2989   -2.3167   -1.5400 C.ar    1  UNL1        0.0567
     21 C          18.1582   -1.3248   -2.2204 C.2     1  UNL1        0.2458
     22 O          19.3703   -1.4365   -2.0468 O.2     1  UNL1       -0.2701
     23 N          17.6050   -0.3095   -2.9912 N.am    1  UNL1       -0.3085
     24 C          18.4008    0.7291   -3.6652 C.3     1  UNL1        0.0234
     25 C          17.9247    2.1272   -3.2387 C.3     1  UNL1       -0.0345
     26 C          18.7948    3.2374   -3.8348 C.3     1  UNL1       -0.0514
     27 C          20.2750    3.0333   -3.5263 C.3     1  UNL1       -0.0529
     28 C          20.7451    1.6841   -4.0371 C.3     1  UNL1       -0.0514
     29 C          19.9081    0.5885   -3.4321 C.3     1  UNL1       -0.0345
     30 C          15.9058   -2.2570   -1.6905 C.ar    1  UNL1       -0.0273
     31 C           8.5949   -2.2333   -1.7031 C.ar    1  UNL1       -0.0370
     32 C           7.2431   -1.9582   -1.5173 C.ar    1  UNL1       -0.0182
     33 H           0.7106    0.5724    0.8210 H       1  UNL1        0.0230
     34 H           0.6910   -1.0060    0.0134 H       1  UNL1        0.0230
     35 H           0.6888    0.4847   -0.9496 H       1  UNL1        0.0230
     36 H           2.9706   -0.4436    0.8718 H       1  UNL1        0.0264
     37 H           2.9663    1.0435   -0.0780 H       1  UNL1        0.0264
     38 H           2.7548   -0.3171   -2.1943 H       1  UNL1        0.0298
     39 H           2.7775   -1.7904   -1.2447 H       1  UNL1        0.0298
     40 H           5.0078   -1.2665   -0.3881 H       1  UNL1        0.0696
     41 H           5.0364    0.2819   -1.2799 H       1  UNL1        0.0696
     42 H           6.4249   -1.2150   -4.7046 H       1  UNL1        0.0655
     43 H           8.7945   -1.8194   -5.0633 H       1  UNL1        0.0637
     44 H          10.9990   -2.2371   -4.0350 H       1  UNL1        0.1549
     45 H          13.3333   -1.7381   -2.7645 H       1  UNL1        0.0557
     46 H          13.1230   -3.4857   -3.1245 H       1  UNL1        0.0557
     47 H          13.1350   -3.0749   -0.3050 H       1  UNL1        0.1466
     48 H          15.0130   -4.8278    0.3257 H       1  UNL1        0.0636
     49 H          17.4403   -4.8871    0.6941 H       1  UNL1        0.0633
     50 H          16.6093   -0.2473   -3.1348 H       1  UNL1        0.1493
     51 H          18.1936    0.6094   -4.7371 H       1  UNL1        0.0498
     52 H          17.9417    2.2021   -2.1436 H       1  UNL1        0.0283
     53 H          16.8812    2.2821   -3.5418 H       1  UNL1        0.0283
     54 H          18.4725    4.2086   -3.4454 H       1  UNL1        0.0266
     55 H          18.6566    3.2612   -4.9225 H       1  UNL1        0.0266
     56 H          20.4352    3.0961   -2.4416 H       1  UNL1        0.0265
     57 H          20.8757    3.8209   -3.9894 H       1  UNL1        0.0265
     58 H          21.7905    1.5145   -3.7558 H       1  UNL1        0.0266
     59 H          20.6782    1.6318   -5.1278 H       1  UNL1        0.0266
     60 H          20.1023    0.6154   -2.3509 H       1  UNL1        0.0283
     61 H          20.2565   -0.3691   -3.8361 H       1  UNL1        0.0283
     62 H          15.4475   -1.5035   -2.3130 H       1  UNL1        0.0644
     63 H           9.1217   -2.5371   -0.8098 H       1  UNL1        0.0637
     64 H           6.8559   -2.0760   -0.5130 H       1  UNL1        0.0655
@<TRIPOS>BOND
     1     1     2    1
     2     2     3    1
     3     3     4    1
     4     4     5    1
     5     5     6    1
     6     6     7   ar
     7     7     8   ar
     8     8     9   ar
     9     9    10    1
    10    10    11   am
    11    11    12    2
    12    11    13    1
    13    13    14    1
    14    14    15    1
    15    15    16   ar
    16    16    17   ar
    17    17    18   ar
    18    18    19    1
    19    18    20   ar
    20    20    21    1
    21    21    22    2
    22    21    23   am
    23    23    24    1
    24    24    25    1
    25    25    26    1
    26    26    27    1
    27    27    28    1
    28    28    29    1
    29    24    29    1
    30    20    30   ar
    31    15    30   ar
    32     9    31   ar
    33    31    32   ar
    34     6    32   ar
    35     1    33    1
    36     1    34    1
    37     1    35    1
    38     2    36    1
    39     2    37    1
    40     3    38    1
    41     3    39    1
    42     4    40    1
    43     4    41    1
    44     7    42    1
    45     8    43    1
    46    10    44    1
    47    13    45    1
    48    13    46    1
    49    14    47    1
    50    16    48    1
    51    17    49    1
    52    23    50    1
    53    24    51    1
    54    25    52    1
    55    25    53    1
    56    26    54    1
    57    26    55    1
    58    27    56    1
    59    27    57    1
    60    28    58    1
    61    28    59    1
    62    29    60    1
    63    29    61    1
    64    30    62    1
    65    31    63    1
    66    32    64    1
