@<TRIPOS>MOLECULE
*****
 62 63 0 0 0
SMALL
GASTEIGER

@<TRIPOS>ATOM
      1 C           0.9198   -0.1063    0.1072 C.3     1  UNL1       -0.0307
      2 C           2.4360   -0.1276    0.1043 C.3     1  UNL1        0.0868
      3 O           2.9419    0.4756    1.2977 O.3     1  UNL1       -0.4911
      4 C           4.3091    0.5765    1.3789 C.ar    1  UNL1        0.1344
      5 C           4.8568    0.1931    2.6117 C.ar    1  UNL1       -0.0181
      6 C           6.2387    0.2924    2.8342 C.ar    1  UNL1       -0.0461
      7 C           7.1073    0.7938    1.8399 C.ar    1  UNL1        0.0383
      8 C           8.5640    0.8806    2.1480 C.2     1  UNL1        0.2496
      9 O           8.8580    0.4454    3.2553 O.2     1  UNL1       -0.2698
     10 N           9.5024    1.3967    1.2146 N.am    1  UNL1       -0.2636
     11 C          10.8784    1.5847    1.4806 C.2     1  UNL1        0.1411
     12 S          11.5628    1.3017    3.0069 S.2     1  UNL1       -0.0182
     13 N          11.6333    2.0688    0.3770 N.am    1  UNL1       -0.2966
     14 C          13.0665    2.1794    0.3997 C.ar    1  UNL1        0.0326
     15 C          13.7600    3.3080   -0.0559 C.ar    1  UNL1       -0.0398
     16 C          15.1745    3.3540    0.0273 C.ar    1  UNL1       -0.0479
     17 C          15.8935    2.2929    0.6040 C.ar    1  UNL1        0.0368
     18 C          17.3794    2.3588    0.7460 C.2     1  UNL1        0.2442
     19 O          17.9947    3.3711    0.4670 O.2     1  UNL1       -0.2702
     20 N          18.0152    1.2171    1.2626 N.am    1  UNL1       -0.3063
     21 C          19.3907    1.3652    1.6378 C.3     1  UNL1        0.0520
     22 C          20.0038    0.2255    2.4524 C.3     1  UNL1       -0.0160
     23 N          21.4943    0.4323    2.7524 N.4     1  UNL1        0.2359
     24 C          21.8136    1.6614    3.6000 C.3     1  UNL1       -0.0348
     25 C          21.5196    2.9936    2.9441 C.3     1  UNL1       -0.0245
     26 C          22.0326   -0.8381    3.4279 C.3     1  UNL1       -0.0348
     27 C          23.5357   -0.7735    3.6402 C.3     1  UNL1       -0.0245
     28 C          15.1945    1.1733    1.0336 C.ar    1  UNL1       -0.0479
     29 C          13.8166    1.1098    0.8913 C.ar    1  UNL1       -0.0398
     30 C           6.5593    1.1975    0.6353 C.ar    1  UNL1       -0.0321
     31 C           5.1749    1.1108    0.4074 C.ar    1  UNL1        0.0602
     32 BR          4.6618    1.9005   -1.2479 Br      1  UNL1       -0.0465
     33 H           0.5416   -0.5016   -0.8419 H       1  UNL1        0.0262
     34 H           0.5544    0.9209    0.2172 H       1  UNL1        0.0262
     35 H           0.5134   -0.6961    0.9310 H       1  UNL1        0.0262
     36 H           2.7008    0.4386   -0.7786 H       1  UNL1        0.0694
     37 H           2.8147   -1.1496   -0.0023 H       1  UNL1        0.0694
     38 H           4.2201   -0.1816    3.4150 H       1  UNL1        0.0655
     39 H           6.6344   -0.0234    3.8032 H       1  UNL1        0.0626
     40 H           9.1667    1.6888    0.3109 H       1  UNL1        0.1568
     41 H          11.1731    2.5540   -0.3847 H       1  UNL1        0.1538
     42 H          13.2363    4.1934   -0.4101 H       1  UNL1        0.0636
     43 H          15.7114    4.2240   -0.3542 H       1  UNL1        0.0626
     44 H          17.4589    0.5773    1.8054 H       1  UNL1        0.1492
     45 H          19.3230    2.2318    2.2716 H       1  UNL1        0.0515
     46 H          19.9852    1.5962    0.7476 H       1  UNL1        0.0515
     47 H          19.9108   -0.7190    1.9039 H       1  UNL1        0.0830
     48 H          19.4999    0.1205    3.4201 H       1  UNL1        0.0830
     49 H          21.9851    0.5193    1.8497 H       1  UNL1        0.2034
     50 H          22.8913    1.6617    3.7607 H       1  UNL1        0.0812
     51 H          21.2967    1.5389    4.5554 H       1  UNL1        0.0812
     52 H          21.8426    3.0145    1.8992 H       1  UNL1        0.0281
     53 H          22.0181    3.7971    3.4900 H       1  UNL1        0.0281
     54 H          20.4771    3.2834    3.0272 H       1  UNL1        0.0281
     55 H          21.7877   -1.6840    2.7750 H       1  UNL1        0.0812
     56 H          21.5003   -0.9509    4.3788 H       1  UNL1        0.0812
     57 H          24.0608   -0.6354    2.6908 H       1  UNL1        0.0281
     58 H          23.8922   -1.6960    4.1074 H       1  UNL1        0.0281
     59 H          23.8269    0.0319    4.3193 H       1  UNL1        0.0281
     60 H          15.6607    0.3084    1.4827 H       1  UNL1        0.0626
     61 H          13.3340    0.1893    1.2055 H       1  UNL1        0.0636
     62 H           7.1807    1.6121   -0.1458 H       1  UNL1        0.0637
@<TRIPOS>UNITY_ATOM_ATTR
23 1
charge 1
@<TRIPOS>BOND
     1     1     2    1
     2     2     3    1
     3     3     4    1
     4     4     5   ar
     5     5     6   ar
     6     6     7   ar
     7     7     8    1
     8     8     9    2
     9     8    10   am
    10    10    11    1
    11    11    12    2
    12    11    13    1
    13    13    14    1
    14    14    15   ar
    15    15    16   ar
    16    16    17   ar
    17    17    18    1
    18    18    19    2
    19    18    20   am
    20    20    21    1
    21    21    22    1
    22    22    23    1
    23    23    24    1
    24    24    25    1
    25    23    26    1
    26    26    27    1
    27    17    28   ar
    28    28    29   ar
    29    14    29   ar
    30     7    30   ar
    31    30    31   ar
    32     4    31   ar
    33    31    32    1
    34     1    33    1
    35     1    34    1
    36     1    35    1
    37     2    36    1
    38     2    37    1
    39     5    38    1
    40     6    39    1
    41    10    40    1
    42    13    41    1
    43    15    42    1
    44    16    43    1
    45    20    44    1
    46    21    45    1
    47    21    46    1
    48    22    47    1
    49    22    48    1
    50    23    49    1
    51    24    50    1
    52    24    51    1
    53    25    52    1
    54    25    53    1
    55    25    54    1
    56    26    55    1
    57    26    56    1
    58    27    57    1
    59    27    58    1
    60    27    59    1
    61    28    60    1
    62    29    61    1
    63    30    62    1
