@<TRIPOS>MOLECULE
*****
 45 46 0 0 0
SMALL
GASTEIGER

@<TRIPOS>ATOM
      1 C           1.0141    0.0425   -0.0760 C.2     1  UNL1       -0.1012
      2 C           2.3579    0.0307   -0.1057 C.2     1  UNL1       -0.0742
      3 C           3.1292   -0.4463   -1.3020 C.3     1  UNL1        0.0297
      4 N           4.5682   -0.3680   -1.1031 N.am    1  UNL1       -0.3118
      5 C           5.4193   -0.7733   -2.1196 C.2     1  UNL1        0.2141
      6 O           4.9846   -1.2011   -3.1921 O.2     1  UNL1       -0.2758
      7 C           6.9192   -0.6632   -1.8404 C.3     1  UNL1        0.0334
      8 C           7.7579   -1.1494   -3.0495 C.3     1  UNL1        0.0094
      9 S           9.5549   -1.0359   -2.7255 S.3     1  UNL1       -0.0839
     10 C          10.2869   -1.5527   -4.2392 C.ar    1  UNL1        0.2101
     11 N          10.3490   -2.8357   -4.6152 N.ar    1  UNL1       -0.1443
     12 N          11.1114   -2.7490   -5.7296 N.ar    1  UNL1       -0.2446
     13 C          11.4962   -1.4573   -5.9932 C.ar    1  UNL1        0.2317
     14 N          12.2606   -1.1183   -7.0765 N.pl3   1  UNL1       -0.2054
     15 N          12.6031    0.1927   -7.2971 N.2     1  UNL1       -0.1881
     16 C          13.2946    0.5026   -8.3488 C.2     1  UNL1        0.0457
     17 C          13.6677    1.9240   -8.5987 C.2     1  UNL1       -0.0416
     18 C          14.3709    2.3394   -9.6657 C.2     1  UNL1       -0.0531
     19 C          14.7807    3.7490   -9.8548 C.ar    1  UNL1       -0.0250
     20 C          14.7523    4.3437  -11.1255 C.ar    1  UNL1       -0.0546
     21 C          15.2599    5.6366  -11.3227 C.ar    1  UNL1       -0.0612
     22 C          15.7460    6.3721  -10.2437 C.ar    1  UNL1       -0.0617
     23 C          15.7648    5.8009   -8.9751 C.ar    1  UNL1       -0.0612
     24 C          15.2995    4.4956   -8.7864 C.ar    1  UNL1       -0.0546
     25 N          10.9964   -0.6949   -5.0402 N.ar    1  UNL1       -0.1865
     26 H           0.4661    0.3904    0.7960 H       1  UNL1        0.0532
     27 H           0.4199   -0.2949   -0.9223 H       1  UNL1        0.0532
     28 H           2.8888    0.3816    0.7737 H       1  UNL1        0.0582
     29 H           2.8758    0.1639   -2.1765 H       1  UNL1        0.0506
     30 H           2.8751   -1.4906   -1.5170 H       1  UNL1        0.0506
     31 H           4.9405   -0.0175   -0.2305 H       1  UNL1        0.1490
     32 H           7.1468   -1.2661   -0.9527 H       1  UNL1        0.0366
     33 H           7.1490    0.3855   -1.6148 H       1  UNL1        0.0366
     34 H           7.5165   -0.5443   -3.9304 H       1  UNL1        0.0385
     35 H           7.5063   -2.1906   -3.2776 H       1  UNL1        0.0385
     36 H          11.3219   -3.5944   -6.2452 H       1  UNL1        0.1919
     37 H          12.5534   -1.8212   -7.7522 H       1  UNL1        0.1774
     38 H          13.6400   -0.2371   -9.0919 H       1  UNL1        0.0845
     39 H          13.3270    2.6192   -7.8369 H       1  UNL1        0.0633
     40 H          14.7057    1.6476  -10.4340 H       1  UNL1        0.0624
     41 H          14.3300    3.8167  -11.9780 H       1  UNL1        0.0623
     42 H          15.2843    6.0700  -12.3203 H       1  UNL1        0.0618
     43 H          16.1105    7.3863  -10.3898 H       1  UNL1        0.0618
     44 H          16.1578    6.3618   -8.1308 H       1  UNL1        0.0618
     45 H          15.3595    4.0641   -7.7904 H       1  UNL1        0.0623
@<TRIPOS>BOND
     1     1     2    2
     2     2     3    1
     3     3     4    1
     4     4     5   am
     5     5     6    2
     6     5     7    1
     7     7     8    1
     8     8     9    1
     9     9    10    1
    10    10    11   ar
    11    11    12   ar
    12    12    13   ar
    13    13    14    1
    14    14    15    1
    15    15    16    2
    16    16    17    1
    17    17    18    2
    18    18    19    1
    19    19    20   ar
    20    20    21   ar
    21    21    22   ar
    22    22    23   ar
    23    23    24   ar
    24    19    24   ar
    25    13    25   ar
    26    10    25   ar
    27     1    26    1
    28     1    27    1
    29     2    28    1
    30     3    29    1
    31     3    30    1
    32     4    31    1
    33     7    32    1
    34     7    33    1
    35     8    34    1
    36     8    35    1
    37    12    36    1
    38    14    37    1
    39    16    38    1
    40    17    39    1
    41    18    40    1
    42    20    41    1
    43    21    42    1
    44    22    43    1
    45    23    44    1
    46    24    45    1
