@<TRIPOS>MOLECULE
*****
 51 54 0 0 0
SMALL
GASTEIGER

@<TRIPOS>ATOM
      1 O           4.4638   -0.0039    1.4885 O.3     1  UNL1       -0.3922
      2 C           4.1563    1.3069    1.0393 C.3     1  UNL1        0.0730
      3 C           2.9998    1.4041   -0.0099 C.3     1  UNL1        0.0905
      4 O           2.2362    0.1861    0.0297 O.3     1  UNL1       -0.3863
      5 C           3.5266    1.6219   -1.4456 C.3     1  UNL1       -0.0204
      6 C           4.2316    2.9709   -1.6779 C.3     1  UNL1       -0.0345
      7 C           3.2643    4.1710   -1.7709 C.3     1  UNL1        0.0150
      8 N           2.9575    4.7399   -0.4610 N.pl3   1  UNL1       -0.2982
      9 C           2.9182    6.1002   -0.2883 C.ar    1  UNL1        0.2423
     10 N           2.1601    6.9914   -0.9104 N.ar    1  UNL1       -0.0918
     11 N           2.3473    8.1924   -0.2665 N.ar    1  UNL1       -0.0210
     12 N           3.2064    8.0770    0.7355 N.ar    1  UNL1       -0.0376
     13 N           3.6334    6.7980    0.6921 N.ar    1  UNL1       -0.1806
     14 C           4.7657    6.3939    1.4244 C.ar    1  UNL1        0.0708
     15 C           4.8603    6.6891    2.7875 C.ar    1  UNL1       -0.0326
     16 C           5.9989    6.2866    3.4944 C.ar    1  UNL1       -0.0173
     17 C           7.0250    5.5836    2.8480 C.ar    1  UNL1        0.1286
     18 O           8.0612    5.1560    3.6550 O.3     1  UNL1       -0.4560
     19 C           9.1056    4.4617    3.0886 C.ar    1  UNL1        0.1284
     20 C           9.3627    3.1665    3.5404 C.ar    1  UNL1       -0.0193
     21 C          10.4631    2.4647    3.0416 C.ar    1  UNL1       -0.0583
     22 C          11.2700    3.0369    2.0567 C.ar    1  UNL1       -0.0615
     23 C          11.0094    4.3300    1.6046 C.ar    1  UNL1       -0.0583
     24 C           9.9514    5.0568    2.1487 C.ar    1  UNL1       -0.0193
     25 C           6.9212    5.3246    1.4773 C.ar    1  UNL1       -0.0173
     26 C           5.7988    5.7314    0.7628 C.ar    1  UNL1       -0.0326
     27 C           2.7608    3.8729    0.6950 C.3     1  UNL1        0.0176
     28 C           2.0406    2.5569    0.3634 C.3     1  UNL1       -0.0060
     29 H           5.0288    0.1117    2.2732 H       1  UNL1        0.2095
     30 H           5.0846    1.7268    0.6435 H       1  UNL1        0.0586
     31 H           3.8968    1.8716    1.9398 H       1  UNL1        0.0586
     32 H           1.7717    0.0508   -0.8114 H       1  UNL1        0.2103
     33 H           2.6963    1.5308   -2.1618 H       1  UNL1        0.0294
     34 H           4.2035    0.7976   -1.7078 H       1  UNL1        0.0294
     35 H           4.7755    2.8925   -2.6262 H       1  UNL1        0.0281
     36 H           4.9959    3.1479   -0.9137 H       1  UNL1        0.0281
     37 H           2.3390    3.8777   -2.2781 H       1  UNL1        0.0464
     38 H           3.7442    4.9340   -2.3967 H       1  UNL1        0.0464
     39 H           4.0418    7.1771    3.3134 H       1  UNL1        0.0640
     40 H           6.0770    6.5139    4.5562 H       1  UNL1        0.0655
     41 H           8.7157    2.7028    4.2798 H       1  UNL1        0.0654
     42 H          10.6986    1.4743    3.4240 H       1  UNL1        0.0619
     43 H          12.1094    2.4791    1.6483 H       1  UNL1        0.0618
     44 H          11.6372    4.7779    0.8391 H       1  UNL1        0.0619
     45 H           9.7685    6.0749    1.8168 H       1  UNL1        0.0654
     46 H           7.7041    4.8128    0.9294 H       1  UNL1        0.0655
     47 H           5.7686    5.5576   -0.3104 H       1  UNL1        0.0640
     48 H           2.1828    4.3839    1.4750 H       1  UNL1        0.0465
     49 H           3.7479    3.7059    1.1267 H       1  UNL1        0.0465
     50 H           1.2883    2.6959   -0.4264 H       1  UNL1        0.0309
     51 H           1.4612    2.2370    1.2399 H       1  UNL1        0.0309
@<TRIPOS>BOND
     1     1     2    1
     2     3     5    1
     3     5     6    1
     4     6     7    1
     5     7     8    1
     6     8     9    1
     7     9    10   ar
     8    10    11   ar
     9    11    12   ar
    10    12    13   ar
    11     9    13   ar
    12    13    14    1
    13    14    15   ar
    14    15    16   ar
    15    16    17   ar
    16    17    18    1
    17    18    19    1
    18    19    20   ar
    19    20    21   ar
    20    21    22   ar
    21    22    23   ar
    22    23    24   ar
    23    19    24   ar
    24    17    25   ar
    25    25    26   ar
    26    14    26   ar
    27     8    27    1
    28    27    28    1
    29     3    28    1
    30     3     4    1
    31     3     2    1
    32     1    29    1
    33     2    30    1
    34     2    31    1
    35     4    32    1
    36     5    33    1
    37     5    34    1
    38     6    35    1
    39     6    36    1
    40     7    37    1
    41     7    38    1
    42    15    39    1
    43    16    40    1
    44    20    41    1
    45    21    42    1
    46    22    43    1
    47    23    44    1
    48    24    45    1
    49    25    46    1
    50    26    47    1
    51    27    48    1
    52    27    49    1
    53    28    50    1
    54    28    51    1
