REMARK  5 active torsions:
REMARK  status: ('A' for Active; 'I' for Inactive)
REMARK    1  A    between atoms: S_2  and  C_3 
REMARK    2  A    between atoms: C_8  and  N_9 
REMARK       I    between atoms: N_9  and  C_10 
REMARK    3  A    between atoms: C_12  and  C_10 
REMARK    4  A    between atoms: C_12  and  N_14 
REMARK       I    between atoms: N_14  and  C_15 
REMARK    5  A    between atoms: C_15  and  C_17 
ROOT
ATOM      1  C   UNL d   1       2.545   2.278  -2.880  0.00  0.00     0.173 C 
ATOM      2  C   UNL d   1       2.667   1.772  -1.440  0.00  0.00     0.042 C 
ENDROOT
BRANCH   1   3
ATOM      3  N   UNL d   1       2.617   1.196  -3.865  0.00  0.00    -0.344 N 
ATOM      4  C   UNL d   1       2.266   1.411  -5.189  0.00  0.00     0.254 C 
ATOM      5  O   UNL d   1       2.069   2.510  -5.690  0.00  0.00    -0.268 OA
ATOM      6  H   UNL d   1       2.557   0.246  -3.525  0.00  0.00     0.163 HD
BRANCH   4   7
ATOM      7  C   UNL d   1       2.128   0.212  -6.051  0.00  0.00     0.053 A 
ATOM      8  C   UNL d   1       2.706   0.232  -7.336  0.00  0.00     0.019 A 
ATOM      9  C   UNL d   1       2.488  -0.826  -8.225  0.00  0.00     0.001 A 
ATOM     10  C   UNL d   1       1.726  -1.922  -7.824  0.00  0.00     0.002 A 
ATOM     11  C   UNL d   1       1.159  -1.948  -6.550  0.00  0.00     0.025 A 
ATOM     12  C   UNL d   1       1.349  -0.883  -5.666  0.00  0.00     0.049 A 
ATOM     13 CL   UNL d   1       0.554  -0.987  -4.133  0.00  0.00    -0.083 Cl
ENDBRANCH   4   7
ENDBRANCH   1   3
BRANCH   1  14
ATOM     14  C   UNL d   1       3.664   3.293  -3.144  0.00  0.00     0.244 C 
ATOM     15  N   UNL d   1       4.926   2.828  -2.802  0.00  0.00    -0.324 N 
ATOM     16  H   UNL d   1       4.955   2.091  -2.114  0.00  0.00     0.169 HD
ATOM     17  O   UNL d   1       3.380   4.403  -3.586  0.00  0.00    -0.271 OA
BRANCH  15  18
ATOM     18  C   UNL d   1       6.178   3.415  -3.065  0.00  0.00     0.051 C 
ATOM     19  C   UNL d   1       7.234   2.946  -2.249  0.00  0.00     0.031 C 
ATOM     20  C   UNL d   1       8.527   3.446  -2.390  0.00  0.00     0.002 C 
ATOM     21  C   UNL d   1       8.768   4.457  -3.308  0.00  0.00     0.002 C 
ATOM     22  C   UNL d   1       7.728   4.947  -4.092  0.00  0.00     0.021 C 
ATOM     23  C   UNL d   1       6.454   4.369  -4.060  0.00  0.00     0.026 C 
BRANCH  23  24
ATOM     24  S   UNL d   1       5.449   4.863  -5.459  0.00  0.00    -0.132 SA
ATOM     25  C   UNL d   1       5.112   3.255  -6.225  0.00  0.00     0.095 C 
ENDBRANCH  23  24
ENDBRANCH  15  18
ENDBRANCH   1  14
TORSDOF 5
