@<TRIPOS>MOLECULE
*****
 49 52 0 0 0
SMALL
GASTEIGER

@<TRIPOS>ATOM
      1 C           1.0116   -0.0244    0.0486 C.3     1  UNL1        0.0820
      2 O           2.4472   -0.0286    0.0643 O.3     1  UNL1       -0.4644
      3 C           2.9998    0.9540    0.8200 C.2     1  UNL1        0.3390
      4 O           2.3858    1.8083    1.4520 O.2     1  UNL1       -0.2450
      5 C           4.4835    0.9068    0.7922 C.ar    1  UNL1        0.0607
      6 C           5.2358    1.2326    1.9165 C.ar    1  UNL1       -0.0477
      7 C           6.6236    1.3873    1.8033 C.ar    1  UNL1       -0.0592
      8 C           7.2756    1.1595    0.5802 C.ar    1  UNL1       -0.0404
      9 C           6.5319    0.8113   -0.5520 C.ar    1  UNL1        0.0355
     10 N           7.1937    0.6477   -1.8056 N.am    1  UNL1       -0.2693
     11 C           6.5219    0.5089   -2.9975 C.2     1  UNL1        0.3073
     12 O           5.3039    0.4315   -3.0934 O.2     1  UNL1       -0.2523
     13 N           7.2985    0.4956   -4.1578 N.am    1  UNL1       -0.2701
     14 C           8.4472   -0.4148   -4.2084 C.3     1  UNL1        0.0247
     15 C           9.1925   -0.6337   -5.5376 C.3     1  UNL1        0.0290
     16 C           8.5655    0.0600   -6.6603 C.ar    1  UNL1        0.1484
     17 N           8.9519    0.0522   -7.9860 N.ar    1  UNL1       -0.2470
     18 C           8.1054    0.7740   -8.7291 C.ar    1  UNL1        0.2428
     19 N           7.1717    1.2371   -7.8926 N.ar    1  UNL1       -0.2454
     20 C           7.4344    0.8207   -6.5912 C.ar    1  UNL1        0.1699
     21 C           6.5881    0.9567   -5.3791 C.3     1  UNL1        0.1207
     22 C           5.2889    0.2447   -5.6645 C.ar    1  UNL1        0.0193
     23 C           5.2372   -1.1172   -6.0076 C.ar    1  UNL1       -0.0507
     24 C           4.0172   -1.6923   -6.3405 C.ar    1  UNL1       -0.0231
     25 C           2.8461   -0.9480   -6.2051 C.ar    1  UNL1        0.1613
     26 F           1.6755   -1.5351   -6.4770 F       1  UNL1       -0.2024
     27 C           2.8803    0.3781   -5.7963 C.ar    1  UNL1        0.1937
     28 F           1.7538    1.0932   -5.6911 F       1  UNL1       -0.1994
     29 C           4.0991    0.9748   -5.5443 C.ar    1  UNL1        0.1666
     30 F           4.1532    2.2585   -5.1567 F       1  UNL1       -0.2020
     31 C           5.1388    0.6882   -0.4168 C.ar    1  UNL1       -0.0265
     32 H           0.6640   -0.8768   -0.5447 H       1  UNL1        0.0661
     33 H           0.6306    0.8911   -0.4169 H       1  UNL1        0.0661
     34 H           0.6137   -0.1329    1.0629 H       1  UNL1        0.0661
     35 H           4.7420    1.3802    2.8737 H       1  UNL1        0.0626
     36 H           7.1935    1.7147    2.6713 H       1  UNL1        0.0618
     37 H           8.3568    1.2746    0.5427 H       1  UNL1        0.0636
     38 H           8.1804    0.8580   -1.8284 H       1  UNL1        0.1564
     39 H           8.1168   -1.3840   -3.8107 H       1  UNL1        0.0470
     40 H           9.1716   -0.0201   -3.4898 H       1  UNL1        0.0470
     41 H           9.2474   -1.7050   -5.7579 H       1  UNL1        0.0365
     42 H          10.2088   -0.2458   -5.4413 H       1  UNL1        0.0365
     43 H           9.7642   -0.4354   -8.3596 H       1  UNL1        0.3104
     44 H           8.1606    0.9390   -9.7996 H       1  UNL1        0.1581
     45 H           6.3628    1.7867   -8.1841 H       1  UNL1        0.3105
     46 H           6.4320    2.0327   -5.2281 H       1  UNL1        0.0640
     47 H           6.1313   -1.7367   -6.0071 H       1  UNL1        0.0623
     48 H           3.9679   -2.7171   -6.6966 H       1  UNL1        0.0647
     49 H           4.4907    0.4595   -1.2498 H       1  UNL1        0.0644
@<TRIPOS>UNITY_ATOM_ATTR
19 1
charge 1
@<TRIPOS>BOND
     1     1     2    1
     2     2     3    1
     3     3     4    2
     4     3     5    1
     5     5     6   ar
     6     6     7   ar
     7     7     8   ar
     8     8     9   ar
     9     9    10    1
    10    10    11   am
    11    11    12    2
    12    11    13   am
    13    13    14    1
    14    14    15    1
    15    15    16    1
    16    16    17   ar
    17    17    18   ar
    18    18    19   ar
    19    19    20   ar
    20    16    20   ar
    21    20    21    1
    22    13    21    1
    23    22    23   ar
    24    23    24   ar
    25    24    25   ar
    26    25    26    1
    27    25    27   ar
    28    27    28    1
    29    27    29   ar
    30    22    29   ar
    31    29    30    1
    32     9    31   ar
    33     5    31   ar
    34    21    22    1
    35     1    32    1
    36     1    33    1
    37     1    34    1
    38     6    35    1
    39     7    36    1
    40     8    37    1
    41    10    38    1
    42    14    39    1
    43    14    40    1
    44    15    41    1
    45    15    42    1
    46    17    43    1
    47    18    44    1
    48    19    45    1
    49    21    46    1
    50    23    47    1
    51    24    48    1
    52    31    49    1
