@<TRIPOS>MOLECULE
*****
 53 54 0 0 0
SMALL
GASTEIGER

@<TRIPOS>ATOM
      1 C           1.0151   -0.0941   -0.0616 C.3     1  UNL1       -0.0648
      2 C           2.5318   -0.1125   -0.0576 C.3     1  UNL1       -0.0476
      3 C           3.1180   -1.5168    0.1701 C.3     1  UNL1        0.0240
      4 C           4.6425   -1.4423    0.1610 C.2     1  UNL1        0.2172
      5 O           5.2149   -0.3654   -0.0049 O.2     1  UNL1       -0.2755
      6 N           5.3156   -2.6509    0.3109 N.am    1  UNL1       -0.2855
      7 C           6.7351   -2.7159    0.3846 C.ar    1  UNL1        0.0334
      8 C           7.4539   -3.7600   -0.2000 C.ar    1  UNL1       -0.0398
      9 C           8.8676   -3.8140   -0.0743 C.ar    1  UNL1       -0.0478
     10 C           9.5952   -2.8108    0.6037 C.ar    1  UNL1        0.0383
     11 C          11.1230   -2.8431    0.6064 C.2     1  UNL1        0.2601
     12 O          11.7244   -3.7522    0.0381 O.2     1  UNL1       -0.2687
     13 N          11.7972   -1.8038    1.2438 N.am    1  UNL1       -0.2311
     14 N          13.2494   -1.7010    1.2759 N.am    1  UNL1       -0.2453
     15 C          13.8285   -0.6107    1.9574 C.2     1  UNL1        0.1533
     16 S          12.8235    0.5378    2.6856 S.2     1  UNL1       -0.0170
     17 N          15.2444   -0.5734    1.9700 N.am    1  UNL1       -0.2627
     18 C          16.0481    0.3883    2.6291 C.2     1  UNL1        0.2496
     19 O          15.6228    1.3400    3.2795 O.2     1  UNL1       -0.2698
     20 C          17.5407    0.3204    2.5655 C.ar    1  UNL1        0.0378
     21 C          18.2674    0.7209    3.7097 C.ar    1  UNL1       -0.0496
     22 C          19.6486    0.9302    3.6515 C.ar    1  UNL1       -0.0603
     23 C          20.3296    0.6881    2.4609 C.ar    1  UNL1       -0.0477
     24 C          19.6247    0.2988    1.3081 C.ar    1  UNL1        0.0597
     25 C          20.4004    0.1462    0.0434 C.2     1  UNL1        0.3389
     26 O          21.6172    0.2936   -0.0230 O.2     1  UNL1       -0.2450
     27 O          19.5884   -0.1677   -0.9946 O.3     1  UNL1       -0.4645
     28 C          20.2677   -0.3288   -2.2453 C.3     1  UNL1        0.0820
     29 C          18.2251    0.1207    1.3629 C.ar    1  UNL1       -0.0356
     30 C           8.8525   -1.7936    1.2111 C.ar    1  UNL1       -0.0478
     31 C           7.4509   -1.7470    1.0924 C.ar    1  UNL1       -0.0398
     32 H           0.6514    0.9262   -0.2282 H       1  UNL1        0.0230
     33 H           0.6178   -0.4426    0.8958 H       1  UNL1        0.0230
     34 H           0.6190   -0.7285   -0.8595 H       1  UNL1        0.0230
     35 H           2.8922    0.5719    0.7215 H       1  UNL1        0.0267
     36 H           2.8927    0.2885   -1.0138 H       1  UNL1        0.0267
     37 H           2.7770   -2.1929   -0.6214 H       1  UNL1        0.0358
     38 H           2.7776   -1.9070    1.1359 H       1  UNL1        0.0358
     39 H           4.8001   -3.5193    0.2311 H       1  UNL1        0.1548
     40 H           6.9525   -4.4975   -0.8252 H       1  UNL1        0.0636
     41 H           9.3989   -4.6509   -0.5275 H       1  UNL1        0.0626
     42 H          11.3219   -1.0259    1.6954 H       1  UNL1        0.1731
     43 H          13.7425   -2.4504    0.7947 H       1  UNL1        0.1718
     44 H          15.7322   -1.3277    1.5092 H       1  UNL1        0.1569
     45 H          17.7501    0.9173    4.6502 H       1  UNL1        0.0625
     46 H          20.1864    1.3134    4.5187 H       1  UNL1        0.0618
     47 H          21.4111    0.8272    2.4308 H       1  UNL1        0.0626
     48 H          19.5241   -0.5794   -3.0075 H       1  UNL1        0.0661
     49 H          20.9895   -1.1497   -2.1870 H       1  UNL1        0.0661
     50 H          20.7634    0.6015   -2.5421 H       1  UNL1        0.0661
     51 H          17.6707   -0.0990    0.4576 H       1  UNL1        0.0633
     52 H           9.3132   -1.0055    1.7945 H       1  UNL1        0.0626
     53 H           6.9192   -0.9368    1.5880 H       1  UNL1        0.0636
@<TRIPOS>BOND
     1     1     2    1
     2     2     3    1
     3     3     4    1
     4     4     5    2
     5     4     6   am
     6     6     7    1
     7     7     8   ar
     8     8     9   ar
     9     9    10   ar
    10    10    11    1
    11    11    12    2
    12    11    13   am
    13    13    14    1
    14    14    15    1
    15    15    16    2
    16    15    17    1
    17    17    18   am
    18    18    19    2
    19    18    20    1
    20    20    21   ar
    21    21    22   ar
    22    22    23   ar
    23    23    24   ar
    24    24    25    1
    25    25    26    2
    26    25    27    1
    27    27    28    1
    28    24    29   ar
    29    20    29   ar
    30    10    30   ar
    31    30    31   ar
    32     7    31   ar
    33     1    32    1
    34     1    33    1
    35     1    34    1
    36     2    35    1
    37     2    36    1
    38     3    37    1
    39     3    38    1
    40     6    39    1
    41     8    40    1
    42     9    41    1
    43    13    42    1
    44    14    43    1
    45    17    44    1
    46    21    45    1
    47    22    46    1
    48    23    47    1
    49    28    48    1
    50    28    49    1
    51    28    50    1
    52    29    51    1
    53    30    52    1
    54    31    53    1
