REMARK  5 active torsions:
REMARK  status: ('A' for Active; 'I' for Inactive)
REMARK    1  A    between atoms: C_2  and  N_4 
REMARK       I    between atoms: N_4  and  C_5 
REMARK    2  A    between atoms: C_5  and  C_7 
REMARK    3  A    between atoms: C_7  and  C_8 
REMARK    4  A    between atoms: C_8  and  C_9 
REMARK    5  A    between atoms: C_13  and  N_14 
ROOT
ATOM      1  C   UNL d   1       7.008   1.187  -4.420  0.00  0.00    -0.056 A 
ATOM      2  C   UNL d   1       7.005   2.519  -4.848  0.00  0.00     0.007 A 
ATOM      3  C   UNL d   1       7.399   2.835  -6.145  0.00  0.00     0.003 A 
ATOM      4  C   UNL d   1       7.803   1.823  -7.018  0.00  0.00     0.029 A 
ATOM      5  C   UNL d   1       7.863   0.492  -6.596  0.00  0.00     0.026 A 
ATOM      6  C   UNL d   1       7.444   0.184  -5.299  0.00  0.00     0.036 A 
ENDROOT
BRANCH   1   7
ATOM      7  C   UNL d   1       6.501   0.836  -3.046  0.00  0.00     0.048 C 
BRANCH   7   8
ATOM      8  C   UNL d   1       4.967   0.825  -2.983  0.00  0.00     0.107 C 
BRANCH   8   9
ATOM      9  C   UNL d   1       4.519   0.506  -1.574  0.00  0.00     0.218 C 
ATOM     10  N   UNL d   1       3.155   0.398  -1.390  0.00  0.00    -0.357 N 
ATOM     11  H   UNL d   1       2.526   0.600  -2.158  0.00  0.00     0.162 HD
ATOM     12  O   UNL d   1       5.325   0.349  -0.654  0.00  0.00    -0.274 OA
BRANCH  10  13
ATOM     13  C   UNL d   1       2.602   0.062  -0.077  0.00  0.00     0.076 C 
ATOM     14  C   UNL d   1       1.074   0.101  -0.071  0.00  0.00     0.032 C 
ATOM     15  C   UNL d   1       3.062  -1.327   0.373  0.00  0.00     0.032 C 
ENDBRANCH  10  13
ENDBRANCH   8   9
ENDBRANCH   7   8
ENDBRANCH   1   7
BRANCH   5  16
ATOM     16  N   UNL d   1       8.127  -0.524  -7.510  0.00  0.00    -0.399 N 
ATOM     17  H   UNL d   1       8.586  -0.272  -8.377  0.00  0.00     0.156 HD
ATOM     18  H   UNL d   1       8.340  -1.444  -7.145  0.00  0.00     0.156 HD
ENDBRANCH   5  16
TORSDOF 5
