REMARK  6 active torsions:
REMARK  status: ('A' for Active; 'I' for Inactive)
REMARK    1  A    between atoms: C_4  and  C_2 
REMARK    2  A    between atoms: C_4  and  C_9 
REMARK    3  A    between atoms: C_4  and  N_5 
REMARK       I    between atoms: N_5  and  C_6 
REMARK       I    between atoms: C_6  and  N_7 
REMARK       I    between atoms: C_9  and  N_11 
REMARK    4  A    between atoms: N_11  and  N_12 
REMARK       I    between atoms: N_12  and  C_13 
REMARK    5  A    between atoms: C_13  and  C_15 
REMARK    6  A    between atoms: C_19  and  N_20 
ROOT
ATOM      1  C   UNL d   1       4.790   1.143  -0.919  0.00  0.00     0.259 C 
ATOM      2  O   UNL d   1       5.497   0.501  -0.134  0.00  0.00    -0.269 OA
ATOM      3  N   UNL d   1       5.398   1.902  -1.892  0.00  0.00    -0.265 N 
ATOM      4  H   UNL d   1       4.934   2.480  -2.587  0.00  0.00     0.190 HD
ENDROOT
BRANCH   3   5
ATOM      5  N   UNL d   1       6.808   1.890  -1.942  0.00  0.00    -0.263 N 
ATOM      6  C   UNL d   1       7.449   2.818  -2.739  0.00  0.00     0.270 C 
ATOM      7  O   UNL d   1       6.836   3.614  -3.447  0.00  0.00    -0.266 OA
ATOM      8  H   UNL d   1       7.279   1.294  -1.260  0.00  0.00     0.190 HD
BRANCH   6   9
ATOM      9  C   UNL d   1       8.938   2.804  -2.733  0.00  0.00     0.035 A 
ATOM     10  C   UNL d   1       9.641   4.002  -2.827  0.00  0.00     0.017 A 
ATOM     11  C   UNL d   1      11.019   3.968  -2.999  0.00  0.00     0.003 A 
ATOM     12  C   UNL d   1      11.697   2.744  -3.021  0.00  0.00     0.029 A 
ATOM     13  C   UNL d   1      11.034   1.508  -2.933  0.00  0.00     0.030 A 
ATOM     14  C   UNL d   1       9.634   1.586  -2.779  0.00  0.00     0.046 A 
BRANCH  13  15
ATOM     15  N   UNL d   1      11.704   0.296  -3.016  0.00  0.00    -0.390 N 
ATOM     16  C   UNL d   1      13.152   0.193  -3.220  0.00  0.00     0.149 C 
ATOM     17  C   UNL d   1      11.012  -0.993  -3.006  0.00  0.00     0.149 C 
ENDBRANCH  13  15
ENDBRANCH   6   9
ENDBRANCH   3   5
BRANCH   1  18
ATOM     18  C   UNL d   1       3.231   1.010  -0.971  0.00  0.00     0.183 C 
BRANCH  18  19
ATOM     19  N   UNL d   1       2.822  -0.102  -0.093  0.00  0.00    -0.330 N 
ATOM     20  C   UNL d   1       3.276  -1.379  -0.108  0.00  0.00     0.314 C 
ATOM     21  N   UNL d   1       4.097  -1.741  -1.117  0.00  0.00    -0.352 N 
ATOM     22  O   UNL d   1       2.950  -2.184   0.764  0.00  0.00    -0.248 OA
ATOM     23  H   UNL d   1       4.616  -1.035  -1.610  0.00  0.00     0.160 HD
ATOM     24  H   UNL d   1       4.665  -2.549  -0.896  0.00  0.00     0.160 HD
ATOM     25  H   UNL d   1       2.075   0.037   0.578  0.00  0.00     0.165 HD
ENDBRANCH  18  19
BRANCH  18  26
ATOM     26  C   UNL d   1       2.464   2.310  -0.608  0.00  0.00     0.009 C 
ATOM     27  C   UNL d   1       2.324   3.238  -1.817  0.00  0.00     0.012 C 
ATOM     28  C   UNL d   1       2.999   3.105   0.588  0.00  0.00     0.012 C 
ENDBRANCH  18  26
ENDBRANCH   1  18
TORSDOF 6
