@<TRIPOS>MOLECULE
*****
 44 44 0 0 0
SMALL
GASTEIGER

@<TRIPOS>ATOM
      1 C           0.9627   -0.0706    0.0225 C.3     1  UNL1       -0.0612
      2 C           2.5007   -0.0445    0.0193 C.3     1  UNL1       -0.0311
      3 C           2.9689    0.9137   -1.0761 C.3     1  UNL1       -0.0612
      4 C           3.0596    0.3668    1.4016 C.3     1  UNL1        0.0154
      5 N           4.5263    0.3744    1.4984 N.am    1  UNL1       -0.2980
      6 C           5.1785    0.7529    2.6567 C.2     1  UNL1        0.3160
      7 O           4.5841    1.0847    3.6836 O.2     1  UNL1       -0.2513
      8 N           6.5632    0.7296    2.5819 N.am    1  UNL1       -0.2182
      9 N           7.3462    1.0973    3.7298 N.am    1  UNL1       -0.2332
     10 C           8.7344    1.0729    3.6522 C.2     1  UNL1        0.2292
     11 O           9.3147    0.7474    2.6155 O.2     1  UNL1       -0.2743
     12 C           9.4952    1.4735    4.9333 C.3     1  UNL1        0.0285
     13 C          11.0295    1.4230    4.7520 C.3     1  UNL1       -0.0103
     14 C          11.8238    1.8117    6.0109 C.3     1  UNL1        0.0900
     15 O          13.2314    1.7654    5.7108 O.3     1  UNL1       -0.4919
     16 C          14.0733    2.0511    6.7574 C.ar    1  UNL1        0.1232
     17 C          13.9019    1.5572    8.0538 C.ar    1  UNL1       -0.0198
     18 C          14.8316    1.8560    9.0586 C.ar    1  UNL1       -0.0556
     19 C          15.9419    2.6455    8.7701 C.ar    1  UNL1       -0.0262
     20 C          16.1220    3.1136    7.4742 C.ar    1  UNL1        0.1269
     21 F          17.1963    3.8650    7.1951 F       1  UNL1       -0.2054
     22 C          15.2075    2.8136    6.4652 C.ar    1  UNL1        0.0153
     23 H           0.5734   -0.3805   -0.9558 H       1  UNL1        0.0233
     24 H           0.5469    0.9201    0.2396 H       1  UNL1        0.0233
     25 H           0.5739   -0.7720    0.7675 H       1  UNL1        0.0233
     26 H           2.8538   -1.0545   -0.2255 H       1  UNL1        0.0311
     27 H           2.6151    1.9316   -0.8800 H       1  UNL1        0.0233
     28 H           2.5861    0.6065   -2.0558 H       1  UNL1        0.0233
     29 H           4.0597    0.9376   -1.1415 H       1  UNL1        0.0233
     30 H           2.6828   -0.3219    2.1679 H       1  UNL1        0.0465
     31 H           2.6986    1.3684    1.6653 H       1  UNL1        0.0465
     32 H           5.0681    0.1172    0.6867 H       1  UNL1        0.1503
     33 H           7.0860    0.4774    1.7480 H       1  UNL1        0.1744
     34 H           6.8170    1.3559    4.5609 H       1  UNL1        0.1728
     35 H           9.2054    0.7957    5.7451 H       1  UNL1        0.0360
     36 H           9.2010    2.4902    5.2191 H       1  UNL1        0.0360
     37 H          11.3313    2.0787    3.9257 H       1  UNL1        0.0302
     38 H          11.3336    0.4130    4.4469 H       1  UNL1        0.0302
     39 H          11.5703    1.1104    6.8113 H       1  UNL1        0.0696
     40 H          11.5646    2.8313    6.3185 H       1  UNL1        0.0696
     41 H          13.0694    0.9087    8.3036 H       1  UNL1        0.0654
     42 H          14.6925    1.4619   10.0623 H       1  UNL1        0.0620
     43 H          16.6692    2.8882    9.5391 H       1  UNL1        0.0646
     44 H          15.3871    3.1846    5.4615 H       1  UNL1        0.0683
@<TRIPOS>BOND
     1     1     2    1
     2     2     3    1
     3     2     4    1
     4     4     5    1
     5     5     6   am
     6     6     7    2
     7     6     8   am
     8     8     9    1
     9     9    10   am
    10    10    11    2
    11    10    12    1
    12    12    13    1
    13    13    14    1
    14    14    15    1
    15    15    16    1
    16    16    17   ar
    17    17    18   ar
    18    18    19   ar
    19    19    20   ar
    20    20    21    1
    21    20    22   ar
    22    16    22   ar
    23     1    23    1
    24     1    24    1
    25     1    25    1
    26     2    26    1
    27     3    27    1
    28     3    28    1
    29     3    29    1
    30     4    30    1
    31     4    31    1
    32     5    32    1
    33     8    33    1
    34     9    34    1
    35    12    35    1
    36    12    36    1
    37    13    37    1
    38    13    38    1
    39    14    39    1
    40    14    40    1
    41    17    41    1
    42    18    42    1
    43    19    43    1
    44    22    44    1
