REMARK  6 active torsions:
REMARK  status: ('A' for Active; 'I' for Inactive)
REMARK       I    between atoms: C_2  and  N_3 
REMARK    1  A    between atoms: C_2  and  C_30 
REMARK    2  A    between atoms: N_3  and  N_4 
REMARK    3  A    between atoms: N_12  and  N_13 
REMARK       I    between atoms: N_13  and  C_14 
REMARK    4  A    between atoms: C_14  and  C_16 
REMARK    5  A    between atoms: C_19  and  O_20 
REMARK    6  A    between atoms: C_33  and  O_34 
ROOT
ATOM      1  N   UNL d   1       2.192  -0.379   2.555  0.00  0.00    -0.179 N 
ATOM      2  C   UNL d   1       2.353   0.130   3.864  0.00  0.00     0.280 A 
ATOM      3  O   UNL d   1       3.203   0.900   4.274  0.00  0.00    -0.265 OA
ATOM      4  C   UNL d   1       1.253  -0.515   4.754  0.00  0.00     0.051 A 
ATOM      5  C   UNL d   1       0.741  -0.488   6.126  0.00  0.00     0.036 A 
ATOM      6  C   UNL d   1      -0.398  -1.318   6.474  0.00  0.00     0.051 A 
ATOM      7  C   UNL d   1      -1.355  -1.698   7.660  0.00  0.00     0.280 A 
ATOM      8  O   UNL d   1      -1.274  -1.242   8.787  0.00  0.00    -0.265 OA
ATOM      9  N   UNL d   1      -2.293  -2.645   7.156  0.00  0.00    -0.179 N 
ATOM     10  C   UNL d   1      -2.035  -2.877   5.853  0.00  0.00     0.280 A 
ATOM     11  O   UNL d   1      -2.526  -3.570   4.976  0.00  0.00    -0.265 OA
ATOM     12  C   UNL d   1      -0.909  -2.089   5.456  0.00  0.00     0.051 A 
ATOM     13  C   UNL d   1      -0.438  -2.141   4.163  0.00  0.00     0.036 A 
ATOM     14  C   UNL d   1       0.630  -1.355   3.850  0.00  0.00     0.051 A 
ATOM     15  C   UNL d   1       1.226  -1.333   2.528  0.00  0.00     0.280 A 
ATOM     16  O   UNL d   1       0.887  -2.117   1.662  0.00  0.00    -0.265 OA
ENDROOT
BRANCH   1  17
ATOM     17  N   UNL d   1       2.965  -0.085   1.325  0.00  0.00    -0.253 N 
ATOM     18  C   UNL d   1       2.283   0.064   0.090  0.00  0.00     0.270 C 
ATOM     19  O   UNL d   1       1.057   0.149   0.012  0.00  0.00    -0.266 OA
ATOM     20  H   UNL d   1       3.962  -0.261   1.354  0.00  0.00     0.191 HD
BRANCH  18  21
ATOM     21  C   UNL d   1       3.049   0.188  -1.224  0.00  0.00     0.033 A 
ATOM     22  C   UNL d   1       2.578   1.107  -2.195  0.00  0.00     0.020 A 
ATOM     23  C   UNL d   1       3.102   1.154  -3.506  0.00  0.00     0.037 A 
ATOM     24  C   UNL d   1       4.170   0.337  -3.839  0.00  0.00     0.065 A 
ATOM     25  C   UNL d   1       4.713  -0.511  -2.876  0.00  0.00     0.037 A 
ATOM     26  C   UNL d   1       4.118  -0.635  -1.597  0.00  0.00     0.020 A 
BRANCH  24  27
ATOM     27  O   UNL d   1       4.712   0.322  -5.092  0.00  0.00    -0.361 OA
ATOM     28  H   UNL d   1       4.169   0.856  -5.698  0.00  0.00     0.217 HD
ENDBRANCH  24  27
ENDBRANCH  18  21
ENDBRANCH   1  17
BRANCH   9  29
ATOM     29  N   UNL d   1      -3.455  -3.307   7.853  0.00  0.00    -0.253 N 
ATOM     30  C   UNL d   1      -4.293  -4.274   7.209  0.00  0.00     0.270 C 
ATOM     31  O   UNL d   1      -4.224  -4.676   6.055  0.00  0.00    -0.266 OA
ATOM     32  H   UNL d   1      -3.548  -3.122   8.847  0.00  0.00     0.191 HD
BRANCH  30  33
ATOM     33  C   UNL d   1      -5.409  -4.949   7.943  0.00  0.00     0.033 C 
ATOM     34  C   UNL d   1      -6.268  -4.245   8.779  0.00  0.00     0.020 C 
ATOM     35  C   UNL d   1      -7.259  -4.928   9.505  0.00  0.00     0.037 C 
ATOM     36  C   UNL d   1      -7.488  -6.284   9.280  0.00  0.00     0.065 C 
ATOM     37  C   UNL d   1      -6.777  -6.959   8.300  0.00  0.00     0.037 C 
ATOM     38  C   UNL d   1      -5.712  -6.307   7.663  0.00  0.00     0.020 C 
BRANCH  36  39
ATOM     39  O   UNL d   1      -8.406  -6.988  10.002  0.00  0.00    -0.361 OA
ATOM     40  H   UNL d   1      -8.737  -6.435  10.729  0.00  0.00     0.217 HD
ENDBRANCH  36  39
ENDBRANCH  30  33
ENDBRANCH   9  29
TORSDOF 6
