@<TRIPOS>MOLECULE
*****
 55 60 0 0 0
SMALL
GASTEIGER

@<TRIPOS>ATOM
      1 O          -4.9564   -9.2744    3.9514 O.2     1  UNL1       -0.2737
      2 C          -4.7203   -8.0787    4.0340 C.2     1  UNL1        0.2350
      3 C          -3.5937   -7.4143    3.2430 C.3     1  UNL1        0.0964
      4 N          -3.8334   -5.9846    2.9899 N.am    1  UNL1       -0.2602
      5 C          -3.8237   -5.3628    1.7289 C.2     1  UNL1        0.2303
      6 O          -4.1123   -4.1755    1.5667 O.2     1  UNL1       -0.2743
      7 C          -3.4637   -6.2432    0.5135 C.3     1  UNL1        0.0761
      8 S          -3.7570   -5.3909   -1.1062 S.3     1  UNL1       -0.0827
      9 C          -2.7744   -6.3253   -2.2944 C.3     1  UNL1        0.2383
     10 N          -2.7916   -7.7643   -2.0341 N.pl3   1  UNL1       -0.1245
     11 N          -3.1213   -8.5413   -3.1064 N.2     1  UNL1        0.0444
     12 C          -3.2735   -7.7244   -4.0921 C.2     1  UNL1        0.3482
     13 C          -3.3691   -8.1144   -5.5010 C.2     1  UNL1        0.1224
     14 C          -2.4845   -7.8025   -6.4566 C.ar    1  UNL1        0.0627
     15 C          -1.3014   -7.0089   -6.5135 C.ar    1  UNL1       -0.0476
     16 C          -0.6560   -6.8931   -7.6851 C.ar    1  UNL1       -0.0608
     17 C          -1.1127   -7.5741   -8.8872 C.ar    1  UNL1       -0.0555
     18 C          -2.1847   -8.3892   -8.9142 C.ar    1  UNL1        0.0098
     19 C          -2.9299   -8.5637   -7.6503 C.ar    1  UNL1        0.2091
     20 N          -3.9508   -9.2930   -7.4016 N.2     1  UNL1       -0.2363
     21 C          -4.3415   -9.1467   -5.9758 C.3     1  UNL1        0.1772
     22 N          -3.2469   -6.3394   -3.7145 N.pl3   1  UNL1       -0.1853
     23 C          -3.7319   -5.2464   -4.5267 C.3     1  UNL1        0.0944
     24 C          -3.9899   -3.8572   -3.9958 C.3     1  UNL1       -0.0100
     25 C          -2.8641   -4.0814   -4.9435 C.3     1  UNL1       -0.0100
     26 C          -4.2208   -5.2677    4.1740 C.ar    1  UNL1        0.0580
     27 C          -3.8805   -3.9309    4.3870 C.ar    1  UNL1       -0.0385
     28 C          -4.2965   -3.2730    5.5482 C.ar    1  UNL1       -0.0599
     29 C          -5.0779   -3.9361    6.4942 C.ar    1  UNL1       -0.0599
     30 C          -5.4267   -5.2716    6.2985 C.ar    1  UNL1       -0.0387
     31 C          -4.9787   -5.9395    5.1568 C.ar    1  UNL1        0.0551
     32 N          -5.3241   -7.2864    4.9795 N.am    1  UNL1       -0.2827
     33 H          -3.4406   -7.9723    2.3201 H       1  UNL1        0.0564
     34 H          -2.6744   -7.4887    3.8401 H       1  UNL1        0.0564
     35 H          -4.1544   -7.0893    0.5021 H       1  UNL1        0.0473
     36 H          -2.4264   -6.5759    0.6130 H       1  UNL1        0.0473
     37 H          -1.7410   -5.9654   -2.3074 H       1  UNL1        0.1142
     38 H          -3.2374   -8.0334   -1.1630 H       1  UNL1        0.1999
     39 H          -0.9308   -6.5132   -5.6230 H       1  UNL1        0.0626
     40 H           0.2417   -6.2809   -7.7629 H       1  UNL1        0.0618
     41 H          -0.5239   -7.3992   -9.7894 H       1  UNL1        0.0620
     42 H          -2.4810   -8.8855   -9.8332 H       1  UNL1        0.0683
     43 H          -4.4069   -9.8750   -8.1062 H       1  UNL1        0.4460
     44 H          -4.2297  -10.1219   -5.4932 H       1  UNL1        0.1083
     45 H          -5.3715   -8.7876   -5.9398 H       1  UNL1        0.1083
     46 H          -4.3797   -5.5809   -5.3395 H       1  UNL1        0.0764
     47 H          -3.6981   -3.5457   -3.0036 H       1  UNL1        0.0306
     48 H          -4.8828   -3.3401   -4.3330 H       1  UNL1        0.0306
     49 H          -1.8544   -4.0032   -4.5632 H       1  UNL1        0.0306
     50 H          -2.9851   -3.6568   -5.9373 H       1  UNL1        0.0306
     51 H          -3.2621   -3.3896    3.6767 H       1  UNL1        0.0637
     52 H          -4.0091   -2.2367    5.7123 H       1  UNL1        0.0618
     53 H          -5.4083   -3.4106    7.3878 H       1  UNL1        0.0618
     54 H          -6.0241   -5.7787    7.0520 H       1  UNL1        0.0637
     55 H          -5.9921   -7.7330    5.5963 H       1  UNL1        0.1549
@<TRIPOS>UNITY_ATOM_ATTR
20 1
charge 1
@<TRIPOS>BOND
     1     1     2    2
     2     2     3    1
     3     3     4    1
     4     4     5   am
     5     5     6    2
     6     5     7    1
     7     7     8    1
     8     9    10    1
     9    10    11    1
    10    11    12    2
    11    12    13    1
    12    13    14    2
    13    14    15   ar
    14    15    16   ar
    15    16    17   ar
    16    17    18   ar
    17    18    19   ar
    18    14    19   ar
    19    19    20    2
    20    20    21    1
    21    13    21    1
    22    12    22    1
    23     9    22    1
    24    22    23    1
    25    23    24    1
    26    24    25    1
    27    23    25    1
    28     4    26    1
    29    26    27   ar
    30    27    28   ar
    31    28    29   ar
    32    29    30   ar
    33    30    31   ar
    34    26    31   ar
    35    31    32    1
    36     2    32   am
    37     9     8    1
    38     3    33    1
    39     3    34    1
    40     7    35    1
    41     7    36    1
    42     9    37    1
    43    10    38    1
    44    15    39    1
    45    16    40    1
    46    17    41    1
    47    18    42    1
    48    20    43    1
    49    21    44    1
    50    21    45    1
    51    23    46    1
    52    24    47    1
    53    24    48    1
    54    25    49    1
    55    25    50    1
    56    27    51    1
    57    28    52    1
    58    29    53    1
    59    30    54    1
    60    32    55    1
