@<TRIPOS>MOLECULE
*****
 52 53 0 0 0
SMALL
GASTEIGER

@<TRIPOS>ATOM
      1 O           0.9516    0.0744   -0.0814 O.2     1  UNL1        0.0414
      2 N           2.1860    0.0283   -0.1375 N.pl3   1  UNL1        0.0796
      3 O           2.8699   -0.9771   -0.3620 O.co2   1  UNL1       -0.5760
      4 C           2.9073    1.2640    0.1388 C.ar    1  UNL1        0.2732
      5 C           4.0592    1.5832   -0.5881 C.ar    1  UNL1        0.0163
      6 C           4.8118    2.7046   -0.2188 C.ar    1  UNL1       -0.0426
      7 C           4.3660    3.5352    0.8203 C.ar    1  UNL1        0.0384
      8 C           5.1184    4.7765    1.0822 C.2     1  UNL1        0.1715
      9 N           4.7664    5.6560    1.9530 N.2     1  UNL1       -0.2469
     10 C           5.4682    6.9264    2.2065 C.3     1  UNL1        0.1430
     11 C           4.7528    7.6800    3.3190 C.3     1  UNL1        0.0064
     12 C           5.4791    8.9902    3.5983 C.3     1  UNL1       -0.0471
     13 C           4.7904    9.7666    4.7102 C.3     1  UNL1       -0.0471
     14 C           5.5227   11.0743    4.9877 C.3     1  UNL1        0.0064
     15 C           4.8178   11.8253    6.1040 C.3     1  UNL1        0.1430
     16 N           5.5359   13.0811    6.3758 N.2     1  UNL1       -0.2469
     17 C           5.1957   13.9157    7.2922 C.2     1  UNL1        0.1718
     18 C           5.8872   15.1890    7.4965 C.ar    1  UNL1        0.0444
     19 C           6.0654   15.6621    8.7979 C.ar    1  UNL1       -0.0485
     20 C           6.5939   16.9401    8.9966 C.ar    1  UNL1       -0.0546
     21 C           6.9896   17.7214    7.9060 C.ar    1  UNL1        0.0156
     22 C           6.8118   17.2309    6.6081 C.ar    1  UNL1        0.2739
     23 N           7.1433   18.0639    5.4458 N.pl3   1  UNL1        0.0796
     24 O           7.6083   19.1850    5.6487 O.2     1  UNL1        0.0414
     25 O           6.9243   17.5661    4.3269 O.co2   1  UNL1       -0.5760
     26 C           6.2617   15.9616    6.3951 C.ar    1  UNL1        0.0283
     27 C           3.2037    3.2045    1.5349 C.ar    1  UNL1       -0.0426
     28 C           2.4712    2.0688    1.1932 C.ar    1  UNL1        0.0163
     29 H           4.3711    0.9690   -1.4331 H       1  UNL1        0.0685
     30 H           5.7411    2.9042   -0.7526 H       1  UNL1        0.0627
     31 H           6.0213    4.9961    0.4850 H       1  UNL1        0.1377
     32 H           3.9258    5.4913    2.5111 H       1  UNL1        0.4450
     33 H           5.4620    7.5018    1.2754 H       1  UNL1        0.1025
     34 H           6.4970    6.6860    2.4903 H       1  UNL1        0.1025
     35 H           4.7165    7.0739    4.2343 H       1  UNL1        0.0326
     36 H           3.7107    7.8864    3.0388 H       1  UNL1        0.0326
     37 H           5.5073    9.5982    2.6859 H       1  UNL1        0.0267
     38 H           6.5178    8.7819    3.8824 H       1  UNL1        0.0267
     39 H           4.7614    9.1593    5.6232 H       1  UNL1        0.0267
     40 H           3.7517    9.9772    4.4275 H       1  UNL1        0.0267
     41 H           5.5554   11.6829    4.0739 H       1  UNL1        0.0326
     42 H           6.5647   10.8651    5.2640 H       1  UNL1        0.0326
     43 H           4.8069   11.2419    7.0298 H       1  UNL1        0.1025
     44 H           3.7928   12.0844    5.8185 H       1  UNL1        0.1025
     45 H           6.3616   13.2944    5.8054 H       1  UNL1        0.4450
     46 H           4.3389   13.6573    7.9379 H       1  UNL1        0.1377
     47 H           5.8045   15.0600    9.6676 H       1  UNL1        0.0625
     48 H           6.6800   17.3443   10.0056 H       1  UNL1        0.0620
     49 H           7.4167   18.7076    8.0846 H       1  UNL1        0.0685
     50 H           6.0833   15.6177    5.3786 H       1  UNL1        0.0693
     51 H           2.8293    3.7860    2.3704 H       1  UNL1        0.0627
     52 H           1.5731    1.8133    1.7545 H       1  UNL1        0.0685
@<TRIPOS>UNITY_ATOM_ATTR
2 1
charge 1
3 1
charge -1
9 1
charge 1
16 1
charge 1
23 1
charge 1
25 1
charge -1
@<TRIPOS>BOND
     1     1     2    2
     2     2     3    1
     3     2     4    1
     4     4     5   ar
     5     5     6   ar
     6     6     7   ar
     7     7     8    1
     8     8     9    2
     9     9    10    1
    10    10    11    1
    11    11    12    1
    12    12    13    1
    13    13    14    1
    14    14    15    1
    15    15    16    1
    16    16    17    2
    17    17    18    1
    18    18    19   ar
    19    19    20   ar
    20    20    21   ar
    21    21    22   ar
    22    22    23    1
    23    23    24    2
    24    23    25    1
    25    22    26   ar
    26    18    26   ar
    27     7    27   ar
    28    27    28   ar
    29     4    28   ar
    30     5    29    1
    31     6    30    1
    32     8    31    1
    33     9    32    1
    34    10    33    1
    35    10    34    1
    36    11    35    1
    37    11    36    1
    38    12    37    1
    39    12    38    1
    40    13    39    1
    41    13    40    1
    42    14    41    1
    43    14    42    1
    44    15    43    1
    45    15    44    1
    46    16    45    1
    47    17    46    1
    48    19    47    1
    49    20    48    1
    50    21    49    1
    51    26    50    1
    52    27    51    1
    53    28    52    1
