@<TRIPOS>MOLECULE
*****
 47 50 0 0 0
SMALL
GASTEIGER

@<TRIPOS>ATOM
      1 N           4.4321   -0.5644   -2.5775 N.1     1  UNL1       -0.1957
      2 C           4.0791   -0.3728   -1.4768 C.1     1  UNL1        0.0762
      3 C           3.7300   -0.0505   -0.0847 C.3     1  UNL1        0.1335
      4 C           4.3704   -1.1202    0.7583 C.2     1  UNL1        0.2362
      5 O           3.7190   -1.9506    1.3822 O.2     1  UNL1       -0.2740
      6 N           5.7633   -1.0738    0.7229 N.am    1  UNL1       -0.2688
      7 C           6.4732    0.1163    0.7776 C.ar    1  UNL1        0.1375
      8 N           7.8399    0.0626    0.9589 N.ar    1  UNL1       -0.2003
      9 C           8.4825    1.1819    1.1705 C.ar    1  UNL1        0.2000
     10 N           9.8513    1.3024    1.3482 N.pl3   1  UNL1       -0.3010
     11 C          10.4824    1.8468    2.5582 C.3     1  UNL1        0.0148
     12 C          11.4605    2.9612    2.1679 C.3     1  UNL1       -0.0371
     13 C          12.4904    2.4739    1.1466 C.3     1  UNL1       -0.0502
     14 C          11.8021    1.7749   -0.0291 C.3     1  UNL1       -0.0371
     15 C          10.8195    0.6889    0.4420 C.3     1  UNL1        0.0148
     16 N           7.8181    2.3795    1.1829 N.ar    1  UNL1       -0.2946
     17 C           6.4874    2.5111    0.9717 C.ar    1  UNL1        0.2583
     18 O           5.9372    3.6058    0.9989 O.2     1  UNL1       -0.2674
     19 C           5.7692    1.2551    0.7194 C.ar    1  UNL1        0.0663
     20 C           4.2901    1.2829    0.4517 C.3     1  UNL1        0.0480
     21 C           3.8750    2.4468   -0.4319 C.ar    1  UNL1        0.0390
     22 C           4.3634    2.4462   -1.7586 C.ar    1  UNL1       -0.0515
     23 C           3.8580    3.2968   -2.7200 C.ar    1  UNL1       -0.0611
     24 C           3.2218    4.4432   -2.2971 C.ar    1  UNL1       -0.0553
     25 C           2.9057    4.6042   -0.9470 C.ar    1  UNL1        0.0159
     26 C           3.1159    3.5589   -0.0294 C.ar    1  UNL1        0.2769
     27 N           2.5256    3.7184    1.3196 N.pl3   1  UNL1        0.0799
     28 O           1.8980    4.7611    1.5486 O.2     1  UNL1        0.0415
     29 O           2.6130    2.7939    2.1356 O.co2   1  UNL1       -0.5760
     30 H           2.6356   -0.0637    0.0168 H       1  UNL1        0.0559
     31 H           6.2638   -1.9469    0.8293 H       1  UNL1        0.1563
     32 H          11.0438    1.0479    3.0629 H       1  UNL1        0.0464
     33 H           9.7479    2.2228    3.2773 H       1  UNL1        0.0464
     34 H          11.9809    3.3407    3.0554 H       1  UNL1        0.0280
     35 H          10.9008    3.7988    1.7352 H       1  UNL1        0.0280
     36 H          13.1945    1.7830    1.6275 H       1  UNL1        0.0266
     37 H          13.0840    3.3228    0.7836 H       1  UNL1        0.0266
     38 H          12.5610    1.3380   -0.6870 H       1  UNL1        0.0280
     39 H          11.2599    2.5301   -0.6124 H       1  UNL1        0.0280
     40 H          11.3730   -0.0993    0.9665 H       1  UNL1        0.0464
     41 H          10.3281    0.2385   -0.4249 H       1  UNL1        0.0464
     42 H           8.3270    3.2436    1.2675 H       1  UNL1        0.1716
     43 H           3.8708    1.3440    1.4520 H       1  UNL1        0.0420
     44 H           5.1453    1.7582   -2.0801 H       1  UNL1        0.0623
     45 H           4.0132    3.0749   -3.7725 H       1  UNL1        0.0618
     46 H           2.9979    5.2229   -3.0170 H       1  UNL1        0.0620
     47 H           2.4715    5.5478   -0.6289 H       1  UNL1        0.0685
@<TRIPOS>UNITY_ATOM_ATTR
27 1
charge 1
29 1
charge -1
@<TRIPOS>BOND
     1     1     2    3
     2     3     4    1
     3     4     5    2
     4     4     6   am
     5     6     7    1
     6     7     8   ar
     7     8     9   ar
     8     9    10    1
     9    10    11    1
    10    11    12    1
    11    12    13    1
    12    13    14    1
    13    14    15    1
    14    10    15    1
    15     9    16   ar
    16    16    17   ar
    17    17    18    2
    18    17    19   ar
    19     7    19   ar
    20    19    20    1
    21     3    20    1
    22    21    22   ar
    23    22    23   ar
    24    23    24   ar
    25    24    25   ar
    26    25    26   ar
    27    21    26   ar
    28    26    27    1
    29    27    28    2
    30    27    29    1
    31     3     2    1
    32    20    21    1
    33     3    30    1
    34     6    31    1
    35    11    32    1
    36    11    33    1
    37    12    34    1
    38    12    35    1
    39    13    36    1
    40    13    37    1
    41    14    38    1
    42    14    39    1
    43    15    40    1
    44    15    41    1
    45    16    42    1
    46    20    43    1
    47    22    44    1
    48    23    45    1
    49    24    46    1
    50    25    47    1
