@<TRIPOS>MOLECULE
*****
 51 51 0 0 0
SMALL
GASTEIGER

@<TRIPOS>ATOM
      1 C           0.9863   -0.0688    0.0459 C.3     1  UNL1       -0.0622
      2 C           2.5118   -0.0442    0.0509 C.3     1  UNL1       -0.0214
      3 C           3.0526    1.3595    0.3380 C.3     1  UNL1        0.0922
      4 O           4.4970    1.3723    0.3412 O.3     1  UNL1       -0.4646
      5 C           5.0313    2.6160    0.5958 C.2     1  UNL1        0.3075
      6 O           4.3817    3.6145    0.8007 O.2     1  UNL1       -0.2508
      7 C           6.5502    2.5873    0.5889 C.3     1  UNL1        0.0532
      8 C           7.1660    3.9937    0.8719 C.3     1  UNL1        0.0344
      9 C           8.6909    3.9039    0.8338 C.2     1  UNL1        0.2190
     10 O           9.1848    2.8381    0.4662 O.2     1  UNL1       -0.2754
     11 N           9.4551    5.0493    1.1362 N.am    1  UNL1       -0.2676
     12 C          10.8280    5.0230    1.4931 C.2     1  UNL1        0.1408
     13 S          11.6377    3.5946    1.9218 S.2     1  UNL1       -0.0182
     14 N          11.4788    6.2900    1.4880 N.am    1  UNL1       -0.2963
     15 C          12.9255    6.4058    1.4392 C.ar    1  UNL1        0.0373
     16 C          13.6639    7.1138    2.3831 C.ar    1  UNL1       -0.0401
     17 C          15.0733    7.0844    2.3145 C.ar    1  UNL1       -0.0582
     18 C          15.7562    6.3719    1.2939 C.ar    1  UNL1       -0.0401
     19 C          15.0442    5.6978    0.2847 C.ar    1  UNL1        0.0381
     20 N          15.7834    5.0130   -0.7886 N.am    1  UNL1       -0.2852
     21 C          15.2708    4.1566   -1.7746 C.2     1  UNL1        0.2169
     22 O          14.1285    3.7005   -1.8155 O.2     1  UNL1       -0.2755
     23 C          16.1589    3.6468   -2.8944 C.3     1  UNL1        0.0215
     24 C          15.2198    2.9828   -3.9446 C.3     1  UNL1       -0.0570
     25 C          13.6230    5.8045    0.3584 C.ar    1  UNL1       -0.0081
     26 C          12.7833    5.4312   -0.8147 C.3     1  UNL1       -0.0362
     27 H           0.6150   -1.0785   -0.1606 H       1  UNL1        0.0231
     28 H           0.5831    0.5996   -0.7224 H       1  UNL1        0.0231
     29 H           0.5831    0.2443    1.0148 H       1  UNL1        0.0231
     30 H           2.8857   -0.3992   -0.9164 H       1  UNL1        0.0295
     31 H           2.8856   -0.7504    0.8012 H       1  UNL1        0.0295
     32 H           2.6896    1.6900    1.3183 H       1  UNL1        0.0697
     33 H           2.6899    2.0483   -0.4339 H       1  UNL1        0.0697
     34 H           6.8841    2.2243   -0.3918 H       1  UNL1        0.0382
     35 H           6.8916    1.8729    1.3491 H       1  UNL1        0.0382
     36 H           6.8385    4.3445    1.8563 H       1  UNL1        0.0364
     37 H           6.8227    4.7030    0.1112 H       1  UNL1        0.0364
     38 H           8.9670    5.9298    1.2167 H       1  UNL1        0.1565
     39 H          10.9717    7.1293    1.7374 H       1  UNL1        0.1538
     40 H          13.1834    7.6379    3.2057 H       1  UNL1        0.0636
     41 H          15.6515    7.6010    3.0842 H       1  UNL1        0.0619
     42 H          16.8461    6.3817    1.3149 H       1  UNL1        0.0636
     43 H          16.7923    5.0858   -0.7345 H       1  UNL1        0.1548
     44 H          16.8149    2.8859   -2.4634 H       1  UNL1        0.0356
     45 H          16.7418    4.4409   -3.3677 H       1  UNL1        0.0356
     46 H          14.5704    2.2247   -3.4785 H       1  UNL1        0.0234
     47 H          15.7508    2.4811   -4.7541 H       1  UNL1        0.0234
     48 H          14.5392    3.7286   -4.3817 H       1  UNL1        0.0234
     49 H          13.4556    5.5674   -1.6422 H       1  UNL1        0.0279
     50 H          12.0260    6.1429   -1.1306 H       1  UNL1        0.0279
     51 H          12.3670    4.4224   -0.7195 H       1  UNL1        0.0279
@<TRIPOS>BOND
     1     1     2    1
     2     2     3    1
     3     3     4    1
     4     4     5    1
     5     5     6    2
     6     5     7    1
     7     7     8    1
     8     8     9    1
     9     9    10    2
    10     9    11   am
    11    11    12    1
    12    12    13    2
    13    12    14    1
    14    14    15    1
    15    15    16   ar
    16    16    17   ar
    17    17    18   ar
    18    18    19   ar
    19    19    20    1
    20    20    21   am
    21    21    22    2
    22    21    23    1
    23    23    24    1
    24    19    25   ar
    25    15    25   ar
    26    25    26    1
    27     1    27    1
    28     1    28    1
    29     1    29    1
    30     2    30    1
    31     2    31    1
    32     3    32    1
    33     3    33    1
    34     7    34    1
    35     7    35    1
    36     8    36    1
    37     8    37    1
    38    11    38    1
    39    14    39    1
    40    16    40    1
    41    17    41    1
    42    18    42    1
    43    20    43    1
    44    23    44    1
    45    23    45    1
    46    24    46    1
    47    24    47    1
    48    24    48    1
    49    26    49    1
    50    26    50    1
    51    26    51    1
