REMARK  5 active torsions:
REMARK  status: ('A' for Active; 'I' for Inactive)
REMARK    1  A    between atoms: C_2  and  C_3 
REMARK    2  A    between atoms: C_3  and  C_4 
REMARK    3  A    between atoms: C_4  and  N_5 
REMARK       I    between atoms: N_5  and  C_6 
REMARK       I    between atoms: C_6  and  N_8 
REMARK    4  A    between atoms: N_8  and  N_9 
REMARK       I    between atoms: N_9  and  C_10 
REMARK    5  A    between atoms: C_10  and  C_12 
ROOT
ATOM      1  N   UNL d   1       8.392  -1.980   4.202  0.00  0.00    -0.261 N 
ATOM      2  C   UNL d   1       8.791  -2.504   5.426  0.00  0.00     0.291 C 
ATOM      3  O   UNL d   1       7.999  -2.852   6.298  0.00  0.00    -0.264 OA
ATOM      4  H   UNL d   1       9.046  -1.605   3.516  0.00  0.00     0.190 HD
ENDROOT
BRANCH   2   5
ATOM      5  C   UNL d   1      10.315  -2.659   5.664  0.00  0.00     0.157 A 
ATOM      6  N   UNL d   1      11.080  -1.639   5.387  0.00  0.00    -0.166 NA
ATOM      7  N   UNL d   1      12.433  -1.766   5.605  0.00  0.00    -0.242 N 
ATOM      8  C   UNL d   1      13.094  -2.908   5.990  0.00  0.00     0.272 A 
ATOM      9  H   UNL d   1      13.009  -0.946   5.429  0.00  0.00     0.192 HD
ATOM     10  O   UNL d   1      14.319  -2.971   6.072  0.00  0.00    -0.266 OA
ATOM     11  C   UNL d   1      12.246  -4.057   6.335  0.00  0.00     0.046 A 
ATOM     12  C   UNL d   1      12.830  -5.239   6.821  0.00  0.00     0.018 A 
ATOM     13  C   UNL d   1      10.858  -3.932   6.220  0.00  0.00     0.016 A 
ATOM     14  C   UNL d   1      12.017  -6.290   7.237  0.00  0.00     0.001 A 
ATOM     15  C   UNL d   1      10.632  -6.159   7.164  0.00  0.00     0.001 A 
ATOM     16  C   UNL d   1      10.055  -4.994   6.646  0.00  0.00     0.015 A 
ENDBRANCH   2   5
BRANCH   1  17
ATOM     17  N   UNL d   1       6.989  -1.832   3.912  0.00  0.00    -0.249 N 
ATOM     18  C   UNL d   1       6.594  -1.256   2.714  0.00  0.00     0.334 C 
ATOM     19  N   UNL d   1       5.225  -1.170   2.531  0.00  0.00    -0.342 N 
ATOM     20  O   UNL d   1       7.406  -0.863   1.879  0.00  0.00    -0.246 OA
ATOM     21  H   UNL d   1       4.596  -1.503   3.246  0.00  0.00     0.164 HD
ATOM     22  H   UNL d   1       6.342  -2.145   4.629  0.00  0.00     0.192 HD
BRANCH  19  23
ATOM     23  C   UNL d   1       4.660  -0.587   1.309  0.00  0.00     0.124 C 
BRANCH  23  24
ATOM     24  C   UNL d   1       3.124  -0.568   1.270  0.00  0.00     0.019 C 
BRANCH  24  25
ATOM     25  C   UNL d   1       2.583   0.050  -0.030  0.00  0.00    -0.003 C 
ATOM     26  C   UNL d   1       1.059   0.062  -0.054  0.00  0.00     0.005 C 
ENDBRANCH  24  25
ENDBRANCH  23  24
ENDBRANCH  19  23
ENDBRANCH   1  17
TORSDOF 5
