REMARK  4 active torsions:
REMARK  status: ('A' for Active; 'I' for Inactive)
REMARK    1  A    between atoms: C_6  and  C_7 
REMARK       I    between atoms: C_7  and  N_9 
REMARK    2  A    between atoms: N_9  and  N_10 
REMARK       I    between atoms: N_10  and  C_11 
REMARK    3  A    between atoms: C_11  and  C_13 
REMARK    4  A    between atoms: C_18  and  O_19 
ROOT
ATOM      1  C   UNL d   1      -0.688  -3.020  -0.030  0.00  0.00     0.270 C 
ATOM      2  O   UNL d   1       0.322  -3.725  -0.029  0.00  0.00    -0.266 OA
ATOM      3  N   UNL d   1      -1.925  -3.650  -0.049  0.00  0.00    -0.263 N 
ATOM      4  H   UNL d   1      -2.835  -3.205  -0.040  0.00  0.00     0.190 HD
ENDROOT
BRANCH   3   5
ATOM      5  N   UNL d   1      -1.939  -5.061  -0.072  0.00  0.00    -0.263 N 
ATOM      6  C   UNL d   1      -3.143  -5.735  -0.089  0.00  0.00     0.272 C 
ATOM      7  O   UNL d   1      -4.230  -5.160  -0.154  0.00  0.00    -0.266 OA
ATOM      8  H   UNL d   1      -1.037  -5.529   0.028  0.00  0.00     0.190 HD
BRANCH   6   9
ATOM      9  C   UNL d   1      -3.078  -7.225  -0.068  0.00  0.00     0.066 A 
ATOM     10  C   UNL d   1      -3.932  -7.948  -0.916  0.00  0.00     0.020 A 
ATOM     11  C   UNL d   1      -3.923  -9.348  -0.908  0.00  0.00     0.001 A 
ATOM     12  C   UNL d   1      -3.085 -10.034  -0.029  0.00  0.00     0.003 A 
ATOM     13  C   UNL d   1      -2.244  -9.323   0.832  0.00  0.00     0.037 A 
ATOM     14  C   UNL d   1      -2.233  -7.924   0.802  0.00  0.00     0.081 A 
BRANCH  14  15
ATOM     15  O   UNL d   1      -1.406  -7.230   1.640  0.00  0.00    -0.360 OA
ATOM     16  H   UNL d   1      -0.907  -7.845   2.201  0.00  0.00     0.217 HD
ENDBRANCH  14  15
ENDBRANCH   6   9
ENDBRANCH   3   5
BRANCH   1  17
ATOM     17  C   UNL d   1      -0.631  -1.495  -0.014  0.00  0.00     0.040 A 
ATOM     18  C   UNL d   1      -1.832  -0.755  -0.015  0.00  0.00     0.017 A 
ATOM     19  C   UNL d   1      -1.839   0.645   0.015  0.00  0.00     0.002 A 
ATOM     20  C   UNL d   1      -0.645   1.350   0.021  0.00  0.00     0.007 A 
ATOM     21  C   UNL d   1       0.575   0.665   0.003  0.00  0.00    -0.055 A 
ATOM     22  C   UNL d   1       1.846   1.482  -0.015  0.00  0.00     0.049 C 
ATOM     23  C   UNL d   1       0.597  -0.767   0.001  0.00  0.00    -0.040 A 
ATOM     24  C   UNL d   1       1.961  -1.417   0.024  0.00  0.00     0.050 C 
ENDBRANCH   1  17
TORSDOF 4
