@<TRIPOS>MOLECULE
*****
 30 31 0 0 0
SMALL
GASTEIGER

@<TRIPOS>ATOM
      1 O           0.9963    0.3100    0.0563 O.2     1  UNL1       -0.2698
      2 C           2.2053    0.1032   -0.0911 C.2     1  UNL1        0.2495
      3 N           2.7800   -0.7723   -1.0372 N.am    1  UNL1       -0.2636
      4 C           2.0492   -1.6761   -1.8504 C.2     1  UNL1        0.1411
      5 S           0.3712   -1.8562   -1.7297 S.2     1  UNL1       -0.0182
      6 N           2.8401   -2.4390   -2.7466 N.am    1  UNL1       -0.2943
      7 C           2.2903   -3.3639   -3.7202 C.ar    1  UNL1        0.0710
      8 C           1.1913   -3.0206   -4.5212 C.ar    1  UNL1       -0.0024
      9 C           0.6284   -3.9343   -5.4116 C.ar    1  UNL1        0.1253
     10 F          -0.4395   -3.5720   -6.1346 F       1  UNL1       -0.2054
     11 C           1.1605   -5.2043   -5.5673 C.ar    1  UNL1       -0.0236
     12 C           2.2752   -5.5626   -4.8093 C.ar    1  UNL1       -0.0219
     13 C           2.8380   -4.6444   -3.9044 C.ar    1  UNL1        0.1446
     14 F           3.8857   -5.0408   -3.1660 F       1  UNL1       -0.2035
     15 C           3.0497    0.8450    0.8713 C.ar    1  UNL1        0.0371
     16 C           4.2309    1.4973    0.5261 C.ar    1  UNL1       -0.0496
     17 C           4.9883    2.1146    1.5314 C.ar    1  UNL1       -0.0610
     18 C           4.5256    2.1622    2.8514 C.ar    1  UNL1       -0.0617
     19 C           3.3001    1.5941    3.1799 C.ar    1  UNL1       -0.0610
     20 C           2.5642    0.9450    2.1914 C.ar    1  UNL1       -0.0496
     21 H           3.7889   -0.8475   -1.0282 H       1  UNL1        0.1568
     22 H           3.8064   -2.6305   -2.4989 H       1  UNL1        0.1539
     23 H           0.7377   -2.0366   -4.4741 H       1  UNL1        0.0666
     24 H           0.7070   -5.8906   -6.2772 H       1  UNL1        0.0647
     25 H           2.6977   -6.5585   -4.9141 H       1  UNL1        0.0648
     26 H           4.5495    1.5737   -0.5083 H       1  UNL1        0.0625
     27 H           5.9497    2.5628    1.2919 H       1  UNL1        0.0618
     28 H           5.1129    2.6567    3.6222 H       1  UNL1        0.0618
     29 H           2.9220    1.6402    4.1989 H       1  UNL1        0.0618
     30 H           1.5946    0.5178    2.4499 H       1  UNL1        0.0625
@<TRIPOS>BOND
     1     1     2    2
     2     2     3   am
     3     3     4    1
     4     4     5    2
     5     4     6    1
     6     6     7    1
     7     7     8   ar
     8     8     9   ar
     9     9    10    1
    10     9    11   ar
    11    11    12   ar
    12    12    13   ar
    13     7    13   ar
    14    13    14    1
    15     2    15    1
    16    15    16   ar
    17    16    17   ar
    18    17    18   ar
    19    18    19   ar
    20    19    20   ar
    21    15    20   ar
    22     3    21    1
    23     6    22    1
    24     8    23    1
    25    11    24    1
    26    12    25    1
    27    16    26    1
    28    17    27    1
    29    18    28    1
    30    19    29    1
    31    20    30    1
