@<TRIPOS>MOLECULE
*****
 65 67 0 0 0
SMALL
GASTEIGER

@<TRIPOS>ATOM
      1 O           1.0216    0.1627   -0.1079 O.2     1  UNL1       -0.2743
      2 C           2.2501    0.1109   -0.0522 C.2     1  UNL1        0.2291
      3 C           2.9817   -0.8108    0.9185 C.3     1  UNL1        0.0259
      4 C           2.0073   -1.6305    1.7771 C.3     1  UNL1       -0.0347
      5 C           2.7000   -2.5770    2.7694 C.3     1  UNL1        0.0454
      6 C           1.6763   -3.3514    3.5809 C.2     1  UNL1        0.3071
      7 O           0.4572   -3.2333    3.4572 O.2     1  UNL1       -0.2509
      8 O           2.2724   -4.1996    4.4687 O.3     1  UNL1       -0.4646
      9 C           1.3326   -4.9562    5.2577 C.3     1  UNL1        0.0928
     10 C           2.0819   -5.8770    6.2174 C.3     1  UNL1       -0.0146
     11 C           1.1061   -6.6922    7.0629 C.3     1  UNL1       -0.0246
     12 C           1.7854   -7.6155    8.0423 C.ar    1  UNL1       -0.0472
     13 C           1.6285   -9.0022    7.9281 C.ar    1  UNL1       -0.0586
     14 C           2.0704   -9.8450    8.9475 C.ar    1  UNL1       -0.0615
     15 C           2.7578   -9.3195   10.0399 C.ar    1  UNL1       -0.0617
     16 C           2.9816   -7.9471   10.1275 C.ar    1  UNL1       -0.0615
     17 C           2.4912   -7.0969    9.1366 C.ar    1  UNL1       -0.0586
     18 N           3.0004    0.8974   -0.8953 N.am    1  UNL1       -0.2343
     19 N           4.3987    1.0184   -0.8975 N.am    1  UNL1       -0.2316
     20 C           4.9713    1.9266   -1.7936 C.2     1  UNL1        0.2667
     21 O           4.2889    2.5888   -2.5740 O.2     1  UNL1       -0.2705
     22 C           6.5075    1.9841   -1.7295 C.3     1  UNL1        0.1666
     23 O           7.0636    2.8836   -2.6899 O.3     1  UNL1       -0.4821
     24 C           8.4238    2.9087   -2.9032 C.ar    1  UNL1        0.1289
     25 C           8.9593    4.1825   -3.1530 C.ar    1  UNL1       -0.0193
     26 C          10.3010    4.3496   -3.5255 C.ar    1  UNL1       -0.0583
     27 C          11.1457    3.2506   -3.6048 C.ar    1  UNL1       -0.0610
     28 C          10.6296    1.9835   -3.3626 C.ar    1  UNL1       -0.0505
     29 C           9.2692    1.7912   -3.0289 C.ar    1  UNL1        0.0238
     30 C           8.8079    0.4156   -2.8946 C.ar    1  UNL1       -0.0144
     31 C           9.3150   -0.3981   -1.8714 C.ar    1  UNL1       -0.0539
     32 C           8.8610   -1.7040   -1.7323 C.ar    1  UNL1       -0.0612
     33 C           7.8213   -2.1668   -2.5396 C.ar    1  UNL1       -0.0617
     34 C           7.2741   -1.3503   -3.5281 C.ar    1  UNL1       -0.0612
     35 C           7.7961   -0.0790   -3.7355 C.ar    1  UNL1       -0.0539
     36 H           3.6147   -0.1974    1.5681 H       1  UNL1        0.0359
     37 H           3.6154   -1.4889    0.3370 H       1  UNL1        0.0359
     38 H           1.3499   -2.2175    1.1217 H       1  UNL1        0.0275
     39 H           1.3495   -0.9483    2.3322 H       1  UNL1        0.0275
     40 H           3.3281   -1.9974    3.4549 H       1  UNL1        0.0378
     41 H           3.3282   -3.2891    2.2228 H       1  UNL1        0.0378
     42 H           0.6986   -5.5567    4.5935 H       1  UNL1        0.0697
     43 H           0.7011   -4.2661    5.8317 H       1  UNL1        0.0697
     44 H           2.7387   -5.2754    6.8567 H       1  UNL1        0.0301
     45 H           2.7416   -6.5465    5.6525 H       1  UNL1        0.0301
     46 H           0.4424   -7.2735    6.4095 H       1  UNL1        0.0314
     47 H           0.4471   -6.0267    7.6369 H       1  UNL1        0.0314
     48 H           1.1333   -9.4324    7.0606 H       1  UNL1        0.0620
     49 H           1.8550  -10.9091    8.9006 H       1  UNL1        0.0618
     50 H           3.1155   -9.9803   10.8244 H       1  UNL1        0.0618
     51 H           3.5080   -7.5346   10.9840 H       1  UNL1        0.0618
     52 H           2.6398   -6.0243    9.2369 H       1  UNL1        0.0620
     53 H           2.4942    1.5191   -1.5304 H       1  UNL1        0.1728
     54 H           4.9557    0.3836   -0.3370 H       1  UNL1        0.1729
     55 H           6.7845    0.9492   -1.8772 H       1  UNL1        0.0795
     56 H           6.8337    2.2707   -0.7267 H       1  UNL1        0.0795
     57 H           8.3251    5.0619   -3.0677 H       1  UNL1        0.0654
     58 H          10.6839    5.3369   -3.7724 H       1  UNL1        0.0619
     59 H          12.1931    3.3690   -3.8713 H       1  UNL1        0.0618
     60 H          11.2844    1.1198   -3.4792 H       1  UNL1        0.0625
     61 H          10.0462   -0.0007   -1.1682 H       1  UNL1        0.0624
     62 H           9.3151   -2.3545   -0.9908 H       1  UNL1        0.0618
     63 H           7.4307   -3.1689   -2.3924 H       1  UNL1        0.0618
     64 H           6.4365   -1.6900   -4.1307 H       1  UNL1        0.0618
     65 H           7.3431    0.5779   -4.4789 H       1  UNL1        0.0624
@<TRIPOS>BOND
     1     1     2    2
     2     2     3    1
     3     3     4    1
     4     4     5    1
     5     5     6    1
     6     6     7    2
     7     6     8    1
     8     8     9    1
     9     9    10    1
    10    10    11    1
    11    11    12    1
    12    12    13   ar
    13    13    14   ar
    14    14    15   ar
    15    15    16   ar
    16    16    17   ar
    17    12    17   ar
    18     2    18   am
    19    18    19    1
    20    19    20   am
    21    20    21    2
    22    20    22    1
    23    22    23    1
    24    23    24    1
    25    24    25   ar
    26    25    26   ar
    27    26    27   ar
    28    27    28   ar
    29    28    29   ar
    30    24    29   ar
    31    29    30    1
    32    30    31   ar
    33    31    32   ar
    34    32    33   ar
    35    33    34   ar
    36    34    35   ar
    37    30    35   ar
    38     3    36    1
    39     3    37    1
    40     4    38    1
    41     4    39    1
    42     5    40    1
    43     5    41    1
    44     9    42    1
    45     9    43    1
    46    10    44    1
    47    10    45    1
    48    11    46    1
    49    11    47    1
    50    13    48    1
    51    14    49    1
    52    15    50    1
    53    16    51    1
    54    17    52    1
    55    18    53    1
    56    19    54    1
    57    22    55    1
    58    22    56    1
    59    25    57    1
    60    26    58    1
    61    27    59    1
    62    28    60    1
    63    31    61    1
    64    32    62    1
    65    33    63    1
    66    34    64    1
    67    35    65    1
