@<TRIPOS>MOLECULE
*****
 32 32 0 0 0
SMALL
GASTEIGER

@<TRIPOS>ATOM
      1 C           0.9773   -0.0080   -0.1169 C.3     1  UNL1       -0.0648
      2 C           2.4996   -0.0233   -0.1253 C.3     1  UNL1       -0.0476
      3 C           3.1137    0.4820   -1.4403 C.3     1  UNL1        0.0252
      4 C           4.6482    0.3836   -1.4047 C.2     1  UNL1        0.2291
      5 O           5.2692    0.2342   -0.3557 O.2     1  UNL1       -0.2743
      6 N           5.3052    0.5526   -2.6268 N.am    1  UNL1       -0.2342
      7 N           6.6585    1.0626   -2.5484 N.am    1  UNL1       -0.2304
      8 C           7.3289    1.5261   -3.6852 C.2     1  UNL1        0.2604
      9 O           8.3426    0.9572   -4.0630 O.2     1  UNL1       -0.2687
     10 C           6.9008    2.8267   -4.3491 C.ar    1  UNL1        0.0411
     11 C           7.6913    3.2997   -5.4269 C.ar    1  UNL1       -0.0493
     12 C           7.4012    4.5148   -6.0722 C.ar    1  UNL1       -0.0610
     13 C           6.3100    5.2720   -5.6707 C.ar    1  UNL1       -0.0615
     14 C           5.5320    4.8321   -4.6123 C.ar    1  UNL1       -0.0581
     15 C           5.8351    3.6456   -3.9220 C.ar    1  UNL1       -0.0383
     16 C           4.9453    3.3531   -2.7613 C.3     1  UNL1       -0.0390
     17 H           0.6027   -0.4105    0.8320 H       1  UNL1        0.0230
     18 H           0.5716   -0.6249   -0.9240 H       1  UNL1        0.0230
     19 H           0.5860    1.0086   -0.2239 H       1  UNL1        0.0230
     20 H           2.8424   -1.0473    0.0604 H       1  UNL1        0.0267
     21 H           2.8577    0.5859    0.7147 H       1  UNL1        0.0267
     22 H           2.8235    1.5324   -1.5768 H       1  UNL1        0.0359
     23 H           2.7202   -0.0875   -2.2876 H       1  UNL1        0.0359
     24 H           4.7992    0.7318   -3.4886 H       1  UNL1        0.1728
     25 H           7.2297    0.4543   -1.9612 H       1  UNL1        0.1731
     26 H           8.5659    2.7430   -5.7670 H       1  UNL1        0.0625
     27 H           8.0274    4.8775   -6.8849 H       1  UNL1        0.0618
     28 H           6.0643    6.2113   -6.1585 H       1  UNL1        0.0618
     29 H           4.6790    5.4303   -4.2977 H       1  UNL1        0.0620
     30 H           4.2994    4.1880   -2.4871 H       1  UNL1        0.0278
     31 H           5.5322    3.1157   -1.8706 H       1  UNL1        0.0278
     32 H           4.2575    2.5692   -3.0674 H       1  UNL1        0.0278
@<TRIPOS>BOND
     1     1     2    1
     2     2     3    1
     3     3     4    1
     4     4     5    2
     5     4     6   am
     6     6     7    1
     7     7     8   am
     8     8     9    2
     9     8    10    1
    10    10    11   ar
    11    11    12   ar
    12    12    13   ar
    13    13    14   ar
    14    14    15   ar
    15    10    15   ar
    16    15    16    1
    17     1    17    1
    18     1    18    1
    19     1    19    1
    20     2    20    1
    21     2    21    1
    22     3    22    1
    23     3    23    1
    24     6    24    1
    25     7    25    1
    26    11    26    1
    27    12    27    1
    28    13    28    1
    29    14    29    1
    30    16    30    1
    31    16    31    1
    32    16    32    1
