REMARK  8 active torsions:
REMARK  status: ('A' for Active; 'I' for Inactive)
REMARK    1  A    between atoms: C_2  and  C_3 
REMARK    2  A    between atoms: C_3  and  C_4 
REMARK    3  A    between atoms: C_4  and  C_5 
REMARK    4  A    between atoms: C_8  and  N_9 
REMARK    5  A    between atoms: N_9  and  C_10 
REMARK    6  A    between atoms: C_10  and  C_11 
REMARK    7  A    between atoms: C_11  and  C_12 
REMARK       I    between atoms: C_12  and  N_14 
REMARK    8  A    between atoms: N_14  and  N_15 
ROOT
ATOM      1  N   UNL d   1       5.649  -4.846   5.210  0.00  0.00    -0.389 N 
ATOM      2  H   UNL d   1       5.771  -5.807   4.913  0.00  0.00     0.159 HD
ENDROOT
BRANCH   1   3
ATOM      3  C   UNL d   1       5.537  -3.908   4.180  0.00  0.00     0.028 A 
ATOM      4  C   UNL d   1       5.176  -4.332   2.894  0.00  0.00     0.029 A 
ATOM      5  C   UNL d   1       5.027  -3.421   1.840  0.00  0.00     0.009 A 
ATOM      6  C   UNL d   1       5.120  -2.047   2.079  0.00  0.00    -0.058 A 
ATOM      7  C   UNL d   1       5.465  -1.607   3.355  0.00  0.00     0.009 A 
ATOM      8  C   UNL d   1       5.663  -2.527   4.388  0.00  0.00     0.029 A 
BRANCH   6   9
ATOM      9  C   UNL d   1       4.660  -1.058   1.040  0.00  0.00     0.038 C 
BRANCH   9  10
ATOM     10  C   UNL d   1       3.128  -1.031   1.037  0.00  0.00     0.004 C 
BRANCH  10  11
ATOM     11  C   UNL d   1       2.589  -0.040   0.016  0.00  0.00    -0.004 C 
ATOM     12  C   UNL d   1       1.070  -0.040   0.018  0.00  0.00     0.005 C 
ENDBRANCH  10  11
ENDBRANCH   9  10
ENDBRANCH   6   9
ENDBRANCH   1   3
BRANCH   1  13
ATOM     13  C   UNL d   1       6.214  -4.444   6.499  0.00  0.00     0.129 C 
BRANCH  13  14
ATOM     14  C   UNL d   1       6.500  -5.635   7.412  0.00  0.00     0.123 C 
BRANCH  14  15
ATOM     15  C   UNL d   1       6.977  -5.136   8.765  0.00  0.00     0.233 C 
ATOM     16  O   UNL d   1       7.099  -3.939   9.044  0.00  0.00    -0.272 OA
ATOM     17  N   UNL d   1       7.293  -6.138   9.676  0.00  0.00    -0.294 N 
ATOM     18  H   UNL d   1       7.086  -7.114   9.476  0.00  0.00     0.183 HD
BRANCH  17  19
ATOM     19  N   UNL d   1       7.638  -5.776  11.003  0.00  0.00    -0.247 NA
ATOM     20  H   UNL d   1       7.676  -4.745  11.034  0.00  0.00     0.143 HD
ATOM     21  H   UNL d   1       8.602  -6.068  11.184  0.00  0.00     0.143 HD
ENDBRANCH  17  19
ENDBRANCH  14  15
ENDBRANCH  13  14
ENDBRANCH   1  13
TORSDOF 8
