REMARK  7 active torsions:
REMARK  status: ('A' for Active; 'I' for Inactive)
REMARK    1  A    between atoms: C_2  and  C_14 
REMARK    2  A    between atoms: C_2  and  O_3 
REMARK    3  A    between atoms: O_3  and  C_4 
REMARK       I    between atoms: C_14  and  N_16 
REMARK    4  A    between atoms: N_16  and  N_17 
REMARK       I    between atoms: N_17  and  C_18 
REMARK       I    between atoms: C_18  and  N_20 
REMARK    5  A    between atoms: N_20  and  C_21 
REMARK    6  A    between atoms: C_21  and  C_22 
REMARK    7  A    between atoms: C_22  and  N_23 
ROOT
ATOM      1  C   UNL d   1       3.258   1.505  -0.509  0.00  0.00     0.265 C 
ATOM      2  O   UNL d   1       2.824   2.319  -1.329  0.00  0.00    -0.269 OA
ATOM      3  N   UNL d   1       4.470   1.752   0.122  0.00  0.00    -0.264 N 
ATOM      4  H   UNL d   1       5.174   1.012   0.097  0.00  0.00     0.190 HD
ENDROOT
BRANCH   3   5
ATOM      5  N   UNL d   1       4.987   3.078  -0.050  0.00  0.00    -0.249 N 
ATOM      6  C   UNL d   1       6.343   3.281  -0.153  0.00  0.00     0.334 C 
ATOM      7  O   UNL d   1       7.163   2.377  -0.104  0.00  0.00    -0.246 OA
ATOM      8  N   UNL d   1       6.703   4.616  -0.248  0.00  0.00    -0.340 N 
ATOM      9  H   UNL d   1       5.981   5.322  -0.280  0.00  0.00     0.164 HD
ATOM     10  H   UNL d   1       4.293   3.779  -0.296  0.00  0.00     0.192 HD
BRANCH   8  11
ATOM     11  C   UNL d   1       8.115   4.963  -0.261  0.00  0.00     0.144 C 
BRANCH  11  12
ATOM     12  C   UNL d   1       8.475   6.458  -0.337  0.00  0.00     0.149 C 
BRANCH  12  13
ATOM     13  N   UNL d   1       9.938   6.727  -0.350  0.00  0.00    -0.350 N 
ATOM     14  C   UNL d   1      10.966   5.783  -0.364  0.00  0.00     0.108 A 
ATOM     15  C   UNL d   1      12.146   6.468  -0.383  0.00  0.00     0.106 A 
ATOM     16  N   UNL d   1      11.814   7.800  -0.379  0.00  0.00    -0.361 N 
ATOM     17  C   UNL d   1      10.486   7.957  -0.357  0.00  0.00     0.182 A 
ATOM     18  H   UNL d   1      12.485   8.566  -0.390  0.00  0.00     0.166 HD
ENDBRANCH  12  13
ENDBRANCH  11  12
ENDBRANCH   8  11
ENDBRANCH   3   5
BRANCH   1  19
ATOM     19  C   UNL d   1       2.478   0.212  -0.082  0.00  0.00     0.218 C 
ATOM     20  C   UNL d   1       2.896  -0.767  -1.185  0.00  0.00     0.050 C 
BRANCH  19  21
ATOM     21  O   UNL d   1       1.040   0.165   0.047  0.00  0.00    -0.337 OA
BRANCH  21  22
ATOM     22  C   UNL d   1       0.307   1.315   0.203  0.00  0.00     0.070 C 
ATOM     23  C   UNL d   1       0.851   2.559   0.489  0.00  0.00     0.037 C 
ATOM     24  C   UNL d   1       0.155   3.736   0.255  0.00  0.00     0.015 C 
ATOM     25  C   UNL d   1      -1.208   3.692   0.043  0.00  0.00    -0.026 A 
ATOM     26  C   UNL d   1      -1.912   4.896  -0.042  0.00  0.00     0.012 A 
ATOM     27  C   UNL d   1      -1.863   2.440   0.005  0.00  0.00    -0.023 A 
ATOM     28  C   UNL d   1      -3.298   4.880  -0.092  0.00  0.00     0.001 A 
ATOM     29  C   UNL d   1      -3.973   3.661  -0.089  0.00  0.00     0.001 A 
ATOM     30  C   UNL d   1      -3.266   2.451  -0.056  0.00  0.00     0.012 A 
ATOM     31  C   UNL d   1      -1.082   1.252   0.035  0.00  0.00     0.049 C 
ENDBRANCH  21  22
ENDBRANCH  19  21
ENDBRANCH   1  19
TORSDOF 7
