REMARK  7 active torsions:
REMARK  status: ('A' for Active; 'I' for Inactive)
REMARK    1  A    between atoms: C_2  and  C_3 
REMARK    2  A    between atoms: C_3  and  C_4 
REMARK    3  A    between atoms: C_4  and  N_5 
REMARK    4  A    between atoms: C_11  and  C_12 
REMARK    5  A    between atoms: C_17  and  O_18 
REMARK    6  A    between atoms: C_20  and  C_21 
REMARK    7  A    between atoms: C_25  and  O_26 
ROOT
ATOM      1  N   UNL d   1       5.163  -1.984   2.070  0.00  0.00    -0.334 N 
ATOM      2  C   UNL d   1       4.879  -3.355   2.005  0.00  0.00     0.273 A 
ATOM      3  O   UNL d   1       4.319  -3.972   1.111  0.00  0.00    -0.266 OA
ATOM      4  C   UNL d   1       5.352  -3.861   3.237  0.00  0.00     0.129 A 
ATOM      5  N   UNL d   1       5.413  -5.028   3.898  0.00  0.00    -0.272 N 
ATOM      6  N   UNL d   1       6.033  -4.893   5.098  0.00  0.00    -0.173 NA
ATOM      7  C   UNL d   1       6.287  -3.565   5.217  0.00  0.00     0.101 A 
ATOM      8  C   UNL d   1       5.872  -2.893   4.047  0.00  0.00     0.034 A 
ATOM      9  C   UNL d   1       5.799  -1.574   3.366  0.00  0.00     0.159 A 
ATOM     10  H   UNL d   1       5.076  -5.943   3.612  0.00  0.00     0.189 HD
ENDROOT
BRANCH   7  11
ATOM     11  C   UNL d   1       6.875  -3.005   6.434  0.00  0.00     0.028 A 
ATOM     12  C   UNL d   1       8.110  -3.451   6.922  0.00  0.00     0.017 A 
ATOM     13  C   UNL d   1       8.641  -2.910   8.102  0.00  0.00     0.001 A 
ATOM     14  C   UNL d   1       7.954  -1.910   8.794  0.00  0.00     0.003 A 
ATOM     15  C   UNL d   1       6.733  -1.452   8.316  0.00  0.00     0.037 A 
ATOM     16  C   UNL d   1       6.195  -2.025   7.167  0.00  0.00     0.078 A 
BRANCH  16  17
ATOM     17  O   UNL d   1       4.924  -1.689   6.817  0.00  0.00    -0.360 OA
ATOM     18  H   UNL d   1       4.713  -0.798   7.137  0.00  0.00     0.217 HD
ENDBRANCH  16  17
ENDBRANCH   7  11
BRANCH   9  19
ATOM     19  C   UNL d   1       4.916  -0.637   4.149  0.00  0.00    -0.028 A 
ATOM     20  C   UNL d   1       3.592  -0.982   4.483  0.00  0.00     0.010 A 
ATOM     21  C   UNL d   1       2.768  -0.093   5.170  0.00  0.00     0.003 A 
ATOM     22  C   UNL d   1       3.251   1.163   5.534  0.00  0.00     0.036 A 
ATOM     23  C   UNL d   1       4.563   1.508   5.221  0.00  0.00     0.066 A 
ATOM     24  C   UNL d   1       5.394   0.626   4.534  0.00  0.00     0.046 A 
BRANCH  23  25
ATOM     25  O   UNL d   1       5.095   2.712   5.580  0.00  0.00    -0.361 OA
ATOM     26  H   UNL d   1       4.415   3.244   6.024  0.00  0.00     0.217 HD
ENDBRANCH  23  25
ENDBRANCH   9  19
BRANCH   1  27
ATOM     27  C   UNL d   1       4.672  -1.025   1.084  0.00  0.00     0.127 C 
BRANCH  27  28
ATOM     28  C   UNL d   1       3.140  -0.966   1.033  0.00  0.00     0.020 C 
BRANCH  28  29
ATOM     29  C   UNL d   1       2.620  -0.003  -0.032  0.00  0.00    -0.003 C 
ATOM     30  C   UNL d   1       1.098   0.006  -0.043  0.00  0.00     0.005 C 
ENDBRANCH  28  29
ENDBRANCH  27  28
ENDBRANCH   1  27
TORSDOF 7
