REMARK  8 active torsions:
REMARK  status: ('A' for Active; 'I' for Inactive)
REMARK    1  A    between atoms: C_2  and  O_3 
REMARK    2  A    between atoms: O_3  and  C_4 
REMARK    3  A    between atoms: C_4  and  C_6 
REMARK    4  A    between atoms: C_10  and  N_9 
REMARK    5  A    between atoms: C_10  and  C_25 
REMARK    6  A    between atoms: C_10  and  C_11 
REMARK    7  A    between atoms: N_29  and  C_30 
REMARK    8  A    between atoms: C_30  and  C_33 
ROOT
ATOM      1  C   UNL d   1       3.062   0.027  -5.300  0.00  0.00     0.299 C 
ENDROOT
BRANCH   1   2
ATOM      2  C   UNL d   1       1.750  -0.593  -5.984  0.00  0.00     0.184 A 
ATOM      3  N   UNL d   1       1.281  -0.312  -7.189  0.00  0.00    -0.111 NA
ATOM      4  N   UNL d   1       0.208  -1.050  -7.501  0.00  0.00    -0.023 NA
ATOM      5  N   UNL d   1      -0.087  -1.798  -6.479  0.00  0.00    -0.043 NA
ATOM      6  N   UNL d   1       0.807  -1.472  -5.516  0.00  0.00    -0.223 N 
BRANCH   6   7
ATOM      7  C   UNL d   1       0.604  -2.112  -4.232  0.00  0.00     0.051 C 
ATOM      8  C   UNL d   1      -0.731  -1.645  -3.685  0.00  0.00     0.040 C 
ATOM      9  C   UNL d   1       0.772  -3.613  -4.487  0.00  0.00     0.040 C 
BRANCH   7  10
ATOM     10  C   UNL d   1       1.653  -1.668  -3.260  0.00  0.00     0.028 C 
ATOM     11  C   UNL d   1       1.685  -2.239  -1.874  0.00  0.00     0.007 C 
ENDBRANCH   7  10
ENDBRANCH   6   7
ENDBRANCH   1   2
BRANCH   1  12
ATOM     12  C   UNL d   1       4.113  -0.983  -4.746  0.00  0.00     0.049 C 
ATOM     13  C   UNL d   1       4.592  -2.038  -5.451  0.00  0.00     0.029 C 
ATOM     14  C   UNL d   1       5.304  -3.155  -4.826  0.00  0.00    -0.006 C 
ATOM     15  C   UNL d   1       5.841  -4.278  -5.497  0.00  0.00     0.053 C 
ATOM     16  C   UNL d   1       5.401  -3.121  -3.443  0.00  0.00     0.048 C 
ATOM     17  C   UNL d   1       6.569  -5.214  -4.733  0.00  0.00     0.105 C 
ATOM     18  C   UNL d   1       7.038  -4.812  -3.516  0.00  0.00     0.107 C 
ATOM     19  O   UNL d   1       6.212  -6.585  -4.479  0.00  0.00    -0.323 OA
ATOM     20  C   UNL d   1       6.234  -3.981  -2.784  0.00  0.00     0.070 C 
ATOM     21  O   UNL d   1       7.697  -5.790  -2.833  0.00  0.00    -0.323 OA
ATOM     22  C   UNL d   1       6.697  -6.766  -3.086  0.00  0.00     0.352 C 
ATOM     23  N   UNL d   1       4.799  -2.128  -2.689  0.00  0.00    -0.322 N 
ATOM     24  C   UNL d   1       4.358  -0.956  -3.243  0.00  0.00     0.254 C 
ATOM     25  H   UNL d   1       4.797  -2.232  -1.678  0.00  0.00     0.169 HD
ATOM     26  O   UNL d   1       3.996  -0.012  -2.554  0.00  0.00    -0.268 OA
ENDBRANCH   1  12
BRANCH   1  27
ATOM     27  N   UNL d   1       3.835   1.075  -6.183  0.00  0.00    -0.056 N 
ATOM     28  C   UNL d   1       3.061   2.357  -6.481  0.00  0.00     0.237 C 
ATOM     29  C   UNL d   1       1.960   2.089  -7.481  0.00  0.00     0.042 C 
ATOM     30  C   UNL d   1       2.535   1.300  -8.717  0.00  0.00     0.088 C 
ATOM     31  C   UNL d   1       3.462   0.072  -8.418  0.00  0.00     0.042 C 
ATOM     32  C   UNL d   1       4.505   0.466  -7.397  0.00  0.00     0.237 C 
ATOM     33  H   UNL d   1       4.604   1.394  -5.576  0.00  0.00     0.281 HD
BRANCH  30  34
ATOM     34  C   UNL d   1       3.325   2.383  -9.456  0.00  0.00     0.263 C 
ATOM     35  O   UNL d   1       2.919   3.495  -9.620  0.00  0.00    -0.265 OA
BRANCH  34  36
ATOM     36  O   UNL d   1       4.608   1.977  -9.707  0.00  0.00    -0.322 OA
BRANCH  36  37
ATOM     37  C   UNL d   1       5.468   3.027 -10.153  0.00  0.00     0.174 C 
ATOM     38  C   UNL d   1       6.870   2.470 -10.313  0.00  0.00     0.034 C 
ENDBRANCH  36  37
ENDBRANCH  34  36
ENDBRANCH  30  34
ENDBRANCH   1  27
TORSDOF 8
