REMARK  9 active torsions:
REMARK  status: ('A' for Active; 'I' for Inactive)
REMARK    1  A    between atoms: C_2  and  C_3 
REMARK    2  A    between atoms: C_7  and  C_6 
REMARK    3  A    between atoms: C_10  and  S_11 
REMARK    4  A    between atoms: S_11  and  C_12 
REMARK    5  A    between atoms: C_12  and  C_13 
REMARK       I    between atoms: C_13  and  N_15 
REMARK    6  A    between atoms: N_15  and  CA_16 
REMARK    7  A    between atoms: CA_16  and  CB_17 
REMARK    8  A    between atoms: CA_16  and  C_27 
REMARK    9  A    between atoms: CB_17  and  CG_18 
ROOT
ATOM      1  C   UNK d   0       5.715   2.370  -8.704  0.00  0.00     0.228 C 
ATOM      2  O   UNK d   0       4.624   2.464  -9.231  0.00  0.00    -0.273 OA
ATOM      3  N   TRP d   1       6.637   3.383  -8.847  0.00  0.00    -0.346 N 
ATOM      4  H   TRP d   1       7.640   3.135  -8.822  0.00  0.00     0.163 HD
ENDROOT
BRANCH   1   5
ATOM      5  C   UNK d   0       6.107   1.133  -7.812  0.00  0.00     0.185 C 
BRANCH   5   6
ATOM      6  S   UNK d   0       4.534   0.224  -7.478  0.00  0.00    -0.082 SA
BRANCH   6   7
ATOM      7  C   UNK d   0       4.909  -1.086  -6.463  0.00  0.00     0.177 C 
ATOM      8  N   UNK d   0       6.027  -1.566  -6.027  0.00  0.00    -0.174 NA
ATOM      9  N   UNK d   0       5.648  -2.701  -5.318  0.00  0.00    -0.187 NA
ATOM     10  C   UNK d   0       4.266  -2.600  -4.870  0.00  0.00     0.211 C 
ATOM     11  H   UNK d   0       6.314  -3.031  -4.625  0.00  0.00     0.151 HD
ATOM     12  N   UNK d   0       3.772  -1.788  -5.967  0.00  0.00    -0.346 N 
ATOM     13  H   UNK d   0       2.852  -1.633  -6.334  0.00  0.00     0.163 HD
BRANCH  10  14
ATOM     14  C   UNK d   0       3.507  -3.875  -4.586  0.00  0.00    -0.020 A 
ATOM     15  C   UNK d   0       4.081  -4.870  -3.768  0.00  0.00     0.011 A 
ATOM     16  C   UNK d   0       3.292  -5.858  -3.165  0.00  0.00     0.007 A 
ATOM     17  C   UNK d   0       1.907  -5.877  -3.358  0.00  0.00    -0.059 A 
ATOM     18  C   UNK d   0       1.342  -4.955  -4.243  0.00  0.00     0.007 A 
ATOM     19  C   UNK d   0       2.132  -3.979  -4.862  0.00  0.00     0.011 A 
BRANCH  17  20
ATOM     20  C   UNK d   0       1.029  -6.839  -2.596  0.00  0.00     0.034 C 
ATOM     21  C   UNK d   0       1.287  -8.280  -3.001  0.00  0.00     0.010 C 
ENDBRANCH  17  20
ENDBRANCH  10  14
ENDBRANCH   6   7
ENDBRANCH   5   6
ENDBRANCH   1   5
BRANCH   3  22
ATOM     22  CA  TRP d   1       6.449   4.564  -9.815  0.00  0.00     0.189 C 
BRANCH  22  23
ATOM     23  CB  TRP d   1       5.380   5.871  -9.424  0.00  0.00     0.073 C 
BRANCH  23  24
ATOM     24  CG  TRP d   1       3.858   5.762  -8.706  0.00  0.00    -0.046 C 
ATOM     25  CD1 TRP d   1       4.028   5.171  -7.438  0.00  0.00     0.112 C 
ATOM     26  NE1 TRP d   1       2.989   4.273  -7.634  0.00  0.00    -0.282 NA
ATOM     27  CE2 TRP d   1       1.899   5.108  -7.567  0.00  0.00     0.019 A 
ATOM     28  HE1 TRP d   1       3.004   3.594  -8.384  0.00  0.00     0.128 HD
ATOM     29  CZ2 TRP d   1       0.761   4.872  -6.800  0.00  0.00     0.024 A 
ATOM     30  CD2 TRP d   1       2.301   6.241  -8.307  0.00  0.00    -0.011 A 
ATOM     31  CH2 TRP d   1      -0.212   5.811  -6.602  0.00  0.00     0.002 A 
ATOM     32  CZ3 TRP d   1      -0.020   6.993  -7.298  0.00  0.00     0.001 A 
ATOM     33  CE3 TRP d   1       1.180   7.227  -8.197  0.00  0.00     0.013 A 
ENDBRANCH  23  24
ENDBRANCH  22  23
BRANCH  22  34
ATOM     34  C   TRP d   1       7.978   5.069 -10.127  0.00  0.00     0.197 C 
ATOM     35  O   TRP d   1       8.876   4.319  -9.606  0.00  0.00    -0.646 OA
ATOM     36  OXT TRP d   1       8.110   6.068 -10.882  0.00  0.00    -0.646 OA
ENDBRANCH  22  34
ENDBRANCH   3  22
TORSDOF 9
