@<TRIPOS>MOLECULE
*****
 59 61 0 0 0
SMALL
GASTEIGER

@<TRIPOS>ATOM
      1 C           1.3231    0.0658   -0.7237 C.3     1  UNL1        0.0790
      2 O           2.6497   -0.0182   -0.1845 O.3     1  UNL1       -0.4915
      3 C           3.1377    0.7688    0.8459 C.ar    1  UNL1        0.1615
      4 C           4.3602    1.3855    0.5212 C.ar    1  UNL1       -0.0163
      5 C           5.1848    1.9625    1.5035 C.ar    1  UNL1       -0.0581
      6 C           4.7695    2.0230    2.8273 C.ar    1  UNL1       -0.0581
      7 C           3.5547    1.4494    3.1743 C.ar    1  UNL1       -0.0163
      8 C           2.7634    0.7794    2.2174 C.ar    1  UNL1        0.1626
      9 O           1.7368    0.1067    2.8579 O.3     1  UNL1       -0.4791
     10 C           0.9231   -0.5770    1.9518 C.3     1  UNL1        0.1668
     11 C          -0.1802   -1.5761    2.3593 C.2     1  UNL1        0.2667
     12 O          -0.3976   -1.7485    3.5516 O.2     1  UNL1       -0.2705
     13 N          -0.9657   -2.1787    1.2671 N.am    1  UNL1       -0.2323
     14 N          -2.2942   -3.0293    1.5936 N.am    1  UNL1       -0.2454
     15 C          -3.3989   -3.1188    0.6511 C.2     1  UNL1        0.1533
     16 S          -3.2277   -2.6374   -0.9467 S.2     1  UNL1       -0.0170
     17 N          -4.6409   -3.6628    1.2141 N.am    1  UNL1       -0.2626
     18 C          -5.9218   -3.8899    0.5980 C.2     1  UNL1        0.2531
     19 O          -6.0604   -3.9558   -0.6522 O.2     1  UNL1       -0.2697
     20 C          -7.2136   -4.1882    1.3660 C.ar    1  UNL1        0.0786
     21 C          -7.8566   -5.3891    0.9646 C.ar    1  UNL1       -0.0461
     22 C          -9.1668   -5.7203    1.3585 C.ar    1  UNL1       -0.0608
     23 C          -9.8580   -4.8986    2.2342 C.ar    1  UNL1       -0.0583
     24 C          -9.2692   -3.7086    2.6390 C.ar    1  UNL1       -0.0192
     25 C          -7.9903   -3.3148    2.1778 C.ar    1  UNL1        0.1326
     26 O          -7.7692   -2.0145    2.5745 O.3     1  UNL1       -0.4909
     27 C          -6.4965   -1.5303    2.2556 C.3     1  UNL1        0.0936
     28 C          -6.1824   -0.1599    2.8708 C.3     1  UNL1        0.0066
     29 C          -4.8672    0.3459    2.3738 C.ar    1  UNL1       -0.0442
     30 C          -3.9062   -0.6011    2.3983 C.ar    1  UNL1       -0.0585
     31 C          -2.6218   -0.2124    2.2839 C.ar    1  UNL1       -0.0615
     32 C          -2.1921    0.9714    1.7691 C.ar    1  UNL1       -0.0617
     33 C          -3.1204    1.9657    1.8046 C.ar    1  UNL1       -0.0615
     34 C          -4.4488    1.6638    2.1652 C.ar    1  UNL1       -0.0585
     35 H           1.2832   -0.4785   -1.6711 H       1  UNL1        0.0660
     36 H           0.9425    1.0842   -0.8004 H       1  UNL1        0.0660
     37 H           0.5870   -0.5384   -0.1993 H       1  UNL1        0.0660
     38 H           4.7140    1.3723   -0.5079 H       1  UNL1        0.0655
     39 H           6.1717    2.3352    1.2395 H       1  UNL1        0.0619
     40 H           5.3945    2.4772    3.5932 H       1  UNL1        0.0619
     41 H           3.2434    1.4515    4.2187 H       1  UNL1        0.0655
     42 H           1.5807   -1.2348    1.3896 H       1  UNL1        0.0795
     43 H           0.4674    0.2597    1.4215 H       1  UNL1        0.0795
     44 H          -1.0919   -1.6606    0.3902 H       1  UNL1        0.1729
     45 H          -2.4897   -2.9907    2.5901 H       1  UNL1        0.1718
     46 H          -4.6572   -3.7894    2.2192 H       1  UNL1        0.1569
     47 H          -7.3573   -6.0644    0.2691 H       1  UNL1        0.0626
     48 H          -9.6601   -6.6037    0.9553 H       1  UNL1        0.0618
     49 H         -10.8598   -5.1562    2.5717 H       1  UNL1        0.0619
     50 H          -9.8376   -3.0347    3.2818 H       1  UNL1        0.0654
     51 H          -6.3622   -1.4948    1.1680 H       1  UNL1        0.0700
     52 H          -5.8308   -2.2522    2.7285 H       1  UNL1        0.0700
     53 H          -6.0581   -0.3186    3.9521 H       1  UNL1        0.0346
     54 H          -6.9676    0.5646    2.6944 H       1  UNL1        0.0346
     55 H          -4.0757   -1.6078    2.7412 H       1  UNL1        0.0620
     56 H          -2.0416   -0.8970    2.8342 H       1  UNL1        0.0618
     57 H          -1.1615    1.1804    1.5459 H       1  UNL1        0.0618
     58 H          -2.7489    2.9757    1.6811 H       1  UNL1        0.0618
     59 H          -5.1252    2.4821    2.3501 H       1  UNL1        0.0620
@<TRIPOS>BOND
     1     1     2    1
     2     2     3    1
     3     3     4   ar
     4     4     5   ar
     5     5     6   ar
     6     6     7   ar
     7     7     8   ar
     8     3     8   ar
     9     8     9    1
    10     9    10    1
    11    10    11    1
    12    11    12    2
    13    11    13   am
    14    13    14    1
    15    14    15    1
    16    15    16    2
    17    15    17    1
    18    17    18   am
    19    18    19    2
    20    18    20    1
    21    20    21   ar
    22    21    22   ar
    23    22    23   ar
    24    23    24   ar
    25    24    25   ar
    26    20    25   ar
    27    25    26    1
    28    26    27    1
    29    27    28    1
    30    28    29    1
    31    29    30   ar
    32    30    31   ar
    33    31    32   ar
    34    32    33   ar
    35    33    34   ar
    36    29    34   ar
    37     1    35    1
    38     1    36    1
    39     1    37    1
    40     4    38    1
    41     5    39    1
    42     6    40    1
    43     7    41    1
    44    10    42    1
    45    10    43    1
    46    13    44    1
    47    14    45    1
    48    17    46    1
    49    21    47    1
    50    22    48    1
    51    23    49    1
    52    24    50    1
    53    27    51    1
    54    27    52    1
    55    28    53    1
    56    28    54    1
    57    30    55    1
    58    31    56    1
    59    32    57    1
    60    33    58    1
    61    34    59    1
