@<TRIPOS>MOLECULE
*****
 66 69 0 0 0
SMALL
GASTEIGER

@<TRIPOS>ATOM
      1 O           0.9935   -0.0085    0.1497 O.2     1  UNL1       -0.2741
      2 C           2.2299   -0.0110    0.1254 C.2     1  UNL1        0.2341
      3 C           2.9722    0.0855   -1.1621 C.3     1  UNL1        0.0655
      4 C           2.0384    0.1688   -2.3698 C.3     1  UNL1       -0.0233
      5 N           2.8363    0.2660   -3.6743 N.4     1  UNL1        0.2374
      6 C           3.4599    1.6491   -3.8562 C.3     1  UNL1       -0.0187
      7 C           4.4245    1.6550   -5.0638 C.3     1  UNL1        0.0401
      8 N           5.4827    0.6375   -4.9169 N.3     1  UNL1       -0.2815
      9 C           6.2626    0.7489   -3.6257 C.3     1  UNL1        0.0613
     10 C           7.2241   -0.4348   -3.4772 C.ar    1  UNL1       -0.0259
     11 C           7.1480   -1.3314   -2.3946 C.ar    1  UNL1       -0.0568
     12 C           8.1729   -2.2518   -2.1854 C.ar    1  UNL1       -0.0614
     13 C           9.2441   -2.3150   -3.0765 C.ar    1  UNL1       -0.0617
     14 C           9.2969   -1.4669   -4.1797 C.ar    1  UNL1       -0.0614
     15 C           8.2742   -0.5572   -4.3994 C.ar    1  UNL1       -0.0568
     16 C           6.9408    2.1154   -3.3599 C.ar    1  UNL1       -0.0259
     17 C           8.3009    2.2162   -3.0276 C.ar    1  UNL1       -0.0568
     18 C           8.8894    3.4391   -2.7126 C.ar    1  UNL1       -0.0614
     19 C           8.1539    4.6124   -2.7889 C.ar    1  UNL1       -0.0617
     20 C           6.8097    4.5551   -3.0912 C.ar    1  UNL1       -0.0614
     21 C           6.2152    3.3212   -3.3142 C.ar    1  UNL1       -0.0568
     22 C           4.7831   -0.6692   -5.0355 C.3     1  UNL1        0.0401
     23 C           3.8100   -0.9150   -3.8706 C.3     1  UNL1       -0.0187
     24 N           2.9852   -0.1148    1.2604 N.am    1  UNL1       -0.2350
     25 N           4.4119   -0.1437    1.3662 N.am    1  UNL1       -0.2456
     26 C           4.9766   -0.1847    2.6523 C.2     1  UNL1        0.1510
     27 S           3.9712   -0.1804    4.0100 S.2     1  UNL1       -0.0171
     28 N           6.3808   -0.1909    2.6546 N.am    1  UNL1       -0.2958
     29 C           7.2040   -0.3568    3.8138 C.ar    1  UNL1        0.0326
     30 C           8.3725    0.3972    3.9941 C.ar    1  UNL1       -0.0405
     31 C           9.1767    0.1964    5.1326 C.ar    1  UNL1       -0.0600
     32 C           8.8033   -0.7262    6.1099 C.ar    1  UNL1       -0.0616
     33 C           7.6601   -1.4906    5.9247 C.ar    1  UNL1       -0.0600
     34 C           6.8892   -1.3226    4.7744 C.ar    1  UNL1       -0.0405
     35 H           3.5845   -0.8164   -1.2107 H       1  UNL1        0.0411
     36 H           3.6162    0.9660   -1.1021 H       1  UNL1        0.0411
     37 H           1.3871    1.0513   -2.3319 H       1  UNL1        0.0819
     38 H           1.4030   -0.7179   -2.4667 H       1  UNL1        0.0819
     39 H           2.1560    0.1895   -4.4426 H       1  UNL1        0.2034
     40 H           3.9680    1.8723   -2.9179 H       1  UNL1        0.0827
     41 H           2.6637    2.3910   -3.9649 H       1  UNL1        0.0827
     42 H           4.8746    2.6297   -5.2684 H       1  UNL1        0.0479
     43 H           3.8473    1.4777   -5.9804 H       1  UNL1        0.0479
     44 H           5.5903    0.6533   -2.7660 H       1  UNL1        0.0562
     45 H           6.3238   -1.3129   -1.6874 H       1  UNL1        0.0621
     46 H           8.1642   -2.8983   -1.3100 H       1  UNL1        0.0618
     47 H          10.0501   -3.0241   -2.9086 H       1  UNL1        0.0618
     48 H          10.1548   -1.4738   -4.8460 H       1  UNL1        0.0618
     49 H           8.3404    0.1444   -5.2306 H       1  UNL1        0.0621
     50 H           8.9586    1.3525   -2.9916 H       1  UNL1        0.0621
     51 H           9.9320    3.4625   -2.4114 H       1  UNL1        0.0618
     52 H           8.6244    5.5701   -2.6028 H       1  UNL1        0.0618
     53 H           6.2040    5.4555   -3.1454 H       1  UNL1        0.0618
     54 H           5.1525    3.3940   -3.4616 H       1  UNL1        0.0621
     55 H           5.5031   -1.4907   -5.1154 H       1  UNL1        0.0479
     56 H           4.2250   -0.7003   -5.9808 H       1  UNL1        0.0479
     57 H           4.3893   -1.0244   -2.9577 H       1  UNL1        0.0827
     58 H           3.2182   -1.8242   -3.9957 H       1  UNL1        0.0827
     59 H           2.4856   -0.1833    2.1524 H       1  UNL1        0.1728
     60 H           4.9846   -0.0520    0.5381 H       1  UNL1        0.1718
     61 H           6.8802    0.1045    1.8249 H       1  UNL1        0.1539
     62 H           8.6528    1.1938    3.3097 H       1  UNL1        0.0636
     63 H          10.0939    0.7660    5.2737 H       1  UNL1        0.0618
     64 H           9.3974   -0.8541    7.0124 H       1  UNL1        0.0618
     65 H           7.3612   -2.2280    6.6650 H       1  UNL1        0.0618
     66 H           6.0394   -1.9830    4.6393 H       1  UNL1        0.0636
@<TRIPOS>UNITY_ATOM_ATTR
5 1
charge 1
@<TRIPOS>BOND
     1     1     2    2
     2     2     3    1
     3     3     4    1
     4     4     5    1
     5     5     6    1
     6     6     7    1
     7     7     8    1
     8     8     9    1
     9     9    10    1
    10    10    11   ar
    11    11    12   ar
    12    12    13   ar
    13    13    14   ar
    14    14    15   ar
    15    10    15   ar
    16     9    16    1
    17    16    17   ar
    18    17    18   ar
    19    18    19   ar
    20    19    20   ar
    21    20    21   ar
    22    16    21   ar
    23     8    22    1
    24    22    23    1
    25     5    23    1
    26     2    24   am
    27    24    25    1
    28    25    26    1
    29    26    27    2
    30    26    28    1
    31    28    29    1
    32    29    30   ar
    33    30    31   ar
    34    31    32   ar
    35    32    33   ar
    36    33    34   ar
    37    29    34   ar
    38     3    35    1
    39     3    36    1
    40     4    37    1
    41     4    38    1
    42     5    39    1
    43     6    40    1
    44     6    41    1
    45     7    42    1
    46     7    43    1
    47     9    44    1
    48    11    45    1
    49    12    46    1
    50    13    47    1
    51    14    48    1
    52    15    49    1
    53    17    50    1
    54    18    51    1
    55    19    52    1
    56    20    53    1
    57    21    54    1
    58    22    55    1
    59    22    56    1
    60    23    57    1
    61    23    58    1
    62    24    59    1
    63    25    60    1
    64    28    61    1
    65    30    62    1
    66    31    63    1
    67    32    64    1
    68    33    65    1
    69    34    66    1
