REMARK  5 active torsions:
REMARK  status: ('A' for Active; 'I' for Inactive)
REMARK    1  A    between atoms: C_2  and  C_12 
REMARK    2  A    between atoms: C_2  and  O_3 
REMARK    3  A    between atoms: O_3  and  C_4 
REMARK       I    between atoms: C_12  and  N_14 
REMARK    4  A    between atoms: N_14  and  N_15 
REMARK    5  A    between atoms: N_15  and  C_16 
ROOT
ATOM      1  C   UNL d   1       0.453  -0.442   1.301  0.00  0.00     0.070 A 
ATOM      2  C   UNL d   1       0.978  -0.842   2.529  0.00  0.00     0.038 A 
ATOM      3  C   UNL d   1       0.236  -1.086   3.670  0.00  0.00     0.025 A 
ATOM      4  C   UNL d   1      -1.131  -0.994   3.612  0.00  0.00     0.044 A 
ATOM      5  C   UNL d   1      -1.851  -1.195   4.823  0.00  0.00     0.099 C 
ATOM      6  N   UNL d   1      -2.357  -1.344   5.864  0.00  0.00    -0.191 NA
ATOM      7  C   UNL d   1      -1.731  -0.695   2.385  0.00  0.00     0.025 A 
ATOM      8  C   UNL d   1      -0.946  -0.410   1.238  0.00  0.00     0.038 A 
ENDROOT
BRANCH   1   9
ATOM      9  O   UNL d   1       1.153  -0.119   0.165  0.00  0.00    -0.337 OA
BRANCH   9  10
ATOM     10  C   UNL d   1       2.605  -0.047   0.033  0.00  0.00     0.218 C 
ATOM     11  C   UNL d   1       3.386  -0.654   1.175  0.00  0.00     0.050 C 
BRANCH  10  12
ATOM     12  C   UNL d   1       3.110  -0.739  -1.274  0.00  0.00     0.265 C 
ATOM     13  O   UNL d   1       2.344  -1.178  -2.133  0.00  0.00    -0.269 OA
ATOM     14  N   UNL d   1       4.507  -0.847  -1.405  0.00  0.00    -0.267 N 
ATOM     15  H   UNL d   1       5.168  -0.396  -0.782  0.00  0.00     0.190 HD
BRANCH  14  16
ATOM     16  N   UNL d   1       5.017  -1.454  -2.556  0.00  0.00    -0.295 N 
ATOM     17  H   UNL d   1       4.349  -1.704  -3.290  0.00  0.00     0.187 HD
BRANCH  16  18
ATOM     18  C   UNL d   1       6.399  -1.587  -2.774  0.00  0.00     0.090 A 
ATOM     19  C   UNL d   1       7.290  -1.956  -1.753  0.00  0.00     0.037 A 
ATOM     20  C   UNL d   1       8.662  -2.127  -2.009  0.00  0.00     0.048 A 
ATOM     21  C   UNL d   1       9.164  -1.911  -3.288  0.00  0.00     0.158 A 
ATOM     22  F   UNL d   1      10.469  -2.104  -3.527  0.00  0.00    -0.203 F 
ATOM     23  C   UNL d   1       8.317  -1.502  -4.304  0.00  0.00     0.195 A 
ATOM     24  F   UNL d   1       8.811  -1.268  -5.529  0.00  0.00    -0.199 F 
ATOM     25  C   UNL d   1       6.954  -1.337  -4.048  0.00  0.00     0.185 A 
ATOM     26  F   UNL d   1       6.160  -0.916  -5.046  0.00  0.00    -0.200 F 
ENDBRANCH  16  18
ENDBRANCH  14  16
ENDBRANCH  10  12
ENDBRANCH   9  10
ENDBRANCH   1   9
TORSDOF 5
