@<TRIPOS>MOLECULE
*****
 69 71 0 0 0
SMALL
GASTEIGER

@<TRIPOS>ATOM
      1 C           1.0023    0.0984    0.0546 C.3     1  UNL1       -0.0307
      2 C           2.5223    0.1127    0.0550 C.3     1  UNL1        0.0868
      3 O           2.9790    0.7794   -1.1272 O.3     1  UNL1       -0.4922
      4 C           4.3306    0.7436   -1.3450 C.ar    1  UNL1        0.1206
      5 C           4.9024    1.8524   -1.9736 C.ar    1  UNL1       -0.0182
      6 C           6.2641    1.8504   -2.3399 C.ar    1  UNL1       -0.0359
      7 C           7.0860    0.7617   -2.0179 C.ar    1  UNL1        0.0483
      8 N           8.4866    0.7926   -2.3548 N.pl3   1  UNL1       -0.2163
      9 S           9.5260   -0.4519   -1.8503 S.O2    1  UNL1        0.0723
     10 O           9.4836   -0.5133   -0.3988 O.2     1  UNL1       -0.1500
     11 O           9.2262   -1.6102   -2.6574 O.2     1  UNL1       -0.1500
     12 C          11.1908    0.0340   -2.2458 C.ar    1  UNL1        0.1086
     13 C          12.1998   -0.9352   -2.3917 C.ar    1  UNL1       -0.0333
     14 C          13.5531   -0.5465   -2.5508 C.ar    1  UNL1       -0.0386
     15 C          13.8922    0.8101   -2.6525 C.ar    1  UNL1        0.0335
     16 N          15.2354    1.2210   -2.9375 N.am    1  UNL1       -0.2855
     17 C          15.6091    2.5455   -3.1563 C.2     1  UNL1        0.2172
     18 O          14.8416    3.5048   -3.0893 O.2     1  UNL1       -0.2755
     19 C          17.0665    2.8174   -3.5201 C.3     1  UNL1        0.0248
     20 C          17.2418    4.3455   -3.6782 C.3     1  UNL1       -0.0347
     21 C          18.6492    4.8137   -4.0395 C.3     1  UNL1        0.0454
     22 C          18.6820    6.3301   -4.1580 C.2     1  UNL1        0.3071
     23 O          17.7157    7.0672   -3.9899 O.2     1  UNL1       -0.2509
     24 O          19.9291    6.7779   -4.4780 O.3     1  UNL1       -0.4646
     25 C          20.0026    8.2127   -4.6029 C.3     1  UNL1        0.0928
     26 C          21.4225    8.5933   -4.9735 C.3     1  UNL1       -0.0146
     27 C          21.6128   10.1038   -5.1481 C.3     1  UNL1       -0.0246
     28 C          23.0358   10.4993   -5.4819 C.ar    1  UNL1       -0.0472
     29 C          24.0559    9.5509   -5.6536 C.ar    1  UNL1       -0.0586
     30 C          25.3823    9.9407   -5.8035 C.ar    1  UNL1       -0.0615
     31 C          25.6994   11.2901   -5.8874 C.ar    1  UNL1       -0.0617
     32 C          24.6936   12.2491   -5.7767 C.ar    1  UNL1       -0.0615
     33 C          23.3690   11.8582   -5.5656 C.ar    1  UNL1       -0.0586
     34 C          12.8549    1.7387   -2.4920 C.ar    1  UNL1       -0.0386
     35 C          11.5259    1.3721   -2.2911 C.ar    1  UNL1       -0.0333
     36 C           6.4913   -0.3449   -1.4114 C.ar    1  UNL1       -0.0359
     37 C           5.1330   -0.3581   -1.0783 C.ar    1  UNL1       -0.0182
     38 H           0.6196   -0.3396    0.9819 H       1  UNL1        0.0262
     39 H           0.6222   -0.4908   -0.7874 H       1  UNL1        0.0262
     40 H           0.6013    1.1104   -0.0529 H       1  UNL1        0.0262
     41 H           2.8589   -0.9269    0.1121 H       1  UNL1        0.0694
     42 H           2.8838    0.6625    0.9306 H       1  UNL1        0.0694
     43 H           4.2852    2.7258   -2.1772 H       1  UNL1        0.0655
     44 H           6.6506    2.7077   -2.8852 H       1  UNL1        0.0638
     45 H           8.8749    1.6605   -2.7083 H       1  UNL1        0.1737
     46 H          11.9430   -1.9945   -2.3603 H       1  UNL1        0.0638
     47 H          14.3147   -1.3240   -2.5780 H       1  UNL1        0.0637
     48 H          15.9272    0.4913   -3.0663 H       1  UNL1        0.1548
     49 H          17.3074    2.3150   -4.4622 H       1  UNL1        0.0358
     50 H          17.7200    2.4438   -2.7266 H       1  UNL1        0.0358
     51 H          16.9366    4.8393   -2.7436 H       1  UNL1        0.0275
     52 H          16.5438    4.7108   -4.4465 H       1  UNL1        0.0275
     53 H          18.9463    4.3752   -4.9972 H       1  UNL1        0.0378
     54 H          19.3497    4.5023   -3.2586 H       1  UNL1        0.0378
     55 H          19.7333    8.6793   -3.6484 H       1  UNL1        0.0697
     56 H          19.3193    8.5490   -5.3906 H       1  UNL1        0.0697
     57 H          21.6920    8.0723   -5.9007 H       1  UNL1        0.0301
     58 H          22.1012    8.2171   -4.1961 H       1  UNL1        0.0301
     59 H          21.3377   10.6053   -4.2099 H       1  UNL1        0.0314
     60 H          20.9412   10.4801   -5.9300 H       1  UNL1        0.0314
     61 H          23.8483    8.4849   -5.6537 H       1  UNL1        0.0620
     62 H          26.1604    9.1837   -5.8402 H       1  UNL1        0.0618
     63 H          26.7311   11.5901   -6.0414 H       1  UNL1        0.0618
     64 H          24.9462   13.3043   -5.8319 H       1  UNL1        0.0618
     65 H          22.6015   12.6215   -5.4534 H       1  UNL1        0.0620
     66 H          13.0279    2.8057   -2.4919 H       1  UNL1        0.0637
     67 H          10.8036    2.1648   -2.1450 H       1  UNL1        0.0638
     68 H           7.0577   -1.2421   -1.1857 H       1  UNL1        0.0638
     69 H           4.7397   -1.2655   -0.6365 H       1  UNL1        0.0655
@<TRIPOS>BOND
     1     1     2    1
     2     2     3    1
     3     3     4    1
     4     4     5   ar
     5     5     6   ar
     6     6     7   ar
     7     7     8    1
     8     8     9    1
     9     9    10    2
    10     9    11    2
    11     9    12    1
    12    12    13   ar
    13    13    14   ar
    14    14    15   ar
    15    15    16    1
    16    16    17   am
    17    17    18    2
    18    17    19    1
    19    19    20    1
    20    20    21    1
    21    21    22    1
    22    22    23    2
    23    22    24    1
    24    24    25    1
    25    25    26    1
    26    26    27    1
    27    27    28    1
    28    28    29   ar
    29    29    30   ar
    30    30    31   ar
    31    31    32   ar
    32    32    33   ar
    33    28    33   ar
    34    15    34   ar
    35    34    35   ar
    36    12    35   ar
    37     7    36   ar
    38    36    37   ar
    39     4    37   ar
    40     1    38    1
    41     1    39    1
    42     1    40    1
    43     2    41    1
    44     2    42    1
    45     5    43    1
    46     6    44    1
    47     8    45    1
    48    13    46    1
    49    14    47    1
    50    16    48    1
    51    19    49    1
    52    19    50    1
    53    20    51    1
    54    20    52    1
    55    21    53    1
    56    21    54    1
    57    25    55    1
    58    25    56    1
    59    26    57    1
    60    26    58    1
    61    27    59    1
    62    27    60    1
    63    29    61    1
    64    30    62    1
    65    31    63    1
    66    32    64    1
    67    33    65    1
    68    34    66    1
    69    35    67    1
    70    36    68    1
    71    37    69    1
