@<TRIPOS>MOLECULE
*****
 67 70 0 0 0
SMALL
GASTEIGER

@<TRIPOS>ATOM
      1 C           2.4599   -0.3529   -0.0051 C.3     1  UNL1       -0.0380
      2 C           0.9970   -0.0824    0.0083 C.ar    1  UNL1       -0.0292
      3 C           0.2099   -1.2479    0.0067 C.ar    1  UNL1       -0.0571
      4 C          -1.1679   -1.1815    0.0005 C.ar    1  UNL1       -0.0614
      5 C          -1.7760    0.0662   -0.0050 C.ar    1  UNL1       -0.0600
      6 C          -0.9986    1.2472    0.0061 C.ar    1  UNL1       -0.0402
      7 C           0.4154    1.2043    0.0149 C.ar    1  UNL1        0.0367
      8 N           1.1410    2.4576    0.0141 N.am    1  UNL1       -0.2795
      9 C           2.5295    2.6710   -0.0161 C.2     1  UNL1        0.2753
     10 O           3.4098    1.8146    0.0367 O.2     1  UNL1       -0.2675
     11 C           3.0607    3.9994   -0.1232 C.ar    1  UNL1        0.1870
     12 N           4.1433    4.1962   -0.8536 N.ar    1  UNL1       -0.1364
     13 N           4.7526    5.3810   -0.5729 N.ar    1  UNL1       -0.1423
     14 C           4.1091    6.0423    0.3645 C.ar    1  UNL1        0.1399
     15 C           4.5303    7.4025    0.7876 C.3     1  UNL1        0.1395
     16 O           3.6799    7.8408    1.8464 O.3     1  UNL1       -0.4853
     17 C           3.8445    9.1351    2.2347 C.ar    1  UNL1        0.1211
     18 C           4.0850   10.1838    1.3557 C.ar    1  UNL1       -0.0192
     19 C           4.1893   11.4947    1.8308 C.ar    1  UNL1       -0.0462
     20 C           4.0463   11.7855    3.1924 C.ar    1  UNL1        0.0369
     21 C           4.1641   13.1895    3.7308 C.2     1  UNL1        0.2441
     22 O           4.0520   13.4026    4.9338 O.2     1  UNL1       -0.2702
     23 N           4.4077   14.2244    2.8269 N.am    1  UNL1       -0.3112
     24 C           4.5551   15.6033    3.2701 C.3     1  UNL1        0.0167
     25 C           4.8347   16.5921    2.1146 C.3     1  UNL1        0.0031
     26 C           4.9887   18.0262    2.6478 C.3     1  UNL1       -0.0305
     27 N           5.2591   19.0645    1.5325 N.4     1  UNL1        0.2353
     28 C           4.3394   20.2851    1.6970 C.3     1  UNL1       -0.0319
     29 C           4.6298   21.3440    0.6383 C.3     1  UNL1       -0.0123
     30 C           6.0848   21.7696    0.7240 C.3     1  UNL1       -0.0434
     31 C           6.9446   20.5609    0.3911 C.3     1  UNL1       -0.0123
     32 C           6.7395   19.4671    1.4414 C.3     1  UNL1       -0.0319
     33 C           3.7834   10.7188    4.0713 C.ar    1  UNL1       -0.0462
     34 C           3.6745    9.4032    3.5915 C.ar    1  UNL1       -0.0192
     35 S           2.7026    5.2423    0.9717 S.2     1  UNL1       -0.0426
     36 H           2.7487   -1.4019   -0.0108 H       1  UNL1        0.0278
     37 H           2.8685    0.0445    0.9298 H       1  UNL1        0.0278
     38 H           2.8557    0.0569   -0.9413 H       1  UNL1        0.0278
     39 H           0.7015   -2.2195    0.0061 H       1  UNL1        0.0621
     40 H          -1.7432   -2.1032   -0.0030 H       1  UNL1        0.0618
     41 H          -2.8634    0.1092   -0.0191 H       1  UNL1        0.0618
     42 H          -1.5447    2.1886    0.0034 H       1  UNL1        0.0636
     43 H           0.5613    3.2898   -0.0086 H       1  UNL1        0.1552
     44 H           4.4560    8.0279   -0.1089 H       1  UNL1        0.0769
     45 H           5.5717    7.3746    1.1292 H       1  UNL1        0.0769
     46 H           4.1657   10.0235    0.2860 H       1  UNL1        0.0654
     47 H           4.3751   12.2606    1.0915 H       1  UNL1        0.0626
     48 H           4.4818   14.0226    1.8437 H       1  UNL1        0.1490
     49 H           5.3732   15.6301    3.9991 H       1  UNL1        0.0464
     50 H           3.6344   15.8806    3.7975 H       1  UNL1        0.0464
     51 H           4.0067   16.5421    1.3961 H       1  UNL1        0.0332
     52 H           5.7398   16.2820    1.5800 H       1  UNL1        0.0332
     53 H           5.8084   18.0975    3.3696 H       1  UNL1        0.0815
     54 H           4.0596   18.3241    3.1460 H       1  UNL1        0.0815
     55 H           5.0113   18.6294    0.6339 H       1  UNL1        0.2033
     56 H           4.5080   20.6866    2.7027 H       1  UNL1        0.0814
     57 H           3.3055   19.9345    1.6104 H       1  UNL1        0.0814
     58 H           3.9842   22.2180    0.7821 H       1  UNL1        0.0317
     59 H           4.4125   20.9513   -0.3635 H       1  UNL1        0.0317
     60 H           6.3128   22.1244    1.7385 H       1  UNL1        0.0269
     61 H           6.2899   22.6001    0.0408 H       1  UNL1        0.0269
     62 H           7.9965   20.8664    0.3486 H       1  UNL1        0.0317
     63 H           6.6848   20.1840   -0.6067 H       1  UNL1        0.0317
     64 H           7.0448   19.8287    2.4301 H       1  UNL1        0.0814
     65 H           7.3157   18.5729    1.1835 H       1  UNL1        0.0814
     66 H           3.6566   10.8952    5.1388 H       1  UNL1        0.0626
     67 H           3.4623    8.5855    4.2799 H       1  UNL1        0.0654
@<TRIPOS>UNITY_ATOM_ATTR
27 1
charge 1
@<TRIPOS>BOND
     1     1     2    1
     2     2     3   ar
     3     3     4   ar
     4     4     5   ar
     5     5     6   ar
     6     6     7   ar
     7     2     7   ar
     8     7     8    1
     9     8     9   am
    10     9    10    2
    11     9    11    1
    12    11    12   ar
    13    12    13   ar
    14    13    14   ar
    15    14    15    1
    16    15    16    1
    17    16    17    1
    18    17    18   ar
    19    18    19   ar
    20    19    20   ar
    21    20    21    1
    22    21    22    2
    23    21    23   am
    24    23    24    1
    25    24    25    1
    26    25    26    1
    27    26    27    1
    28    27    28    1
    29    28    29    1
    30    29    30    1
    31    30    31    1
    32    31    32    1
    33    27    32    1
    34    20    33   ar
    35    33    34   ar
    36    17    34   ar
    37    14    35   ar
    38    11    35   ar
    39     1    36    1
    40     1    37    1
    41     1    38    1
    42     3    39    1
    43     4    40    1
    44     5    41    1
    45     6    42    1
    46     8    43    1
    47    15    44    1
    48    15    45    1
    49    18    46    1
    50    19    47    1
    51    23    48    1
    52    24    49    1
    53    24    50    1
    54    25    51    1
    55    25    52    1
    56    26    53    1
    57    26    54    1
    58    27    55    1
    59    28    56    1
    60    28    57    1
    61    29    58    1
    62    29    59    1
    63    30    60    1
    64    30    61    1
    65    31    62    1
    66    31    63    1
    67    32    64    1
    68    32    65    1
    69    33    66    1
    70    34    67    1
