@<TRIPOS>MOLECULE
*****
 49 49 0 0 0
SMALL
GASTEIGER

@<TRIPOS>ATOM
      1 C           0.8584    0.0334    0.4603 C.3     1  UNL1       -0.0652
      2 C           2.3620   -0.0159    0.5460 C.3     1  UNL1       -0.0545
      3 C           2.8892    1.4139    0.6717 C.3     1  UNL1       -0.0377
      4 C           4.3979    1.3841    0.6984 C.3     1  UNL1        0.0091
      5 N           4.9477    2.7154    0.6433 N.pl3   1  UNL1       -0.3432
      6 C           6.2958    2.9649    0.4570 C.ar    1  UNL1        0.0412
      7 C           6.8700    3.8754    1.3896 C.ar    1  UNL1       -0.0401
      8 C           8.2088    4.2616    1.3365 C.ar    1  UNL1       -0.0600
      9 C           9.0319    3.6820    0.3868 C.ar    1  UNL1       -0.0609
     10 C           8.4945    2.7667   -0.5358 C.ar    1  UNL1       -0.0460
     11 C           7.1203    2.4008   -0.5440 C.ar    1  UNL1        0.0798
     12 C           6.6975    1.4131   -1.6415 C.2     1  UNL1        0.3414
     13 O           7.5285    0.7230   -2.2215 O.2     1  UNL1       -0.2449
     14 O           5.3594    1.3458   -1.9245 O.3     1  UNL1       -0.4517
     15 C           4.7697    0.1565   -2.5879 C.3     1  UNL1        0.1688
     16 C           3.1748    0.1307   -2.5527 C.2     1  UNL1        0.2581
     17 O           2.5880    1.1706   -2.2570 O.2     1  UNL1       -0.2716
     18 N           2.4581   -1.0425   -2.8941 N.am    1  UNL1       -0.2374
     19 C           1.0676   -1.1573   -2.7192 C.2     1  UNL1        0.3060
     20 O           0.3665   -0.3716   -2.1264 O.2     1  UNL1       -0.2524
     21 N           0.4527   -2.2962   -3.2247 N.am    1  UNL1       -0.2991
     22 C          -1.0133   -2.4274   -2.9851 C.3     1  UNL1        0.0128
     23 C          -1.6949   -3.4357   -3.9067 C.3     1  UNL1       -0.0402
     24 C          -3.1798   -3.6191   -3.5968 C.3     1  UNL1       -0.0639
     25 H           0.4608   -0.9607    0.2348 H       1  UNL1        0.0230
     26 H           0.5540    0.7497   -0.3099 H       1  UNL1        0.0230
     27 H           0.4203    0.3930    1.3876 H       1  UNL1        0.0230
     28 H           2.7649   -0.5456   -0.3209 H       1  UNL1        0.0263
     29 H           2.6921   -0.6269    1.3886 H       1  UNL1        0.0263
     30 H           2.4924    1.8764    1.5775 H       1  UNL1        0.0280
     31 H           2.5385    2.0524   -0.1518 H       1  UNL1        0.0280
     32 H           4.6932    0.7633   -0.1281 H       1  UNL1        0.0461
     33 H           4.7838    0.8416    1.5622 H       1  UNL1        0.0461
     34 H           4.3220    3.5155    0.6546 H       1  UNL1        0.1461
     35 H           6.2600    4.2692    2.2044 H       1  UNL1        0.0636
     36 H           8.5993    5.0024    2.0327 H       1  UNL1        0.0618
     37 H          10.0895    3.9404    0.3619 H       1  UNL1        0.0618
     38 H           9.1732    2.3475   -1.2765 H       1  UNL1        0.0626
     39 H           5.1866   -0.7517   -2.1311 H       1  UNL1        0.0796
     40 H           5.0389    0.2364   -3.6379 H       1  UNL1        0.0796
     41 H           2.9185   -1.7442   -3.4413 H       1  UNL1        0.1592
     42 H           0.8178   -2.7211   -4.0602 H       1  UNL1        0.1502
     43 H          -1.5100   -1.4524   -3.0979 H       1  UNL1        0.0462
     44 H          -1.1518   -2.7242   -1.9365 H       1  UNL1        0.0462
     45 H          -1.1915   -4.4029   -3.8214 H       1  UNL1        0.0278
     46 H          -1.5926   -3.1002   -4.9447 H       1  UNL1        0.0278
     47 H          -3.3340   -3.9824   -2.5754 H       1  UNL1        0.0230
     48 H          -3.6186   -4.3543   -4.2814 H       1  UNL1        0.0230
     49 H          -3.7376   -2.6835   -3.7137 H       1  UNL1        0.0230
@<TRIPOS>BOND
     1     1     2    1
     2     2     3    1
     3     3     4    1
     4     4     5    1
     5     5     6    1
     6     6     7   ar
     7     7     8   ar
     8     8     9   ar
     9     9    10   ar
    10    10    11   ar
    11     6    11   ar
    12    11    12    1
    13    12    13    2
    14    12    14    1
    15    14    15    1
    16    15    16    1
    17    16    17    2
    18    16    18   am
    19    18    19   am
    20    19    20    2
    21    19    21   am
    22    21    22    1
    23    22    23    1
    24    23    24    1
    25     1    25    1
    26     1    26    1
    27     1    27    1
    28     2    28    1
    29     2    29    1
    30     3    30    1
    31     3    31    1
    32     4    32    1
    33     4    33    1
    34     5    34    1
    35     7    35    1
    36     8    36    1
    37     9    37    1
    38    10    38    1
    39    15    39    1
    40    15    40    1
    41    18    41    1
    42    21    42    1
    43    22    43    1
    44    22    44    1
    45    23    45    1
    46    23    46    1
    47    24    47    1
    48    24    48    1
    49    24    49    1
