REMARK  5 active torsions:
REMARK  status: ('A' for Active; 'I' for Inactive)
REMARK    1  A    between atoms: O_2  and  C_3 
REMARK    2  A    between atoms: C_9  and  N_10 
REMARK       I    between atoms: N_10  and  C_11 
REMARK    3  A    between atoms: C_13  and  C_11 
REMARK    4  A    between atoms: C_13  and  N_15 
REMARK       I    between atoms: N_15  and  C_16 
REMARK    5  A    between atoms: C_16  and  C_18 
ROOT
ATOM      1  N   UNL d   1       6.814   3.913  -0.571  0.00  0.00    -0.323 N 
ATOM      2  C   UNL d   1       5.772   3.023  -0.808  0.00  0.00     0.244 C 
ATOM      3  O   UNL d   1       5.887   1.930  -1.360  0.00  0.00    -0.271 OA
ATOM      4  H   UNL d   1       6.600   4.772  -0.077  0.00  0.00     0.169 HD
ENDROOT
BRANCH   2   5
ATOM      5  C   UNL d   1       4.331   3.446  -0.459  0.00  0.00     0.173 C 
ATOM      6  C   UNL d   1       3.767   2.086   0.051  0.00  0.00     0.042 C 
BRANCH   5   7
ATOM      7  N   UNL d   1       3.513   3.907  -1.627  0.00  0.00    -0.344 N 
ATOM      8  C   UNL d   1       3.494   5.176  -2.226  0.00  0.00     0.252 C 
ATOM      9  O   UNL d   1       2.442   5.769  -2.343  0.00  0.00    -0.268 OA
ATOM     10  H   UNL d   1       2.562   3.551  -1.598  0.00  0.00     0.163 HD
BRANCH   8  11
ATOM     11  C   UNL d   1       4.740   5.742  -2.852  0.00  0.00     0.032 C 
ATOM     12  C   UNL d   1       4.832   7.015  -3.428  0.00  0.00     0.018 C 
ATOM     13  C   UNL d   1       6.052   7.484  -3.993  0.00  0.00     0.025 C 
ATOM     14  C   UNL d   1       7.191   6.704  -3.955  0.00  0.00     0.034 C 
ATOM     15 CL   UNL d   1       8.725   7.200  -4.542  0.00  0.00    -0.084 Cl
ATOM     16  C   UNL d   1       7.050   5.417  -3.526  0.00  0.00     0.025 C 
ATOM     17  C   UNL d   1       5.827   4.933  -3.063  0.00  0.00     0.018 C 
ENDBRANCH   8  11
ENDBRANCH   5   7
ENDBRANCH   2   5
BRANCH   1  18
ATOM     18  C   UNL d   1       8.131   3.832  -1.175  0.00  0.00     0.069 A 
ATOM     19  C   UNL d   1       9.060   4.865  -0.892  0.00  0.00     0.039 A 
ATOM     20  C   UNL d   1      10.311   4.936  -1.560  0.00  0.00    -0.060 A 
ATOM     21  C   UNL d   1      10.626   3.997  -2.546  0.00  0.00     0.009 A 
ATOM     22  C   UNL d   1      11.328   6.000  -1.249  0.00  0.00     0.048 C 
ATOM     23  C   UNL d   1       9.720   3.005  -2.874  0.00  0.00     0.039 A 
ATOM     24  C   UNL d   1       8.488   2.924  -2.214  0.00  0.00     0.095 A 
BRANCH  24  25
ATOM     25  O   UNL d   1       7.516   2.333  -2.998  0.00  0.00    -0.354 OA
ATOM     26  C   UNL d   1       7.617   0.919  -3.086  0.00  0.00     0.210 C 
ENDBRANCH  24  25
ENDBRANCH   1  18
TORSDOF 5
