@<TRIPOS>MOLECULE
*****
 35 36 0 0 0
SMALL
GASTEIGER

@<TRIPOS>ATOM
      1 C           2.4778   -0.0318   -0.0129 C.3     1  UNL1       -0.0397
      2 C           0.9779   -0.0331    0.0019 C.ar    1  UNL1       -0.0503
      3 C           0.2087   -1.2027    0.0026 C.ar    1  UNL1       -0.0571
      4 C          -1.2086   -1.1464   -0.0038 C.ar    1  UNL1       -0.0402
      5 C          -1.8820    0.0871   -0.0109 C.ar    1  UNL1        0.0348
      6 N          -3.3209    0.1582   -0.0360 N.am    1  UNL1       -0.2681
      7 C          -4.0496    1.3513   -0.0570 C.2     1  UNL1        0.3233
      8 O          -3.5363    2.4741   -0.0524 O.2     1  UNL1       -0.2507
      9 N          -5.4433    1.2238   -0.0824 N.am    1  UNL1       -0.1905
     10 N          -6.1458    2.4102   -0.1023 N.2     1  UNL1       -0.1864
     11 C          -7.4366    2.4707   -0.1301 C.2     1  UNL1        0.0564
     12 C          -8.1636    3.7931   -0.1585 C.ar    1  UNL1        0.0370
     13 C          -9.5693    3.8041   -0.1771 C.ar    1  UNL1       -0.0356
     14 C         -10.2642    5.0239   -0.2191 C.ar    1  UNL1        0.0187
     15 BR        -12.1585    5.0403   -0.2428 Br      1  UNL1       -0.0503
     16 C          -9.5822    6.2394   -0.2439 C.ar    1  UNL1       -0.0443
     17 C          -8.1894    6.2406   -0.2172 C.ar    1  UNL1       -0.0185
     18 C          -7.4890    5.0286   -0.1750 C.ar    1  UNL1        0.1255
     19 O          -6.1268    5.0670   -0.1523 O.3     1  UNL1       -0.5061
     20 C          -1.0816    1.2349    0.0027 C.ar    1  UNL1       -0.0402
     21 C           0.3134    1.1853    0.0060 C.ar    1  UNL1       -0.0571
     22 H           2.8883   -1.0447    0.0005 H       1  UNL1        0.0278
     23 H           2.8642    0.5037    0.8622 H       1  UNL1        0.0278
     24 H           2.8427    0.4716   -0.9159 H       1  UNL1        0.0278
     25 H           0.7114   -2.1689    0.0046 H       1  UNL1        0.0621
     26 H          -1.7485   -2.0899   -0.0052 H       1  UNL1        0.0636
     27 H          -3.8222   -0.7170   -0.0522 H       1  UNL1        0.1564
     28 H          -5.9341    0.3435   -0.0990 H       1  UNL1        0.1788
     29 H          -8.0559    1.5592   -0.1372 H       1  UNL1        0.0852
     30 H         -10.1330    2.8759   -0.1606 H       1  UNL1        0.0636
     31 H         -10.1203    7.1850   -0.2833 H       1  UNL1        0.0630
     32 H          -7.6615    7.1906   -0.2307 H       1  UNL1        0.0654
     33 H          -5.7799    5.9693   -0.1781 H       1  UNL1        0.2922
     34 H          -1.4975    2.2326    0.0079 H       1  UNL1        0.0636
     35 H           0.8626    2.1241    0.0075 H       1  UNL1        0.0621
@<TRIPOS>BOND
     1     1     2    1
     2     2     3   ar
     3     3     4   ar
     4     4     5   ar
     5     5     6    1
     6     6     7   am
     7     7     8    2
     8     7     9   am
     9     9    10    1
    10    10    11    2
    11    11    12    1
    12    12    13   ar
    13    13    14   ar
    14    14    15    1
    15    14    16   ar
    16    16    17   ar
    17    17    18   ar
    18    12    18   ar
    19    18    19    1
    20     5    20   ar
    21    20    21   ar
    22     2    21   ar
    23     1    22    1
    24     1    23    1
    25     1    24    1
    26     3    25    1
    27     4    26    1
    28     6    27    1
    29     9    28    1
    30    11    29    1
    31    13    30    1
    32    16    31    1
    33    17    32    1
    34    19    33    1
    35    20    34    1
    36    21    35    1
