REMARK  10 active torsions:
REMARK  status: ('A' for Active; 'I' for Inactive)
REMARK    1  A    between atoms: C_7  and  N_8 
REMARK       I    between atoms: N_8  and  C_9 
REMARK    2  A    between atoms: N_8  and  C_20 
REMARK    3  A    between atoms: C_9  and  C_11 
REMARK    4  A    between atoms: C_14  and  C_15 
REMARK       I    between atoms: C_15  and  N_16 
REMARK    5  A    between atoms: C_18  and  N_19 
REMARK    6  A    between atoms: C_20  and  C_21 
REMARK    7  A    between atoms: C_20  and  C_29 
REMARK       I    between atoms: C_21  and  N_23 
REMARK    8  A    between atoms: N_23  and  C_24 
REMARK    9  A    between atoms: C_24  and  C_25 
REMARK   10  A    between atoms: C_25  and  C_26 
ROOT
ATOM      1  N   UNL d   1      -1.629   2.321   0.071  0.00  0.00    -0.295 N 
ATOM      2  C   UNL d   1      -3.215   2.202  -0.098  0.00  0.00     0.269 C 
ATOM      3  O   UNL d   1      -3.811   2.989  -0.842  0.00  0.00    -0.266 OA
ENDROOT
BRANCH   1   4
ATOM      4  C   UNL d   1      -0.675   1.117   0.080  0.00  0.00     0.045 C 
ATOM      5  C   UNL d   1      -1.074  -0.151  -0.366  0.00  0.00    -0.035 C 
ATOM      6  C   UNL d   1      -0.405  -1.345  -0.139  0.00  0.00     0.009 C 
ATOM      7  C   UNL d   1      -2.388  -0.386  -0.912  0.00  0.00     0.050 C 
ATOM      8  C   UNL d   1       0.922  -1.298   0.080  0.00  0.00     0.007 C 
ATOM      9  C   UNL d   1       1.496  -0.053   0.278  0.00  0.00    -0.060 C 
ATOM     10  C   UNL d   1       2.988  -0.034   0.205  0.00  0.00     0.048 C 
ATOM     11  C   UNL d   1       0.681   1.117   0.458  0.00  0.00     0.037 C 
ENDBRANCH   1   4
BRANCH   1  12
ATOM     12  C   UNL d   1      -0.815   3.728  -0.141  0.00  0.00     0.218 C 
BRANCH  12  13
ATOM     13  C   UNL d   1       0.117   3.857  -1.465  0.00  0.00     0.245 C 
ATOM     14  O   UNL d   1       0.029   4.806  -2.250  0.00  0.00    -0.271 OA
ATOM     15  N   UNL d   1       1.169   2.978  -1.650  0.00  0.00    -0.359 N 
ATOM     16  H   UNL d   1       1.220   2.102  -1.189  0.00  0.00     0.162 HD
BRANCH  15  17
ATOM     17  C   UNL d   1       2.027   3.001  -2.805  0.00  0.00     0.123 C 
BRANCH  17  18
ATOM     18  C   UNL d   1       3.024   1.837  -2.772  0.00  0.00     0.023 C 
BRANCH  18  19
ATOM     19  C   UNL d   1       3.957   1.827  -3.978  0.00  0.00    -0.021 C 
ATOM     20  C   UNL d   1       4.764   3.122  -3.997  0.00  0.00     0.009 C 
ATOM     21  C   UNL d   1       4.907   0.629  -3.932  0.00  0.00     0.009 C 
ENDBRANCH  18  19
ENDBRANCH  17  18
ENDBRANCH  15  17
ENDBRANCH  12  13
BRANCH  12  22
ATOM     22  C   UNL d   1      -1.599   5.061   0.047  0.00  0.00    -0.026 C 
ATOM     23  C   UNL d   1      -2.943   4.991   0.334  0.00  0.00     0.013 C 
ATOM     24  C   UNL d   1      -3.882   5.969   0.081  0.00  0.00     0.043 C 
ATOM     25  C   UNL d   1      -3.407   7.238  -0.046  0.00  0.00     0.116 C 
ATOM     26  F   UNL d   1      -4.280   8.251  -0.051  0.00  0.00    -0.206 F 
ATOM     27  C   UNL d   1      -2.028   7.459  -0.026  0.00  0.00     0.043 C 
ATOM     28  C   UNL d   1      -1.114   6.373  -0.029  0.00  0.00     0.013 C 
ENDBRANCH  12  22
ENDBRANCH   1  12
BRANCH   2  29
ATOM     29  C   UNL d   1      -4.149   1.150   0.540  0.00  0.00     0.115 C 
ATOM     30  S   UNL d   1      -5.518   0.648  -0.467  0.00  0.00     0.019 SA
ATOM     31  N   UNL d   1      -5.538  -0.946   0.021  0.00  0.00    -0.203 NA
ATOM     32  C   UNL d   1      -4.706  -1.089   1.057  0.00  0.00     0.155 C 
ATOM     33  C   UNL d   1      -3.995   0.135   1.497  0.00  0.00     0.065 C 
BRANCH  32  34
ATOM     34  C   UNL d   1      -4.308  -2.442   1.536  0.00  0.00     0.270 C 
ATOM     35  N   UNL d   1      -5.102  -3.492   1.122  0.00  0.00    -0.365 N 
ATOM     36  H   UNL d   1      -5.886  -3.352   0.507  0.00  0.00     0.159 HD
ATOM     37  H   UNL d   1      -4.948  -4.375   1.586  0.00  0.00     0.159 HD
ATOM     38  O   UNL d   1      -3.333  -2.655   2.204  0.00  0.00    -0.266 OA
ENDBRANCH  32  34
BRANCH  33  39
ATOM     39  N   UNL d   1      -2.926   0.057   2.351  0.00  0.00    -0.299 NA
ATOM     40  H   UNL d   1      -2.542  -0.898   2.465  0.00  0.00     0.124 HD
ATOM     41  H   UNL d   1      -2.130   0.665   2.176  0.00  0.00     0.124 HD
ENDBRANCH  33  39
ENDBRANCH   2  29
TORSDOF 10
