@<TRIPOS>MOLECULE
*****
 68 71 0 0 0
SMALL
GASTEIGER

@<TRIPOS>ATOM
      1 C          16.2111    1.8764   14.5286 C.3     1  UNL1       -0.0307
      2 C          16.0586    0.4013   14.8327 C.3     1  UNL1        0.0870
      3 O          14.7483   -0.1724   14.8362 O.3     1  UNL1       -0.4884
      4 C          14.5293   -1.4490   15.3605 C.ar    1  UNL1        0.1663
      5 C          13.7469   -2.2742   14.5064 C.ar    1  UNL1       -0.0039
      6 C          13.1830   -3.5156   14.9239 C.ar    1  UNL1        0.0442
      7 C          12.1843   -4.2053   13.9995 C.2     1  UNL1        0.2500
      8 O          11.9215   -3.6651   12.9499 O.2     1  UNL1       -0.2698
      9 N          11.5432   -5.3793   14.4441 N.am    1  UNL1       -0.2593
     10 C          10.5039   -5.9274   13.6849 C.ar    1  UNL1        0.1880
     11 N           9.3806   -6.4257   14.1585 N.ar    1  UNL1       -0.1256
     12 N           8.5253   -6.8666   13.1383 N.ar    1  UNL1       -0.1445
     13 C           9.0577   -6.8074   11.9226 C.ar    1  UNL1        0.1087
     14 C           8.2703   -7.2525   10.6277 C.3     1  UNL1        0.0381
     15 C           8.9972   -7.2863    9.2241 C.3     1  UNL1       -0.0255
     16 N           8.0992   -7.8665    7.7655 N.4     1  UNL1        0.2390
     17 C           7.2994   -9.1064    6.5928 C.3     1  UNL1       -0.0275
     18 C           7.2772  -10.8595    6.9960 C.3     1  UNL1        0.0131
     19 C           7.9719  -11.3042    8.2923 C.ar    1  UNL1       -0.0342
     20 C           7.9687  -12.4990    8.9884 C.ar    1  UNL1       -0.0579
     21 C           8.4927  -12.5163   10.3099 C.ar    1  UNL1       -0.0615
     22 C           9.1023  -11.4067   10.8946 C.ar    1  UNL1       -0.0613
     23 C           9.2425  -10.2867   10.1524 C.ar    1  UNL1       -0.0533
     24 C           8.6903  -10.2809    8.8983 C.ar    1  UNL1        0.0004
     25 C           8.7656   -9.0722    8.1178 C.3     1  UNL1       -0.0056
     26 S          10.6789   -6.2090   11.9808 S.2     1  UNL1       -0.0351
     27 C          13.5090   -3.9944   16.1922 C.ar    1  UNL1       -0.0039
     28 C          14.2680   -3.2055   17.0742 C.ar    1  UNL1        0.1663
     29 O          14.4163   -3.7718   18.3410 O.3     1  UNL1       -0.4884
     30 C          15.1110   -2.9894   19.3253 C.3     1  UNL1        0.0870
     31 C          15.2028   -3.6549   20.6655 C.3     1  UNL1       -0.0307
     32 C          14.7598   -1.9257   16.6773 C.ar    1  UNL1        0.2038
     33 O          15.3415   -1.2921   17.7430 O.3     1  UNL1       -0.4855
     34 C          16.0601   -0.1502   17.5281 C.3     1  UNL1        0.0871
     35 C          16.8735    0.5561   18.5642 C.3     1  UNL1       -0.0307
     36 H          17.2027    2.2007   14.9009 H       1  UNL1        0.0262
     37 H          15.4835    2.4577   15.1168 H       1  UNL1        0.0262
     38 H          16.1223    2.0973   13.4768 H       1  UNL1        0.0262
     39 H          16.3131    0.6652   15.8131 H       1  UNL1        0.0694
     40 H          16.8486   -0.2838   14.5145 H       1  UNL1        0.0694
     41 H          13.5437   -1.9169   13.4952 H       1  UNL1        0.0663
     42 H          11.5060   -5.5792   15.4337 H       1  UNL1        0.1571
     43 H           7.4274   -6.5673   10.5423 H       1  UNL1        0.0386
     44 H           7.8543   -8.2301   10.8965 H       1  UNL1        0.0386
     45 H           9.9689   -7.8302    9.2580 H       1  UNL1        0.0818
     46 H           9.3223   -6.2790    8.9531 H       1  UNL1        0.0818
     47 H           8.5649   -7.2612    7.0779 H       1  UNL1        0.2037
     48 H           7.9082   -9.0123    5.6698 H       1  UNL1        0.0818
     49 H           6.2828   -8.7468    6.4282 H       1  UNL1        0.0818
     50 H           7.7132  -11.4351    6.1573 H       1  UNL1        0.0365
     51 H           6.2209  -11.1711    7.0241 H       1  UNL1        0.0365
     52 H           7.5778  -13.4228    8.5717 H       1  UNL1        0.0620
     53 H           8.4243  -13.4062   10.9263 H       1  UNL1        0.0618
     54 H           9.5079  -11.3729   11.8966 H       1  UNL1        0.0618
     55 H           9.7270   -9.4185   10.5667 H       1  UNL1        0.0622
     56 H           7.7056   -9.1901    8.4671 H       1  UNL1        0.0867
     57 H           9.3051   -9.3506    7.2106 H       1  UNL1        0.0867
     58 H          13.1677   -4.9610   16.5478 H       1  UNL1        0.0663
     59 H          14.5687   -2.0512   19.5156 H       1  UNL1        0.0694
     60 H          16.1499   -2.8310   19.0020 H       1  UNL1        0.0694
     61 H          14.2028   -3.8187   21.0678 H       1  UNL1        0.0262
     62 H          15.7625   -3.0016   21.3465 H       1  UNL1        0.0262
     63 H          15.7215   -4.6077   20.5692 H       1  UNL1        0.0262
     64 H          15.2887    0.5750   17.2437 H       1  UNL1        0.0694
     65 H          16.8501   -0.5037   16.8554 H       1  UNL1        0.0694
     66 H          16.2859    0.7791   19.4482 H       1  UNL1        0.0262
     67 H          17.2244    1.4932   18.1034 H       1  UNL1        0.0262
     68 H          17.7551   -0.0361   18.8140 H       1  UNL1        0.0262
@<TRIPOS>UNITY_ATOM_ATTR
16 1
charge 1
@<TRIPOS>BOND
     1     1     2    1
     2     2     3    1
     3     3     4    1
     4     4     5   ar
     5     5     6   ar
     6     6     7    1
     7     7     8    2
     8     7     9   am
     9     9    10    1
    10    10    11   ar
    11    11    12   ar
    12    12    13   ar
    13    13    14    1
    14    14    15    1
    15    16    17    1
    16    17    18    1
    17    18    19    1
    18    19    20   ar
    19    20    21   ar
    20    21    22   ar
    21    22    23   ar
    22    23    24   ar
    23    19    24   ar
    24    24    25    1
    25    16    25    1
    26    13    26   ar
    27    10    26   ar
    28     6    27   ar
    29    27    28   ar
    30    28    29    1
    31    29    30    1
    32    30    31    1
    33    28    32   ar
    34     4    32   ar
    35    32    33    1
    36    33    34    1
    37    34    35    1
    38    16    15    1
    39     1    36    1
    40     1    37    1
    41     1    38    1
    42     2    39    1
    43     2    40    1
    44     5    41    1
    45     9    42    1
    46    14    43    1
    47    14    44    1
    48    15    45    1
    49    15    46    1
    50    16    47    1
    51    17    48    1
    52    17    49    1
    53    18    50    1
    54    18    51    1
    55    20    52    1
    56    21    53    1
    57    22    54    1
    58    23    55    1
    59    25    56    1
    60    25    57    1
    61    27    58    1
    62    30    59    1
    63    30    60    1
    64    31    61    1
    65    31    62    1
    66    31    63    1
    67    34    64    1
    68    34    65    1
    69    35    66    1
    70    35    67    1
    71    35    68    1
