REMARK  16 active torsions:
REMARK  status: ('A' for Active; 'I' for Inactive)
REMARK    1  A    between atoms: C_2  and  C_3 
REMARK       I    between atoms: C_2  and  N_17 
REMARK    2  A    between atoms: C_3  and  C_4 
REMARK    3  A    between atoms: C_4  and  C_5 
REMARK    4  A    between atoms: C_5  and  O_7 
REMARK    5  A    between atoms: O_7  and  C_8 
REMARK    6  A    between atoms: C_8  and  C_9 
REMARK    7  A    between atoms: C_9  and  C_10 
REMARK    8  A    between atoms: C_10  and  C_11 
REMARK    9  A    between atoms: N_17  and  C_18 
REMARK   10  A    between atoms: C_18  and  N_20 
REMARK   11  A    between atoms: N_20  and  C_21 
REMARK   12  A    between atoms: C_26  and  O_27 
REMARK   13  A    between atoms: O_27  and  C_28 
REMARK   14  A    between atoms: C_28  and  C_29 
REMARK   15  A    between atoms: C_29  and  C_30 
REMARK   16  A    between atoms: C_30  and  C_31 
ROOT
ATOM      1  C   UNL d   1       4.626  -0.334   1.584  0.00  0.00     0.178 C 
ATOM      2  S   UNL d   1       5.540  -1.555   0.864  0.00  0.00    -0.040 SA
ENDROOT
BRANCH   1   3
ATOM      3  N   UNL d   1       3.258  -0.052   1.290  0.00  0.00    -0.304 N 
ATOM      4  C   UNL d   1       2.388  -0.436   0.248  0.00  0.00     0.224 C 
ATOM      5  O   UNL d   1       1.198  -0.122   0.319  0.00  0.00    -0.273 OA
ATOM      6  H   UNL d   1       2.776   0.568   1.932  0.00  0.00     0.171 HD
BRANCH   4   7
ATOM      7  C   UNL d   1       2.987  -1.078  -1.010  0.00  0.00     0.113 C 
BRANCH   7   8
ATOM      8  C   UNL d   1       2.012  -1.467  -2.127  0.00  0.00     0.120 C 
BRANCH   8   9
ATOM      9  C   UNL d   1       2.835  -1.808  -3.377  0.00  0.00     0.259 C 
ATOM     10  O   UNL d   1       4.074  -1.725  -3.434  0.00  0.00    -0.265 OA
BRANCH   9  11
ATOM     11  O   UNL d   1       2.070  -2.147  -4.446  0.00  0.00    -0.321 OA
BRANCH  11  12
ATOM     12  C   UNL d   1       2.838  -2.536  -5.608  0.00  0.00     0.179 C 
BRANCH  12  13
ATOM     13  C   UNL d   1       1.888  -2.983  -6.710  0.00  0.00     0.031 C 
BRANCH  13  14
ATOM     14  C   UNL d   1       2.644  -3.488  -7.944  0.00  0.00     0.041 C 
BRANCH  14  15
ATOM     15  C   UNL d   1       1.687  -3.974  -9.005  0.00  0.00    -0.058 A 
ATOM     16  C   UNL d   1       0.820  -3.084  -9.653  0.00  0.00     0.007 A 
ATOM     17  C   UNL d   1      -0.163  -3.563 -10.519  0.00  0.00     0.001 A 
ATOM     18  C   UNL d   1      -0.227  -4.923 -10.818  0.00  0.00     0.000 A 
ATOM     19  C   UNL d   1       0.661  -5.811 -10.214  0.00  0.00     0.001 A 
ATOM     20  C   UNL d   1       1.607  -5.340  -9.304  0.00  0.00     0.007 A 
ENDBRANCH  14  15
ENDBRANCH  13  14
ENDBRANCH  12  13
ENDBRANCH  11  12
ENDBRANCH   9  11
ENDBRANCH   8   9
ENDBRANCH   7   8
ENDBRANCH   4   7
ENDBRANCH   1   3
BRANCH   1  21
ATOM     21  N   UNL d   1       5.206   0.671   2.396  0.00  0.00    -0.331 N 
ATOM     22  H   UNL d   1       4.700   1.015   3.204  0.00  0.00     0.168 HD
BRANCH  21  23
ATOM     23  C   UNL d   1       6.615   0.944   2.378  0.00  0.00     0.068 A 
ATOM     24  C   UNL d   1       7.354   0.625   3.534  0.00  0.00     0.032 A 
ATOM     25  C   UNL d   1       8.745   0.786   3.565  0.00  0.00     0.002 A 
ATOM     26  C   UNL d   1       9.421   1.220   2.429  0.00  0.00     0.003 A 
ATOM     27  C   UNL d   1       8.697   1.564   1.286  0.00  0.00     0.039 A 
ATOM     28  C   UNL d   1       7.295   1.469   1.248  0.00  0.00     0.095 A 
BRANCH  28  29
ATOM     29  O   UNL d   1       6.772   1.966   0.067  0.00  0.00    -0.349 OA
BRANCH  29  30
ATOM     30  C   UNL d   1       5.362   2.014  -0.045  0.00  0.00     0.176 C 
BRANCH  30  31
ATOM     31  C   UNL d   1       4.835   2.277  -1.433  0.00  0.00     0.031 C 
BRANCH  31  32
ATOM     32  C   UNL d   1       3.306   2.209  -1.433  0.00  0.00     0.041 C 
BRANCH  32  33
ATOM     33  C   UNL d   1       2.754   2.442  -2.794  0.00  0.00    -0.058 A 
ATOM     34  C   UNL d   1       2.756   3.730  -3.262  0.00  0.00     0.007 A 
ATOM     35  C   UNL d   1       2.172   4.004  -4.486  0.00  0.00     0.001 A 
ATOM     36  C   UNL d   1       1.613   2.989  -5.272  0.00  0.00     0.000 A 
ATOM     37  C   UNL d   1       1.644   1.682  -4.836  0.00  0.00     0.001 A 
ATOM     38  C   UNL d   1       2.266   1.436  -3.627  0.00  0.00     0.007 A 
ENDBRANCH  32  33
ENDBRANCH  31  32
ENDBRANCH  30  31
ENDBRANCH  29  30
ENDBRANCH  28  29
ENDBRANCH  21  23
ENDBRANCH   1  21
TORSDOF 16
