@<TRIPOS>MOLECULE
*****
 45 45 0 0 0
SMALL
GASTEIGER

@<TRIPOS>ATOM
      1 C          19.4826   -9.7730   -3.4759 C.3     1  UNL1       -0.0570
      2 C          18.9196  -11.1860   -3.3157 C.3     1  UNL1        0.0215
      3 C          17.4026  -11.1283   -3.2098 C.2     1  UNL1        0.2169
      4 O          16.8147  -10.0483   -3.2737 O.2     1  UNL1       -0.2755
      5 N          16.7662  -12.3475   -2.9954 N.am    1  UNL1       -0.2855
      6 C          15.3529  -12.4523   -2.9364 C.ar    1  UNL1        0.0335
      7 C          14.7006  -13.3284   -2.0616 C.ar    1  UNL1       -0.0387
      8 C          13.2790  -13.4212   -2.0508 C.ar    1  UNL1       -0.0387
      9 C          12.4970  -12.6211   -2.9015 C.ar    1  UNL1        0.0349
     10 N          11.0640  -12.6174   -2.8412 N.am    1  UNL1       -0.2695
     11 C          10.2544  -11.7902   -3.6015 C.2     1  UNL1        0.3040
     12 O          10.6409  -10.9822   -4.4516 O.2     1  UNL1       -0.2525
     13 N           8.9062  -11.8939   -3.3870 N.am    1  UNL1       -0.2963
     14 C           8.0141  -11.0322   -4.1664 C.3     1  UNL1        0.0438
     15 C           6.5103  -11.1988   -3.8595 C.3     1  UNL1        0.1018
     16 C           5.8051   -9.8364   -3.8132 C.3     1  UNL1       -0.0324
     17 O           6.3635  -11.8033   -2.5593 O.3     1  UNL1       -0.3850
     18 C           5.8267  -12.0575   -4.9448 C.3     1  UNL1        0.0772
     19 O           6.4489  -13.3380   -5.0316 O.3     1  UNL1       -0.3801
     20 C           5.8583  -14.1290   -6.0512 C.3     1  UNL1        0.0366
     21 C          13.1865  -11.7993   -3.7927 C.ar    1  UNL1       -0.0387
     22 C          14.5753  -11.7001   -3.8023 C.ar    1  UNL1       -0.0387
     23 H          20.5732   -9.7782   -3.5526 H       1  UNL1        0.0234
     24 H          19.2052   -9.1454   -2.6203 H       1  UNL1        0.0234
     25 H          19.0802   -9.2916   -4.3755 H       1  UNL1        0.0234
     26 H          19.3349  -11.6422   -2.4114 H       1  UNL1        0.0356
     27 H          19.2061  -11.7919   -4.1818 H       1  UNL1        0.0356
     28 H          17.3137  -13.1633   -2.7562 H       1  UNL1        0.1548
     29 H          15.2738  -13.8881   -1.3256 H       1  UNL1        0.0637
     30 H          12.8158  -14.1232   -1.3607 H       1  UNL1        0.0637
     31 H          10.6185  -13.1963   -2.1435 H       1  UNL1        0.1564
     32 H           8.4779  -12.4744   -2.6789 H       1  UNL1        0.1503
     33 H           8.2144  -11.2100   -5.2327 H       1  UNL1        0.0491
     34 H           8.3248   -9.9944   -3.9841 H       1  UNL1        0.0491
     35 H           4.7449   -9.9573   -3.5593 H       1  UNL1        0.0258
     36 H           5.8689   -9.3122   -4.7730 H       1  UNL1        0.0258
     37 H           6.2372   -9.1973   -3.0358 H       1  UNL1        0.0258
     38 H           5.4206  -12.0006   -2.4320 H       1  UNL1        0.2103
     39 H           5.8912  -11.5544   -5.9194 H       1  UNL1        0.0589
     40 H           4.7686  -12.2036   -4.6968 H       1  UNL1        0.0589
     41 H           6.3798  -15.0880   -6.0881 H       1  UNL1        0.0524
     42 H           5.9545  -13.6363   -7.0238 H       1  UNL1        0.0524
     43 H           4.8039  -14.3067   -5.8212 H       1  UNL1        0.0524
     44 H          12.6864  -11.1864   -4.5286 H       1  UNL1        0.0637
     45 H          15.0218  -11.0267   -4.5283 H       1  UNL1        0.0637
@<TRIPOS>BOND
     1     1     2    1
     2     2     3    1
     3     3     4    2
     4     3     5   am
     5     5     6    1
     6     6     7   ar
     7     7     8   ar
     8     8     9   ar
     9     9    10    1
    10    10    11   am
    11    11    12    2
    12    11    13   am
    13    13    14    1
    14    15    17    1
    15    15    18    1
    16    18    19    1
    17    19    20    1
    18     9    21   ar
    19    21    22   ar
    20     6    22   ar
    21    15    16    1
    22    15    14    1
    23     1    23    1
    24     1    24    1
    25     1    25    1
    26     2    26    1
    27     2    27    1
    28     5    28    1
    29     7    29    1
    30     8    30    1
    31    10    31    1
    32    13    32    1
    33    14    33    1
    34    14    34    1
    35    16    35    1
    36    16    36    1
    37    16    37    1
    38    17    38    1
    39    18    39    1
    40    18    40    1
    41    20    41    1
    42    20    42    1
    43    20    43    1
    44    21    44    1
    45    22    45    1
