@<TRIPOS>MOLECULE
*****
 65 69 0 0 0
SMALL
GASTEIGER

@<TRIPOS>ATOM
      1 C           0.8375    0.0985    0.0707 C.3     1  UNL1       -0.0597
      2 C           2.3351    0.1489    0.1785 C.3     1  UNL1       -0.0051
      3 C           3.0677    1.2804   -0.5216 C.3     1  UNL1        0.0421
      4 C           2.5926    2.6562   -0.1399 C.ar    1  UNL1        0.1997
      5 N           1.8312    2.9378    0.9045 N.ar    1  UNL1       -0.1075
      6 N           1.7416    4.2967    0.9822 N.ar    1  UNL1       -0.0228
      7 N           2.4268    4.8605    0.0028 N.ar    1  UNL1       -0.0434
      8 N           2.8037    3.8499   -0.8175 N.ar    1  UNL1       -0.2201
      9 C           3.5704    4.2208   -2.0276 C.3     1  UNL1        0.0704
     10 C           3.8265    3.1243   -3.1313 C.ar    1  UNL1       -0.0260
     11 C           5.1261    2.9343   -3.5738 C.ar    1  UNL1       -0.0568
     12 C           5.6963    1.6090   -4.0150 C.ar    1  UNL1       -0.0614
     13 C           4.9109    0.5072   -4.1407 C.ar    1  UNL1       -0.0617
     14 C           3.5681    0.7790   -3.9720 C.ar    1  UNL1       -0.0614
     15 C           3.0327    2.0592   -3.5123 C.ar    1  UNL1       -0.0568
     16 N           4.6847    0.9766   -0.3567 N.4     1  UNL1        0.2517
     17 C           5.0566   -0.2982   -1.0621 C.3     1  UNL1        0.0284
     18 C           4.8955   -1.5087   -0.3041 C.ar    1  UNL1        0.1492
     19 C           5.0149   -2.8062   -0.7083 C.ar    1  UNL1       -0.0154
     20 C           4.4593   -3.5464    0.3488 C.ar    1  UNL1       -0.0235
     21 C           3.9759   -2.6416    1.2679 C.ar    1  UNL1        0.0924
     22 O           4.3775   -1.3955    0.9331 O.2     1  UNL1       -0.4625
     23 C           5.4840    2.0558   -0.9978 C.3     1  UNL1        0.0003
     24 C           6.9417    2.2783   -1.3989 C.ar    1  UNL1        0.0588
     25 C           7.6388    2.5869   -2.5845 C.ar    1  UNL1       -0.0391
     26 C           9.0076    2.7301   -2.6582 C.ar    1  UNL1        0.0045
     27 C           9.8851    1.8954   -2.0102 C.ar    1  UNL1       -0.0108
     28 C          11.1089    2.3798   -1.5985 C.ar    1  UNL1        0.1208
     29 O          11.6127    1.7625   -0.5094 O.3     1  UNL1       -0.4951
     30 C          12.9412    2.1296   -0.2290 C.3     1  UNL1        0.0788
     31 C          11.5815    3.5317   -2.2165 C.ar    1  UNL1       -0.0179
     32 C          10.5852    4.3296   -2.7283 C.ar    1  UNL1       -0.0322
     33 C           9.2854    4.0068   -2.2752 C.ar    1  UNL1        0.0750
     34 N           8.6637    3.9863   -0.9721 N.ar    1  UNL1       -0.2126
     35 C           7.6864    2.9626   -0.5204 C.ar    1  UNL1        0.2213
     36 O           8.0755    1.8626    0.3522 O.3     1  UNL1       -0.4921
     37 H           0.5006   -0.7771    0.6356 H       1  UNL1        0.0232
     38 H           0.5410   -0.0313   -0.9749 H       1  UNL1        0.0232
     39 H           0.3757    0.9911    0.4805 H       1  UNL1        0.0232
     40 H           2.6017   -0.7719   -0.3442 H       1  UNL1        0.0322
     41 H           2.6441    0.1267    1.2240 H       1  UNL1        0.0322
     42 H           2.7995    1.0904   -1.5482 H       1  UNL1        0.0936
     43 H           4.5134    4.6072   -1.5651 H       1  UNL1        0.0560
     44 H           3.1222    5.1104   -2.4674 H       1  UNL1        0.0560
     45 H           5.6865    3.6963   -3.0233 H       1  UNL1        0.0621
     46 H           6.7438    1.2615   -3.9033 H       1  UNL1        0.0618
     47 H           5.3554   -0.5012   -4.1640 H       1  UNL1        0.0618
     48 H           2.9130   -0.0832   -4.0246 H       1  UNL1        0.0618
     49 H           1.9872    2.0845   -3.2409 H       1  UNL1        0.0621
     50 H           4.8544    0.9280    0.6540 H       1  UNL1        0.2049
     51 H           6.0942   -0.2395   -1.3931 H       1  UNL1        0.0898
     52 H           4.4092   -0.4075   -1.9333 H       1  UNL1        0.0898
     53 H           5.4069   -3.1219   -1.6684 H       1  UNL1        0.0654
     54 H           4.3784   -4.6161    0.4119 H       1  UNL1        0.0649
     55 H           3.3804   -2.6981    2.1684 H       1  UNL1        0.1029
     56 H           5.1125    2.9592   -0.5507 H       1  UNL1        0.0869
     57 H           5.0339    1.7925   -1.9015 H       1  UNL1        0.0869
     58 H           7.2823    3.4837   -3.1319 H       1  UNL1        0.0630
     59 H           9.4777    1.0588   -1.4337 H       1  UNL1        0.0661
     60 H          13.2703    1.5170    0.6078 H       1  UNL1        0.0660
     61 H          13.0263    3.1875    0.0455 H       1  UNL1        0.0660
     62 H          13.5406    1.8895   -1.1092 H       1  UNL1        0.0660
     63 H          12.6260    3.7920   -2.2504 H       1  UNL1        0.0655
     64 H          10.8824    5.1472   -3.4068 H       1  UNL1        0.0640
     65 H           7.6933    1.0030    0.0278 H       1  UNL1        0.2937
@<TRIPOS>UNITY_ATOM_ATTR
16 1
charge 1
@<TRIPOS>BOND
     1     1     2    1
     2     2     3    1
     3     3     4    1
     4     4     5   ar
     5     5     6   ar
     6     6     7   ar
     7     7     8   ar
     8     4     8   ar
     9     8     9    1
    10     9    10    1
    11    10    11   ar
    12    11    12   ar
    13    12    13   ar
    14    13    14   ar
    15    14    15   ar
    16    10    15   ar
    17     3    16    1
    18    16    17    1
    19    17    18    1
    20    18    19   ar
    21    19    20   ar
    22    20    21   ar
    23    21    22   ar
    24    18    22   ar
    25    16    23    1
    26    23    24    1
    27    24    25   ar
    28    25    26   ar
    29    26    27   ar
    30    27    28   ar
    31    28    29    1
    32    29    30    1
    33    28    31   ar
    34    31    32   ar
    35    32    33   ar
    36    26    33   ar
    37    33    34   ar
    38    34    35   ar
    39    24    35   ar
    40    35    36    1
    41     1    37    1
    42     1    38    1
    43     1    39    1
    44     2    40    1
    45     2    41    1
    46     3    42    1
    47     9    43    1
    48     9    44    1
    49    11    45    1
    50    12    46    1
    51    13    47    1
    52    14    48    1
    53    15    49    1
    54    16    50    1
    55    17    51    1
    56    17    52    1
    57    19    53    1
    58    20    54    1
    59    21    55    1
    60    23    56    1
    61    23    57    1
    62    25    58    1
    63    27    59    1
    64    30    60    1
    65    30    61    1
    66    30    62    1
    67    31    63    1
    68    32    64    1
    69    36    65    1
