@<TRIPOS>MOLECULE
*****
 50 51 0 0 0
SMALL
GASTEIGER

@<TRIPOS>ATOM
      1 C           0.0365  -10.6333    5.4555 C.3     1  UNL1       -0.0394
      2 C          -0.0017   -9.1111    4.5594 C.ar    1  UNL1       -0.0454
      3 C           0.3970   -8.1884    5.4941 C.ar    1  UNL1       -0.0521
      4 C           0.5746   -6.8972    5.0506 C.ar    1  UNL1        0.0178
      5 C           0.2622   -6.4168    3.7293 C.ar    1  UNL1        0.2944
      6 N           0.6469   -5.0158    3.5315 N.pl3   1  UNL1        0.0815
      7 O           1.1338   -4.6886    2.4373 O.2     1  UNL1        0.0415
      8 O           0.5771   -4.2681    4.5209 O.co2   1  UNL1       -0.5760
      9 C          -0.1749   -7.2211    2.6516 C.ar    1  UNL1        0.1147
     10 N          -0.6191   -6.7050    1.3664 N.am    1  UNL1       -0.2784
     11 C          -1.3225   -5.5071    1.2358 C.2     1  UNL1        0.2373
     12 O          -1.5769   -4.7827    2.1991 O.2     1  UNL1       -0.2734
     13 C          -1.9074   -5.1654   -0.1598 C.3     1  UNL1        0.0948
     14 C          -1.9283   -3.6182   -0.2098 C.3     1  UNL1       -0.0381
     15 N          -3.3033   -5.6550   -0.3832 N.pl3   1  UNL1       -0.3331
     16 C          -3.6791   -6.9926   -0.2358 C.ar    1  UNL1        0.0294
     17 C          -4.6101   -7.5359   -1.1174 C.ar    1  UNL1       -0.0407
     18 C          -5.0012   -8.8807   -1.0260 C.ar    1  UNL1       -0.0583
     19 C          -4.4293   -9.7253   -0.0869 C.ar    1  UNL1       -0.0404
     20 C          -3.7069   -9.1640    0.9439 C.ar    1  UNL1        0.0352
     21 N          -3.2990  -10.0624    1.9625 N.am    1  UNL1       -0.2836
     22 C          -2.5164   -9.7615    3.0405 C.2     1  UNL1        0.2427
     23 O          -2.6779   -8.6682    3.6612 O.2     1  UNL1       -0.2730
     24 C          -1.2092  -10.9609    3.3015 C.3     1  UNL1        0.1205
     25 O           0.3364  -11.0379    3.0833 O.3     1  UNL1       -0.3858
     26 C          -3.3855   -7.7900    0.8779 C.ar    1  UNL1       -0.0196
     27 C          -0.1982   -8.6144    2.9457 C.ar    1  UNL1       -0.0197
     28 C          -0.4355   -9.5479    1.4614 C.3     1  UNL1       -0.0375
     29 H           0.6544  -10.5838    6.3564 H       1  UNL1        0.0278
     30 H           0.5084  -11.4954    4.9554 H       1  UNL1        0.0278
     31 H          -0.9293  -11.0313    5.8477 H       1  UNL1        0.0278
     32 H           0.7284   -8.4932    6.4856 H       1  UNL1        0.0622
     33 H           1.0501   -6.2250    5.7600 H       1  UNL1        0.0686
     34 H          -0.8710   -7.3545    0.6372 H       1  UNL1        0.1551
     35 H          -1.2691   -5.5340   -0.9737 H       1  UNL1        0.0591
     36 H          -2.4777   -3.2013    0.6464 H       1  UNL1        0.0252
     37 H          -2.4064   -3.2211   -1.1090 H       1  UNL1        0.0252
     38 H          -0.9079   -3.2189   -0.1455 H       1  UNL1        0.0252
     39 H          -3.9870   -5.0373    0.0570 H       1  UNL1        0.1468
     40 H          -5.0566   -6.9057   -1.8822 H       1  UNL1        0.0636
     41 H          -5.7937   -9.2677   -1.6559 H       1  UNL1        0.0619
     42 H          -4.6335  -10.7917   -0.1015 H       1  UNL1        0.0636
     43 H          -3.3561  -11.0485    1.7512 H       1  UNL1        0.1549
     44 H          -1.3864  -11.8586    2.7362 H       1  UNL1        0.0654
     45 H          -1.5518  -11.2488    4.2728 H       1  UNL1        0.0654
     46 H           0.9449  -10.2833    3.3622 H       1  UNL1        0.2100
     47 H          -2.9058   -7.3221    1.7231 H       1  UNL1        0.0655
     48 H          -0.8986   -9.0210    0.6299 H       1  UNL1        0.0278
     49 H          -1.1874  -10.3489    1.4134 H       1  UNL1        0.0278
     50 H           0.4240  -10.1410    1.1365 H       1  UNL1        0.0278
@<TRIPOS>UNITY_ATOM_ATTR
6 1
charge 1
8 1
charge -1
@<TRIPOS>BOND
     1     1     2    1
     2     2     3   ar
     3     3     4   ar
     4     4     5   ar
     5     5     6    1
     6     6     7    2
     7     6     8    1
     8     5     9   ar
     9     9    10    1
    10    10    11   am
    11    11    12    2
    12    13    15    1
    13    15    16    1
    14    16    17   ar
    15    17    18   ar
    16    18    19   ar
    17    19    20   ar
    18    20    21    1
    19    21    22   am
    20    22    23    2
    21    22    24    1
    22    24    25    1
    23    20    26   ar
    24    16    26   ar
    25     9    27   ar
    26     2    27   ar
    27    27    28    1
    28    13    14    1
    29    13    11    1
    30     1    29    1
    31     1    30    1
    32     1    31    1
    33     3    32    1
    34     4    33    1
    35    10    34    1
    36    13    35    1
    37    14    36    1
    38    14    37    1
    39    14    38    1
    40    15    39    1
    41    17    40    1
    42    18    41    1
    43    19    42    1
    44    21    43    1
    45    24    44    1
    46    24    45    1
    47    25    46    1
    48    26    47    1
    49    28    48    1
    50    28    49    1
    51    28    50    1
