REMARK  11 active torsions:
REMARK  status: ('A' for Active; 'I' for Inactive)
REMARK    1  A    between atoms: O_2  and  C_3 
REMARK    2  A    between atoms: C_5  and  O_6 
REMARK    3  A    between atoms: C_8  and  O_9 
REMARK    4  A    between atoms: C_12  and  C_13 
REMARK    5  A    between atoms: C_14  and  C_15 
REMARK       I    between atoms: C_15  and  N_17 
REMARK    6  A    between atoms: N_17  and  N_18 
REMARK    7  A    between atoms: N_18  and  C_19 
REMARK    8  A    between atoms: C_19  and  N_21 
REMARK    9  A    between atoms: N_21  and  C_22 
REMARK   10  A    between atoms: C_22  and  C_23 
REMARK   11  A    between atoms: C_23  and  C_24 
ROOT
ATOM      1  C   UNL d   1      -0.616   0.654   2.825  0.00  0.00     0.259 C 
ATOM      2  O   UNL d   1      -1.127   1.572   3.478  0.00  0.00    -0.267 OA
ATOM      3  N   UNL d   1      -1.334  -0.467   2.418  0.00  0.00    -0.264 N 
ATOM      4  H   UNL d   1      -1.004  -1.153   1.738  0.00  0.00     0.190 HD
ENDROOT
BRANCH   1   5
ATOM      5  C   UNL d   1       0.812   0.726   2.355  0.00  0.00     0.076 C 
ATOM      6  C   UNL d   1       1.418   1.904   2.081  0.00  0.00     0.020 C 
BRANCH   6   7
ATOM      7  C   UNL d   1       2.607   2.098   1.190  0.00  0.00     0.000 C 
ATOM      8  C   UNL d   1       3.367   3.286   1.353  0.00  0.00     0.054 C 
ATOM      9  C   UNL d   1       4.523   3.566   0.596  0.00  0.00     0.102 C 
ATOM     10  C   UNL d   1       4.991   2.612  -0.316  0.00  0.00     0.104 C 
ATOM     11  C   UNL d   1       4.181   1.490  -0.580  0.00  0.00     0.077 C 
ATOM     12  C   UNL d   1       2.980   1.245   0.133  0.00  0.00     0.081 C 
BRANCH   9  13
ATOM     13  O   UNL d   1       5.223   4.737   0.678  0.00  0.00    -0.353 OA
ATOM     14  C   UNL d   1       4.789   5.777   1.530  0.00  0.00     0.210 C 
ENDBRANCH   9  13
BRANCH  10  15
ATOM     15  O   UNL d   1       6.195   2.648  -0.993  0.00  0.00    -0.353 OA
ATOM     16  C   UNL d   1       7.142   3.656  -0.614  0.00  0.00     0.210 C 
ENDBRANCH  10  15
BRANCH  12  17
ATOM     17  O   UNL d   1       2.352   0.065  -0.188  0.00  0.00    -0.355 OA
ATOM     18  C   UNL d   1       0.955   0.082  -0.494  0.00  0.00     0.210 C 
ENDBRANCH  12  17
ENDBRANCH   6   7
ENDBRANCH   1   5
BRANCH   3  19
ATOM     19  N   UNL d   1      -2.654  -0.713   2.955  0.00  0.00    -0.274 N 
ATOM     20  H   UNL d   1      -2.957  -0.035   3.650  0.00  0.00     0.189 HD
BRANCH  19  21
ATOM     21  C   UNL d   1      -3.351  -1.892   2.685  0.00  0.00     0.186 C 
ATOM     22  S   UNL d   1      -2.797  -3.022   1.567  0.00  0.00    -0.040 SA
BRANCH  21  23
ATOM     23  N   UNL d   1      -4.542  -2.034   3.405  0.00  0.00    -0.366 N 
ATOM     24  H   UNL d   1      -4.789  -1.339   4.097  0.00  0.00     0.161 HD
BRANCH  23  25
ATOM     25  C   UNL d   1      -5.427  -3.209   3.293  0.00  0.00     0.122 C 
BRANCH  25  26
ATOM     26  C   UNL d   1      -6.668  -3.214   4.199  0.00  0.00     0.023 C 
BRANCH  26  27
ATOM     27  C   UNL d   1      -7.537  -4.485   4.002  0.00  0.00    -0.021 C 
ATOM     28  C   UNL d   1      -6.760  -5.768   4.313  0.00  0.00     0.009 C 
ATOM     29  C   UNL d   1      -8.784  -4.433   4.889  0.00  0.00     0.009 C 
ENDBRANCH  26  27
ENDBRANCH  25  26
ENDBRANCH  23  25
ENDBRANCH  21  23
ENDBRANCH  19  21
ENDBRANCH   3  19
TORSDOF 11
