REMARK  4 active torsions:
REMARK  status: ('A' for Active; 'I' for Inactive)
REMARK       I    between atoms: C_2  and  N_4 
REMARK    1  A    between atoms: N_4  and  C_5 
REMARK    2  A    between atoms: C_7  and  C_8 
REMARK       I    between atoms: C_8  and  N_10 
REMARK    3  A    between atoms: N_10  and  C_11 
REMARK    4  A    between atoms: C_11  and  C_14 
ROOT
ATOM      1  C   UNL d   1       7.524  -4.068  -1.421  0.00  0.00     0.226 C 
ATOM      2  C   UNL d   1       8.117  -4.187  -2.780  0.00  0.00     0.089 C 
ATOM      3  N   UNL d   1       8.560  -4.294  -3.855  0.00  0.00    -0.195 NA
ENDROOT
BRANCH   1   4
ATOM      4  N   UNL d   1       6.995  -2.715  -1.225  0.00  0.00    -0.336 N 
ATOM      5  C   UNL d   1       7.676  -1.548  -1.047  0.00  0.00     0.253 C 
ATOM      6  O   UNL d   1       8.898  -1.501  -1.007  0.00  0.00    -0.268 OA
ATOM      7  H   UNL d   1       6.072  -2.571  -1.545  0.00  0.00     0.164 HD
BRANCH   5   8
ATOM      8  C   UNL d   1       6.811  -0.299  -0.919  0.00  0.00     0.034 A 
ATOM      9  C   UNL d   1       5.399  -0.282  -0.899  0.00  0.00     0.047 A 
ATOM     10  C   UNL d   1       4.646   0.899  -0.753  0.00  0.00     0.041 A 
ATOM     11  C   UNL d   1       5.327   2.117  -0.641  0.00  0.00    -0.035 A 
ATOM     12  C   UNL d   1       6.737   2.109  -0.649  0.00  0.00     0.010 A 
ATOM     13  C   UNL d   1       4.609   3.416  -0.413  0.00  0.00     0.050 C 
ATOM     14  C   UNL d   1       7.466   0.920  -0.788  0.00  0.00     0.017 A 
BRANCH  10  15
ATOM     15  N   UNL d   1       3.219   0.834  -0.729  0.00  0.00    -0.327 N 
ATOM     16  C   UNL d   1       2.534  -0.129   0.005  0.00  0.00     0.218 C 
ATOM     17  C   UNL d   1       1.024  -0.036  -0.028  0.00  0.00     0.117 C 
ATOM     18  O   UNL d   1       3.076  -1.006   0.675  0.00  0.00    -0.274 OA
ATOM     19  H   UNL d   1       2.705   1.645  -1.053  0.00  0.00     0.169 HD
ENDBRANCH  10  15
ENDBRANCH   5   8
ENDBRANCH   1   4
BRANCH   1  20
ATOM     20  C   UNL d   1       6.462  -5.191  -1.195  0.00  0.00    -0.016 A 
ATOM     21  C   UNL d   1       6.901  -6.538  -1.260  0.00  0.00     0.011 A 
ATOM     22  C   UNL d   1       6.011  -7.614  -1.114  0.00  0.00     0.001 A 
ATOM     23  C   UNL d   1       4.661  -7.383  -0.890  0.00  0.00     0.001 A 
ATOM     24  C   UNL d   1       4.203  -6.082  -0.799  0.00  0.00     0.007 A 
ATOM     25  C   UNL d   1       5.075  -4.992  -0.945  0.00  0.00    -0.053 A 
ATOM     26  C   UNL d   1       4.406  -3.663  -0.831  0.00  0.00     0.049 C 
ENDBRANCH   1  20
TORSDOF 4
