@<TRIPOS>MOLECULE
*****
 72 75 0 0 0
SMALL
GASTEIGER

@<TRIPOS>ATOM
      1 C           3.5739    2.8540    0.5133 C.3     1  UNL1       -0.0651
      2 C           5.2039    2.6697   -0.8261 C.3     1  UNL1       -0.0504
      3 C           3.9777    2.0846   -2.4881 C.3     1  UNL1       -0.0026
      4 C           4.9810    1.9220   -3.3987 C.3     1  UNL1        0.0422
      5 C           5.8802    3.2199   -3.4687 C.ar    1  UNL1        0.1999
      6 N           6.7295    3.7508   -2.5795 N.ar    1  UNL1       -0.1075
      7 N           7.4647    4.7077   -3.2134 N.ar    1  UNL1       -0.0228
      8 N           7.0463    4.8264   -4.4640 N.ar    1  UNL1       -0.0432
      9 N           5.9496    4.0283   -4.5661 N.ar    1  UNL1       -0.2136
     10 C           5.1823    3.9303   -5.8077 C.3     1  UNL1        0.1422
     11 C           3.8188    3.2547   -5.6775 C.2     1  UNL1        0.3289
     12 O           3.2358    3.1127   -4.6152 O.2     1  UNL1       -0.2488
     13 O           3.2459    2.7745   -6.7982 O.3     1  UNL1       -0.4636
     14 C           2.0202    2.0223   -6.5308 C.3     1  UNL1        0.0897
     15 C           1.2583    1.8783   -7.8219 C.3     1  UNL1       -0.0306
     16 N           5.3247    0.6546   -2.7189 N.4     1  UNL1        0.2484
     17 C           4.5544    0.2763   -1.3399 C.3     1  UNL1        0.0003
     18 C           3.7286    1.5149   -0.6405 C.ar    1  UNL1        0.0618
     19 C           3.5206    3.3127   -1.2071 C.ar    1  UNL1       -0.0392
     20 C           3.9422    4.6796   -0.1655 C.ar    1  UNL1       -0.0010
     21 C           4.0406    5.7210   -1.0140 C.ar    1  UNL1       -0.0524
     22 C           3.2371    6.5312   -0.3523 C.ar    1  UNL1       -0.0582
     23 C           2.9494    6.3594    1.1470 C.ar    1  UNL1       -0.0485
     24 C           2.6288    7.5716    1.8711 C.3     1  UNL1       -0.0396
     25 C           3.1252    5.3477    2.1272 C.ar    1  UNL1       -0.0348
     26 C           3.6812    4.3660    1.5647 C.ar    1  UNL1        0.0494
     27 N           3.7636    2.6334    2.3266 N.ar    1  UNL1       -0.3217
     28 C           4.0587    1.1792    1.2632 C.ar    1  UNL1        0.2574
     29 O           3.8682   -0.0100    1.5183 O.2     1  UNL1       -0.2674
     30 C           6.7657    0.6761   -2.6879 C.3     1  UNL1       -0.0199
     31 C           7.2987    0.4464   -1.3195 C.3     1  UNL1       -0.0096
     32 C           8.7639    0.4026   -1.2728 C.3     1  UNL1       -0.0480
     33 C           9.1824   -0.6745   -2.2306 C.3     1  UNL1       -0.0527
     34 C           8.6771   -0.3958   -3.6434 C.3     1  UNL1       -0.0480
     35 C           7.1778   -0.3251   -3.6992 C.3     1  UNL1       -0.0096
     36 H           4.7098    3.0862    0.9395 H       1  UNL1        0.0230
     37 H           2.6249    2.0751    0.6139 H       1  UNL1        0.0230
     38 H           2.4696    3.4455    0.1712 H       1  UNL1        0.0230
     39 H           5.8767    2.0893   -0.1986 H       1  UNL1        0.0265
     40 H           5.7105    3.7094   -0.7325 H       1  UNL1        0.0265
     41 H           2.8595    2.7345   -2.6812 H       1  UNL1        0.0324
     42 H           2.9365    1.2937   -2.1914 H       1  UNL1        0.0324
     43 H           4.5639    1.5977   -4.3180 H       1  UNL1        0.0936
     44 H           5.8618    3.4202   -6.4928 H       1  UNL1        0.0626
     45 H           4.9729    4.9527   -6.1068 H       1  UNL1        0.0626
     46 H           1.3637    2.4988   -5.7828 H       1  UNL1        0.0694
     47 H           2.2960    1.0290   -6.1509 H       1  UNL1        0.0694
     48 H           0.9619    2.8651   -8.1879 H       1  UNL1        0.0262
     49 H           0.3623    1.2649   -7.6880 H       1  UNL1        0.0262
     50 H           1.9005    1.4168   -8.5750 H       1  UNL1        0.0262
     51 H           4.9007   -0.0134   -3.3775 H       1  UNL1        0.2047
     52 H           3.7619   -0.4106   -1.6143 H       1  UNL1        0.0869
     53 H           5.2281   -0.2878   -0.7150 H       1  UNL1        0.0869
     54 H           4.2872    3.7947   -2.0371 H       1  UNL1        0.0630
     55 H           4.4677    5.6913   -2.0220 H       1  UNL1        0.0624
     56 H           2.7390    7.2844   -0.9456 H       1  UNL1        0.0620
     57 H           2.5822    8.3611    1.1427 H       1  UNL1        0.0278
     58 H           3.4822    7.6642    2.5545 H       1  UNL1        0.0278
     59 H           1.7025    7.3016    2.3636 H       1  UNL1        0.0278
     60 H           2.9760    5.1619    3.1536 H       1  UNL1        0.0641
     61 H           2.9499    2.4365    2.8992 H       1  UNL1        0.1689
     62 H           7.1424    1.6296   -3.0408 H       1  UNL1        0.0851
     63 H           6.9414   -0.4861   -0.9082 H       1  UNL1        0.0320
     64 H           7.0985    1.2343   -0.6413 H       1  UNL1        0.0320
     65 H           9.0200    0.1732   -0.2359 H       1  UNL1        0.0267
     66 H           9.1460    1.3917   -1.5388 H       1  UNL1        0.0267
     67 H           8.7815   -1.6379   -1.8869 H       1  UNL1        0.0265
     68 H          10.2636   -0.7065   -2.2185 H       1  UNL1        0.0265
     69 H           8.9933   -1.1845   -4.3154 H       1  UNL1        0.0267
     70 H           9.0840    0.5653   -3.9818 H       1  UNL1        0.0267
     71 H           6.7039   -1.2726   -3.4335 H       1  UNL1        0.0320
     72 H           6.8255   -0.0261   -4.6973 H       1  UNL1        0.0320
@<TRIPOS>UNITY_ATOM_ATTR
16 1
charge 1
@<TRIPOS>BOND
     1     1     2    1
     2     2     3    1
     3     5     6   ar
     4     6     7   ar
     5     7     8   ar
     6     8     9   ar
     7     5     9   ar
     8     9    10    1
     9    10    11    1
    10    11    12    2
    11    11    13    1
    12    13    14    1
    13    14    15    1
    14    17    18    1
    15    18    19   ar
    16    19    20   ar
    17    20    21   ar
    18    21    22   ar
    19    22    23   ar
    20    23    24    1
    21    23    25   ar
    22    25    26   ar
    23    20    26   ar
    24    26    27   ar
    25    27    28   ar
    26    18    28   ar
    27    28    29    2
    28    16    30    1
    29    30    31    1
    30    31    32    1
    31    32    33    1
    32    33    34    1
    33    34    35    1
    34    30    35    1
    35    16    17    1
    36    16     4    1
    37     4     5    1
    38     4     3    1
    39     1    36    1
    40     1    37    1
    41     1    38    1
    42     2    39    1
    43     2    40    1
    44     3    41    1
    45     3    42    1
    46     4    43    1
    47    10    44    1
    48    10    45    1
    49    14    46    1
    50    14    47    1
    51    15    48    1
    52    15    49    1
    53    15    50    1
    54    16    51    1
    55    17    52    1
    56    17    53    1
    57    19    54    1
    58    21    55    1
    59    22    56    1
    60    24    57    1
    61    24    58    1
    62    24    59    1
    63    25    60    1
    64    27    61    1
    65    30    62    1
    66    31    63    1
    67    31    64    1
    68    32    65    1
    69    32    66    1
    70    33    67    1
    71    33    68    1
    72    34    69    1
    73    34    70    1
    74    35    71    1
    75    35    72    1
