@<TRIPOS>MOLECULE
*****
 65 68 0 0 0
SMALL
GASTEIGER

@<TRIPOS>ATOM
      1 O           9.8580   -0.7977    6.5308 O.2     1  UNL1       -0.2768
      2 C           9.6198   -0.3158    5.4460 C.2     1  UNL1        0.2940
      3 C           9.7102    1.0051    4.7967 C.2     1  UNL1        0.1983
      4 O          10.0228    2.2111    5.1227 O.2     1  UNL1       -0.5017
      5 C           9.2490    0.4864    3.6169 C.2     1  UNL1        0.1491
      6 N           8.9381    1.0354    2.4629 N.pl3   1  UNL1       -0.3355
      7 C           8.5622    0.2769    1.3125 C.3     1  UNL1        0.0122
      8 C           8.1064    0.9562    0.0489 C.3     1  UNL1       -0.0255
      9 C           8.6443    2.3626   -0.1823 C.3     1  UNL1       -0.0481
     10 C           8.2374    2.8593   -1.5703 C.3     1  UNL1       -0.0416
     11 C           8.7401    1.9133   -2.6704 C.3     1  UNL1        0.0356
     12 C          10.2703    1.8489   -2.7048 C.2     1  UNL1        0.2161
     13 O          10.9062    0.8058   -2.5657 O.2     1  UNL1       -0.2755
     14 N          10.9073    3.0534   -2.8761 N.am    1  UNL1       -0.3148
     15 C          12.3474    3.0588   -2.8894 C.3     1  UNL1        0.0156
     16 C          12.9672    4.4193   -3.1805 C.3     1  UNL1       -0.0121
     17 C          14.4800    4.3910   -3.1645 C.ar    1  UNL1       -0.0458
     18 C          15.2038    3.1858   -3.1695 C.ar    1  UNL1       -0.0571
     19 C          16.5941    3.1787   -3.1375 C.ar    1  UNL1       -0.0431
     20 C          17.2831    4.3826   -3.1137 C.ar    1  UNL1        0.0410
     21 CL         19.0000    4.3670   -3.0516 Cl      1  UNL1       -0.0835
     22 C          16.5903    5.5919   -3.1363 C.ar    1  UNL1       -0.0431
     23 C          15.1921    5.5980   -3.1621 C.ar    1  UNL1       -0.0571
     24 C           8.1433    0.5196   -2.4408 C.3     1  UNL1       -0.0416
     25 C           8.5238   -0.0125   -1.0748 C.3     1  UNL1       -0.0481
     26 C           9.1285   -0.9110    4.1817 C.2     1  UNL1        0.2780
     27 N           8.7322   -2.1115    3.8419 N.2     1  UNL1       -0.2237
     28 C           8.2471   -3.1630    4.8418 C.3     1  UNL1        0.1458
     29 C           8.5122   -4.6015    4.3601 C.3     1  UNL1        0.0067
     30 C           7.9381   -4.8500    2.9712 C.3     1  UNL1       -0.0416
     31 C           8.6943   -3.9459    2.0365 C.3     1  UNL1        0.0067
     32 C           8.4107   -2.5010    2.4014 C.3     1  UNL1        0.1458
     33 H          10.2954    2.2894    6.0578 H       1  UNL1        0.2924
     34 H           9.1622    2.0194    2.2842 H       1  UNL1        0.1464
     35 H           7.7115   -0.3410    1.6045 H       1  UNL1        0.0464
     36 H           9.4414   -0.3228    1.0685 H       1  UNL1        0.0464
     37 H           7.0094    1.0128    0.0641 H       1  UNL1        0.0316
     38 H           9.7358    2.3743   -0.0819 H       1  UNL1        0.0269
     39 H           8.2421    3.0454    0.5745 H       1  UNL1        0.0269
     40 H           8.6060    3.8781   -1.7201 H       1  UNL1        0.0273
     41 H           7.1407    2.9140   -1.6189 H       1  UNL1        0.0273
     42 H           8.4025    2.2707   -3.6494 H       1  UNL1        0.0394
     43 H          10.3902    3.8941   -3.0945 H       1  UNL1        0.1487
     44 H          12.6560    2.3269   -3.6462 H       1  UNL1        0.0465
     45 H          12.6875    2.6874   -1.9121 H       1  UNL1        0.0465
     46 H          12.6101    5.1371   -2.4305 H       1  UNL1        0.0328
     47 H          12.6247    4.7728   -4.1608 H       1  UNL1        0.0328
     48 H          14.7112    2.2175   -3.1914 H       1  UNL1        0.0621
     49 H          17.1201    2.2283   -3.1318 H       1  UNL1        0.0632
     50 H          17.1341    6.5324   -3.1331 H       1  UNL1        0.0632
     51 H          14.6660    6.5511   -3.1759 H       1  UNL1        0.0621
     52 H           8.4775   -0.1815   -3.2123 H       1  UNL1        0.0273
     53 H           7.0491    0.5692   -2.4914 H       1  UNL1        0.0273
     54 H           9.6082   -0.1691   -1.0155 H       1  UNL1        0.0269
     55 H           8.0925   -1.0098   -0.9248 H       1  UNL1        0.0269
     56 H           7.1600   -3.0192    4.9013 H       1  UNL1        0.1026
     57 H           8.6793   -2.9892    5.8282 H       1  UNL1        0.1026
     58 H           8.0624   -5.3284    5.0449 H       1  UNL1        0.0326
     59 H           9.5914   -4.8008    4.3454 H       1  UNL1        0.0326
     60 H           6.8661   -4.6131    2.9394 H       1  UNL1        0.0269
     61 H           8.0476   -5.8946    2.6618 H       1  UNL1        0.0269
     62 H           8.3906   -4.1397    0.9986 H       1  UNL1        0.0326
     63 H           9.7728   -4.1467    2.0820 H       1  UNL1        0.0326
     64 H           7.3495   -2.2787    2.2402 H       1  UNL1        0.1026
     65 H           9.0588   -1.9595    1.7356 H       1  UNL1        0.1026
@<TRIPOS>UNITY_ATOM_ATTR
27 1
charge 1
@<TRIPOS>BOND
     1     1     2    2
     2     2     3    1
     3     3     4    1
     4     3     5    2
     5     5     6    1
     6     6     7    1
     7     8     9    1
     8     9    10    1
     9    10    11    1
    10    11    12    1
    11    12    13    2
    12    12    14   am
    13    14    15    1
    14    15    16    1
    15    16    17    1
    16    17    18   ar
    17    18    19   ar
    18    19    20   ar
    19    20    21    1
    20    20    22   ar
    21    22    23   ar
    22    17    23   ar
    23    11    24    1
    24    24    25    1
    25     8    25    1
    26     5    26    1
    27     2    26    1
    28    26    27    2
    29    27    28    1
    30    28    29    1
    31    29    30    1
    32    30    31    1
    33    31    32    1
    34    27    32    1
    35     8     7    1
    36     4    33    1
    37     6    34    1
    38     7    35    1
    39     7    36    1
    40     8    37    1
    41     9    38    1
    42     9    39    1
    43    10    40    1
    44    10    41    1
    45    11    42    1
    46    14    43    1
    47    15    44    1
    48    15    45    1
    49    16    46    1
    50    16    47    1
    51    18    48    1
    52    19    49    1
    53    22    50    1
    54    23    51    1
    55    24    52    1
    56    24    53    1
    57    25    54    1
    58    25    55    1
    59    28    56    1
    60    28    57    1
    61    29    58    1
    62    29    59    1
    63    30    60    1
    64    30    61    1
    65    31    62    1
    66    31    63    1
    67    32    64    1
    68    32    65    1
