@<TRIPOS>MOLECULE
*****
 51 55 0 0 0
SMALL
GASTEIGER

@<TRIPOS>ATOM
      1 C           0.3774  -17.5823    4.0060 C.3     1  UNL1       -0.0397
      2 C           0.3878  -16.1811    4.5523 C.ar    1  UNL1       -0.0495
      3 C          -0.4732  -15.8487    5.6893 C.ar    1  UNL1       -0.0526
      4 C          -0.5290  -14.6209    6.2451 C.ar    1  UNL1        0.0101
      5 C           0.3303  -13.5693    5.6614 C.ar    1  UNL1        0.2086
      6 C           1.1883  -13.9194    4.5103 C.ar    1  UNL1        0.0512
      7 C           1.1828  -15.2484    3.9920 C.ar    1  UNL1       -0.0452
      8 C           1.8424  -12.7911    4.1741 C.2     1  UNL1        0.0112
      9 C           2.8369  -12.6297    3.0338 C.3     1  UNL1        0.0115
     10 C           3.4709  -11.2142    2.7458 C.3     1  UNL1        0.0847
     11 N           4.3589  -11.1990    1.5334 N.pl3   1  UNL1       -0.2176
     12 C           5.3463  -12.2459    1.4378 C.3     1  UNL1        0.1429
     13 C           6.3286  -11.5619    0.4930 C.2     1  UNL1        0.2085
     14 O           7.5094  -11.6506    0.6994 O.2     1  UNL1       -0.2880
     15 C           5.6223  -10.5873   -0.4655 C.2     1  UNL1        0.1130
     16 C           6.3586   -9.8625   -1.8271 C.3     1  UNL1        0.1081
     17 N           6.2439  -10.3954   -3.4054 N.pl3   1  UNL1       -0.3270
     18 C           7.5917  -11.1579   -3.8051 C.ar    1  UNL1        0.0418
     19 C           7.5357  -12.3203   -4.6412 C.ar    1  UNL1       -0.0397
     20 C           7.6277  -13.5705   -4.0286 C.ar    1  UNL1       -0.0600
     21 C           7.7914  -13.5892   -2.6595 C.ar    1  UNL1       -0.0606
     22 C           8.2298  -12.4292   -2.0180 C.ar    1  UNL1       -0.0465
     23 C           8.3159  -11.2008   -2.6398 C.ar    1  UNL1        0.0308
     24 S           8.1612   -9.7121   -1.6567 S.3     1  UNL1       -0.0959
     25 C           4.5670  -10.2923    0.4223 C.2     1  UNL1        0.2651
     26 N           3.7314   -9.2307    0.3502 N.pl3   1  UNL1       -0.2511
     27 C           1.4450  -11.6780    5.1013 C.3     1  UNL1        0.1662
     28 N           0.4649  -12.3428    5.9924 N.2     1  UNL1       -0.2369
     29 H          -0.3086  -18.2447    4.5424 H       1  UNL1        0.0278
     30 H           1.3804  -18.0195    4.0706 H       1  UNL1        0.0278
     31 H           0.0752  -17.5737    2.9524 H       1  UNL1        0.0278
     32 H          -1.0937  -16.6522    6.0904 H       1  UNL1        0.0622
     33 H          -1.1840  -14.4195    7.0870 H       1  UNL1        0.0683
     34 H           1.8224  -15.4893    3.1495 H       1  UNL1        0.0628
     35 H           2.3383  -12.9599    2.1154 H       1  UNL1        0.0349
     36 H           3.6449  -13.3475    3.2354 H       1  UNL1        0.0349
     37 H           4.0301  -10.9339    3.6561 H       1  UNL1        0.0729
     38 H           2.6541  -10.4907    2.6582 H       1  UNL1        0.0729
     39 H           4.9032  -13.1320    0.9805 H       1  UNL1        0.0811
     40 H           5.8082  -12.5043    2.4007 H       1  UNL1        0.0811
     41 H           5.9578   -8.8410   -1.8689 H       1  UNL1        0.0672
     42 H           6.4688   -9.5649   -3.9947 H       1  UNL1        0.1475
     43 H           7.7565  -12.3061   -5.7180 H       1  UNL1        0.0636
     44 H           7.6006  -14.5115   -4.5753 H       1  UNL1        0.0618
     45 H           7.6327  -14.4847   -2.0728 H       1  UNL1        0.0618
     46 H           8.3536  -12.4557   -0.9569 H       1  UNL1        0.0629
     47 H           3.8446   -8.4959   -0.3310 H       1  UNL1        0.2882
     48 H           2.9856   -9.1529    1.0277 H       1  UNL1        0.2882
     49 H           0.9374  -10.8664    4.5767 H       1  UNL1        0.1077
     50 H           2.2793  -11.3238    5.7108 H       1  UNL1        0.1077
     51 H          -0.0451  -11.9094    6.7609 H       1  UNL1        0.4459
@<TRIPOS>UNITY_ATOM_ATTR
28 1
charge 1
@<TRIPOS>BOND
     1     1     2    1
     2     2     3   ar
     3     3     4   ar
     4     4     5   ar
     5     5     6   ar
     6     6     7   ar
     7     2     7   ar
     8     6     8    2
     9     8     9    1
    10     9    10    1
    11    10    11    1
    12    11    12    1
    13    12    13    1
    14    13    14    2
    15    13    15    1
    16    16    17    1
    17    17    18    1
    18    18    19   ar
    19    19    20   ar
    20    20    21   ar
    21    21    22   ar
    22    22    23   ar
    23    18    23   ar
    24    23    24    1
    25    16    24    1
    26    15    25    2
    27    11    25    1
    28    25    26    1
    29     8    27    1
    30    27    28    1
    31     5    28    2
    32    16    15    1
    33     1    29    1
    34     1    30    1
    35     1    31    1
    36     3    32    1
    37     4    33    1
    38     7    34    1
    39     9    35    1
    40     9    36    1
    41    10    37    1
    42    10    38    1
    43    12    39    1
    44    12    40    1
    45    16    41    1
    46    17    42    1
    47    19    43    1
    48    20    44    1
    49    21    45    1
    50    22    46    1
    51    26    47    1
    52    26    48    1
    53    27    49    1
    54    27    50    1
    55    28    51    1
