@<TRIPOS>MOLECULE
*****
 60 61 0 0 0
SMALL
GASTEIGER

@<TRIPOS>ATOM
      1 C           0.8830   -0.1874   -0.1283 C.3     1  UNL1       -0.0652
      2 C           2.3834   -0.3174   -0.2908 C.3     1  UNL1       -0.0528
      3 C           2.9585   -1.1399    0.8482 C.3     1  UNL1       -0.0189
      4 C           4.4604   -1.3427    0.6892 C.3     1  UNL1        0.0896
      5 O           4.8776   -1.9120    1.9327 O.3     1  UNL1       -0.4912
      6 C           6.2163   -1.9089    2.1884 C.ar    1  UNL1        0.1326
      7 C           6.7706   -3.1793    2.4848 C.ar    1  UNL1       -0.0192
      8 C           8.1067   -3.3264    2.8724 C.ar    1  UNL1       -0.0583
      9 C           8.9268   -2.2114    2.8923 C.ar    1  UNL1       -0.0608
     10 C           8.3770   -0.9515    2.6145 C.ar    1  UNL1       -0.0461
     11 C           7.0000   -0.7590    2.3082 C.ar    1  UNL1        0.0786
     12 C           6.5575    0.6767    2.1022 C.2     1  UNL1        0.2531
     13 O           7.4790    1.4804    1.9596 O.2     1  UNL1       -0.2697
     14 N           5.1874    1.0702    2.1041 N.am    1  UNL1       -0.2626
     15 C           4.6496    2.2400    1.5010 C.2     1  UNL1        0.1533
     16 S           5.5672    3.5586    0.9871 S.2     1  UNL1       -0.0170
     17 N           3.2477    2.2697    1.3281 N.am    1  UNL1       -0.2453
     18 N           2.6497    3.3635    0.5547 N.am    1  UNL1       -0.2311
     19 C           1.2906    3.4358    0.2913 C.2     1  UNL1        0.2601
     20 O           0.4991    2.4977    0.4445 O.2     1  UNL1       -0.2687
     21 C           0.7188    4.7318   -0.1671 C.ar    1  UNL1        0.0383
     22 C          -0.5703    5.1215    0.2488 C.ar    1  UNL1       -0.0478
     23 C          -1.1716    6.3112   -0.2248 C.ar    1  UNL1       -0.0398
     24 C          -0.4633    7.1598   -1.0825 C.ar    1  UNL1        0.0334
     25 N          -0.9971    8.4335   -1.4589 N.am    1  UNL1       -0.2853
     26 C          -0.3023    9.3710   -2.2198 C.2     1  UNL1        0.2198
     27 O           0.8108    9.1794   -2.7091 O.2     1  UNL1       -0.2752
     28 C          -0.9711   10.7234   -2.4740 C.3     1  UNL1        0.0303
     29 C          -1.2070   11.5010   -1.1868 C.3     1  UNL1       -0.0544
     30 C          -0.0385   11.5494   -3.3842 C.3     1  UNL1       -0.0544
     31 C           0.7954    6.7193   -1.5188 C.ar    1  UNL1       -0.0398
     32 C           1.3897    5.5337   -1.0745 C.ar    1  UNL1       -0.0478
     33 H           0.4840    0.4799   -0.8970 H       1  UNL1        0.0230
     34 H           0.6107    0.2008    0.8616 H       1  UNL1        0.0230
     35 H           0.4027   -1.1599   -0.2377 H       1  UNL1        0.0230
     36 H           2.8439    0.6701   -0.3527 H       1  UNL1        0.0264
     37 H           2.6236   -0.7846   -1.2462 H       1  UNL1        0.0264
     38 H           2.4746   -2.1212    0.8868 H       1  UNL1        0.0298
     39 H           2.7248   -0.6808    1.8233 H       1  UNL1        0.0298
     40 H           4.9362   -0.3921    0.4512 H       1  UNL1        0.0696
     41 H           4.7055   -1.9951   -0.1504 H       1  UNL1        0.0696
     42 H           6.1560   -4.0762    2.4179 H       1  UNL1        0.0654
     43 H           8.5050   -4.2993    3.1585 H       1  UNL1        0.0619
     44 H           9.9849   -2.3120    3.1330 H       1  UNL1        0.0618
     45 H           9.0522   -0.0962    2.6583 H       1  UNL1        0.0626
     46 H           4.5401    0.3551    2.4084 H       1  UNL1        0.1569
     47 H           2.6091    1.4942    1.4939 H       1  UNL1        0.1718
     48 H           3.2445    4.1895    0.4856 H       1  UNL1        0.1731
     49 H          -1.1115    4.4923    0.9557 H       1  UNL1        0.0626
     50 H          -2.1884    6.5380    0.0907 H       1  UNL1        0.0636
     51 H          -1.8986    8.6916   -1.0727 H       1  UNL1        0.1548
     52 H          -1.9181   10.5578   -3.0000 H       1  UNL1        0.0389
     53 H          -0.2678   11.6492   -0.6417 H       1  UNL1        0.0237
     54 H          -1.9011   10.9792   -0.5233 H       1  UNL1        0.0237
     55 H          -1.6260   12.4901   -1.4060 H       1  UNL1        0.0237
     56 H           0.9361   11.7097   -2.9022 H       1  UNL1        0.0237
     57 H          -0.4579   12.5302   -3.6213 H       1  UNL1        0.0237
     58 H           0.1549   11.0246   -4.3278 H       1  UNL1        0.0237
     59 H           1.3779    7.2743   -2.2418 H       1  UNL1        0.0636
     60 H           2.3575    5.2627   -1.4829 H       1  UNL1        0.0626
@<TRIPOS>BOND
     1     1     2    1
     2     2     3    1
     3     3     4    1
     4     4     5    1
     5     5     6    1
     6     6     7   ar
     7     7     8   ar
     8     8     9   ar
     9     9    10   ar
    10    10    11   ar
    11     6    11   ar
    12    11    12    1
    13    12    13    2
    14    12    14   am
    15    14    15    1
    16    15    16    2
    17    15    17    1
    18    17    18    1
    19    18    19   am
    20    19    20    2
    21    19    21    1
    22    21    22   ar
    23    22    23   ar
    24    23    24   ar
    25    24    25    1
    26    25    26   am
    27    26    27    2
    28    26    28    1
    29    28    29    1
    30    28    30    1
    31    24    31   ar
    32    31    32   ar
    33    21    32   ar
    34     1    33    1
    35     1    34    1
    36     1    35    1
    37     2    36    1
    38     2    37    1
    39     3    38    1
    40     3    39    1
    41     4    40    1
    42     4    41    1
    43     7    42    1
    44     8    43    1
    45     9    44    1
    46    10    45    1
    47    14    46    1
    48    17    47    1
    49    18    48    1
    50    22    49    1
    51    23    50    1
    52    25    51    1
    53    28    52    1
    54    29    53    1
    55    29    54    1
    56    29    55    1
    57    30    56    1
    58    30    57    1
    59    30    58    1
    60    31    59    1
    61    32    60    1
