REMARK  12 active torsions:
REMARK  status: ('A' for Active; 'I' for Inactive)
REMARK    1  A    between atoms: C_3  and  C_2 
REMARK    2  A    between atoms: C_3  and  C_33 
REMARK    3  A    between atoms: C_3  and  C_4 
REMARK       I    between atoms: C_4  and  N_6 
REMARK    4  A    between atoms: N_6  and  C_7 
REMARK    5  A    between atoms: C_14  and  N_6 
REMARK    6  A    between atoms: C_7  and  C_8 
REMARK    7  A    between atoms: C_14  and  C_24 
REMARK    8  A    between atoms: C_14  and  C_15 
REMARK       I    between atoms: C_15  and  N_17 
REMARK    9  A    between atoms: N_17  and  C_18 
REMARK   10  A    between atoms: C_25  and  O_26 
REMARK   11  A    between atoms: C_28  and  O_29 
REMARK   12  A    between atoms: C_31  and  O_32 
ROOT
ATOM      1  C   UNL d   1       1.793  -2.619  -0.058  0.00  0.00     0.218 C 
ENDROOT
BRANCH   1   2
ATOM      2  C   UNL d   1       2.085  -3.958   0.693  0.00  0.00     0.040 C 
ATOM      3  C   UNL d   1       3.106  -4.898   0.432  0.00  0.00     0.080 C 
ATOM      4  C   UNL d   1       3.264  -6.105   1.080  0.00  0.00     0.073 C 
ATOM      5  C   UNL d   1       2.543  -6.346   2.203  0.00  0.00     0.071 C 
ATOM      6  C   UNL d   1       1.594  -5.427   2.616  0.00  0.00     0.073 C 
ATOM      7  C   UNL d   1       1.343  -4.267   1.852  0.00  0.00     0.080 C 
BRANCH   3   8
ATOM      8  O   UNL d   1       4.184  -4.843  -0.387  0.00  0.00    -0.360 OA
ATOM      9  H   UNL d   1       4.539  -3.960  -0.435  0.00  0.00     0.217 HD
ENDBRANCH   3   8
BRANCH   5  10
ATOM     10  O   UNL d   1       2.835  -7.460   2.920  0.00  0.00    -0.361 OA
ATOM     11  H   UNL d   1       3.569  -7.909   2.458  0.00  0.00     0.217 HD
ENDBRANCH   5  10
BRANCH   7  12
ATOM     12  O   UNL d   1       0.382  -3.397   2.290  0.00  0.00    -0.360 OA
ATOM     13  H   UNL d   1      -0.012  -3.741   3.112  0.00  0.00     0.217 HD
ENDBRANCH   7  12
ENDBRANCH   1   2
BRANCH   1  14
ATOM     14  C   UNL d   1       2.567  -1.456   0.647  0.00  0.00     0.245 C 
ATOM     15  O   UNL d   1       2.079  -0.433   1.166  0.00  0.00    -0.271 OA
ATOM     16  N   UNL d   1       3.900  -1.684   0.574  0.00  0.00    -0.354 N 
ATOM     17  H   UNL d   1       4.113  -2.545   0.141  0.00  0.00     0.162 HD
BRANCH  16  18
ATOM     18  C   UNL d   1       5.046  -0.851   0.805  0.00  0.00     0.084 C 
ATOM     19  C   UNL d   1       5.068   0.495   0.034  0.00  0.00     0.025 C 
ATOM     20  C   UNL d   1       6.284   1.303   0.406  0.00  0.00     0.002 C 
ATOM     21  C   UNL d   1       6.280   1.469   1.907  0.00  0.00     0.000 C 
ATOM     22  C   UNL d   1       6.338   0.122   2.628  0.00  0.00     0.002 C 
ATOM     23  C   UNL d   1       5.151  -0.732   2.286  0.00  0.00     0.025 C 
ENDBRANCH  16  18
ENDBRANCH   1  14
BRANCH   1  24
ATOM     24  N   UNL d   1       2.090  -2.576  -1.582  0.00  0.00    -0.328 N 
ATOM     25  C   UNL d   1       1.276  -1.738  -2.360  0.00  0.00     0.229 C 
ATOM     26  O   UNL d   1       0.345  -1.094  -1.866  0.00  0.00    -0.273 OA
BRANCH  25  27
ATOM     27  C   UNL d   1       1.526  -1.629  -3.878  0.00  0.00     0.110 C 
BRANCH  27  28
ATOM     28  C   UNL d   1       1.276  -2.911  -4.698  0.00  0.00    -0.045 C 
ATOM     29  C   UNL d   1       1.118  -4.189  -4.131  0.00  0.00     0.008 C 
ATOM     30  C   UNL d   1       1.441  -5.325  -4.864  0.00  0.00     0.001 C 
ATOM     31  C   UNL d   1       1.509  -5.237  -6.242  0.00  0.00     0.000 C 
ATOM     32  C   UNL d   1       1.376  -3.996  -6.859  0.00  0.00     0.001 C 
ATOM     33  C   UNL d   1       1.303  -2.836  -6.092  0.00  0.00     0.008 C 
ENDBRANCH  27  28
BRANCH  27  34
ATOM     34  C   UNL d   1       2.696  -0.699  -4.364  0.00  0.00     0.014 C 
ATOM     35  C   UNL d   1       4.152  -0.597  -4.016  0.00  0.00     0.006 C 
ENDBRANCH  27  34
ENDBRANCH  25  27
BRANCH  24  36
ATOM     36  C   UNL d   1       3.091  -3.478  -2.236  0.00  0.00     0.192 C 
BRANCH  36  37
ATOM     37  C   UNL d   1       4.476  -2.962  -2.198  0.00  0.00     0.071 A 
ATOM     38  C   UNL d   1       4.879  -1.728  -1.824  0.00  0.00     0.037 A 
ATOM     39  C   UNL d   1       6.230  -1.556  -2.077  0.00  0.00     0.035 A 
ATOM     40  C   UNL d   1       6.630  -2.771  -2.541  0.00  0.00     0.049 A 
ATOM     41  C   UNL d   1       7.968  -3.131  -3.000  0.00  0.00     0.076 C 
ATOM     42  O   UNL d   1       5.577  -3.656  -2.623  0.00  0.00    -0.318 OA
ENDBRANCH  36  37
ENDBRANCH  24  36
ENDBRANCH   1  24
TORSDOF 12
