REMARK  8 active torsions:
REMARK  status: ('A' for Active; 'I' for Inactive)
REMARK    1  A    between atoms: C_2  and  C_3 
REMARK    2  A    between atoms: C_3  and  O_4 
REMARK    3  A    between atoms: O_4  and  C_5 
REMARK    4  A    between atoms: C_8  and  C_9 
REMARK    5  A    between atoms: C_14  and  C_15 
REMARK    6  A    between atoms: C_18  and  O_19 
REMARK    7  A    between atoms: C_22  and  O_23 
REMARK    8  A    between atoms: C_28  and  N_29 
ROOT
ATOM      1  C   UNL d   1       7.453  -5.634   2.089  0.00  0.00     0.072 C 
ATOM      2  N   UNL d   1       8.037  -6.691   1.432  0.00  0.00    -0.274 N 
ATOM      3  N   UNL d   1       8.434  -7.699   2.245  0.00  0.00    -0.148 NA
ATOM      4  C   UNL d   1       8.094  -7.230   3.456  0.00  0.00     0.199 A 
ATOM      5  C   UNL d   1       7.665  -5.895   3.429  0.00  0.00     0.040 A 
ATOM      6  C   UNL d   1       7.429  -5.132   4.688  0.00  0.00     0.108 A 
ATOM      7  C   UNL d   1       7.736  -5.978   5.871  0.00  0.00     0.067 A 
ATOM      8  C   UNL d   1       7.162  -5.559   7.214  0.00  0.00     0.020 C 
ATOM      9  N   UNL d   1       6.686  -5.211   8.329  0.00  0.00    -0.096 N 
ATOM     10  C   UNL d   1       8.120  -7.290   5.815  0.00  0.00     0.139 A 
ATOM     11  O   UNL d   1       8.353  -7.944   4.577  0.00  0.00    -0.277 OA
ATOM     12  H   UNL d   1       8.184  -6.797   0.428  0.00  0.00     0.189 HD
ENDROOT
BRANCH   6  13
ATOM     13  C   UNL d   1       8.284  -3.863   4.706  0.00  0.00    -0.011 A 
ATOM     14  C   UNL d   1       7.543  -2.646   4.748  0.00  0.00     0.014 A 
ATOM     15  C   UNL d   1       8.170  -1.396   4.639  0.00  0.00     0.037 A 
ATOM     16  C   UNL d   1       9.553  -1.314   4.615  0.00  0.00     0.070 A 
ATOM     17  C   UNL d   1      10.283  -2.485   4.640  0.00  0.00     0.074 A 
ATOM     18  C   UNL d   1       9.694  -3.743   4.685  0.00  0.00     0.078 A 
BRANCH  16  19
ATOM     19  O   UNL d   1      10.135  -0.079   4.573  0.00  0.00    -0.356 OA
ATOM     20  C   UNL d   1      11.556  -0.093   4.748  0.00  0.00     0.210 C 
ENDBRANCH  16  19
BRANCH  18  21
ATOM     21  O   UNL d   1      10.748  -4.622   4.683  0.00  0.00    -0.355 OA
ATOM     22  C   UNL d   1      10.491  -5.891   5.169  0.00  0.00     0.210 C 
ENDBRANCH  18  21
ENDBRANCH   6  13
BRANCH  10  23
ATOM     23  N   UNL d   1       8.411  -8.055   6.938  0.00  0.00    -0.282 NA
ATOM     24  H   UNL d   1       8.470  -7.542   7.819  0.00  0.00     0.126 HD
ATOM     25  H   UNL d   1       9.236  -8.640   6.811  0.00  0.00     0.126 HD
ENDBRANCH  10  23
BRANCH   1  26
ATOM     26  C   UNL d   1       6.736  -4.526   1.489  0.00  0.00    -0.007 C 
ATOM     27  C   UNL d   1       7.129  -3.220   1.770  0.00  0.00     0.016 C 
ATOM     28  C   UNL d   1       6.267  -2.149   1.555  0.00  0.00     0.037 C 
ATOM     29  C   UNL d   1       5.055  -2.350   0.908  0.00  0.00     0.068 C 
ATOM     30  C   UNL d   1       4.689  -3.643   0.534  0.00  0.00     0.037 C 
ATOM     31  C   UNL d   1       5.517  -4.732   0.841  0.00  0.00     0.016 C 
BRANCH  29  32
ATOM     32  O   UNL d   1       4.384  -1.201   0.609  0.00  0.00    -0.351 OA
BRANCH  32  33
ATOM     33  C   UNL d   1       2.966  -1.284   0.534  0.00  0.00     0.175 C 
BRANCH  33  34
ATOM     34  C   UNL d   1       2.454   0.041  -0.024  0.00  0.00     0.022 C 
ATOM     35  C   UNL d   1       0.938   0.070  -0.049  0.00  0.00     0.007 C 
ENDBRANCH  33  34
ENDBRANCH  32  33
ENDBRANCH  29  32
ENDBRANCH   1  26
TORSDOF 8
