@<TRIPOS>MOLECULE
*****
 67 70 0 0 0
SMALL
GASTEIGER

@<TRIPOS>ATOM
      1 C           0.9866   -0.2639   -0.4088 C.3     1  UNL1       -0.0245
      2 C           2.4787   -0.3162   -0.2365 C.3     1  UNL1       -0.0348
      3 N           2.9632    0.7233    0.7275 N.4     1  UNL1        0.2349
      4 C           2.2942    0.3206    2.2984 C.3     1  UNL1       -0.0348
      5 C           0.7584    0.3977    2.5542 C.3     1  UNL1       -0.0245
      6 C           4.6325    0.7655    0.4441 C.3     1  UNL1       -0.0305
      7 C           5.2732    1.9898    1.0740 C.3     1  UNL1        0.0033
      8 C           6.7229    2.3508    1.2631 C.3     1  UNL1        0.0189
      9 N           7.1361    3.5967    2.0849 N.am    1  UNL1       -0.3078
     10 C           6.2308    4.6110    2.8171 C.3     1  UNL1        0.0439
     11 C           4.7327    4.5304    2.8113 C.ar    1  UNL1        0.0347
     12 C           3.7435    5.4132    2.4926 C.ar    1  UNL1       -0.0427
     13 C           2.3278    4.9700    2.2349 C.ar    1  UNL1        0.0025
     14 C           1.1816    5.7184    1.9823 C.ar    1  UNL1       -0.0072
     15 C          -0.0593    5.1073    1.6340 C.ar    1  UNL1        0.1628
     16 C          -0.1321    3.7527    1.4095 C.ar    1  UNL1        0.1641
     17 C           1.0628    3.0929    1.3631 C.ar    1  UNL1        0.0077
     18 C           2.1924    3.6374    1.9851 C.ar    1  UNL1        0.0529
     19 N           3.2034    2.8679    2.5062 N.ar    1  UNL1       -0.3217
     20 C           4.2414    3.2574    3.2746 C.ar    1  UNL1        0.2539
     21 O           4.9062    2.4484    3.9499 O.2     1  UNL1       -0.2675
     22 O          -1.2804    3.0292    1.1966 O.3     1  UNL1       -0.4849
     23 C          -2.4488    3.8258    1.4753 C.3     1  UNL1        0.1237
     24 C          -2.2360    5.1641    0.7915 C.3     1  UNL1        0.1237
     25 O          -1.1639    5.8933    1.4358 O.3     1  UNL1       -0.4849
     26 C           8.5712    3.6864    2.2971 C.2     1  UNL1        0.1374
     27 S           9.6258    2.4603    1.7431 S.2     1  UNL1       -0.0183
     28 N           9.0170    4.8277    3.0048 N.am    1  UNL1       -0.2967
     29 C          10.3994    5.1220    3.2349 C.ar    1  UNL1        0.0340
     30 C          11.3039    5.0657    2.1690 C.ar    1  UNL1       -0.0404
     31 C          12.6756    5.1824    2.3685 C.ar    1  UNL1       -0.0586
     32 C          13.1692    5.2939    3.6598 C.ar    1  UNL1       -0.0433
     33 C          12.2749    5.4303    4.7221 C.ar    1  UNL1        0.0427
     34 CL         12.9079    5.5316    6.3227 Cl      1  UNL1       -0.0835
     35 C          10.8857    5.4325    4.5092 C.ar    1  UNL1       -0.0222
     36 H           0.6634   -1.0342   -1.1040 H       1  UNL1        0.0281
     37 H           0.6394    0.7158   -0.7503 H       1  UNL1        0.0281
     38 H           0.4737   -0.5071    0.5088 H       1  UNL1        0.0281
     39 H           2.9617   -0.1296   -1.2006 H       1  UNL1        0.0812
     40 H           2.8290   -1.2535    0.1924 H       1  UNL1        0.0812
     41 H           2.6715    1.6424    0.3515 H       1  UNL1        0.2033
     42 H           2.6433    0.9687    3.1026 H       1  UNL1        0.0812
     43 H           2.7745   -0.6115    2.5530 H       1  UNL1        0.0812
     44 H           0.0961    1.0155    1.9484 H       1  UNL1        0.0281
     45 H           0.5706    0.7924    3.5678 H       1  UNL1        0.0281
     46 H           0.3212   -0.5946    2.5127 H       1  UNL1        0.0281
     47 H           4.7595    0.8209   -0.6439 H       1  UNL1        0.0815
     48 H           4.9822   -0.1712    0.8686 H       1  UNL1        0.0815
     49 H           5.1249    1.6247    2.0695 H       1  UNL1        0.0332
     50 H           4.7709    2.8892    0.7152 H       1  UNL1        0.0332
     51 H           7.2056    2.4259    0.2842 H       1  UNL1        0.0466
     52 H           7.1535    1.4895    1.7974 H       1  UNL1        0.0466
     53 H           6.5108    5.5924    2.4272 H       1  UNL1        0.0515
     54 H           6.5293    4.5650    3.8738 H       1  UNL1        0.0515
     55 H           3.9627    6.4380    2.2509 H       1  UNL1        0.0629
     56 H           1.2444    6.7914    2.0440 H       1  UNL1        0.0662
     57 H           1.0117    2.1406    0.8781 H       1  UNL1        0.0676
     58 H           3.3959    1.9747    2.1653 H       1  UNL1        0.1689
     59 H          -2.5852    3.9237    2.5615 H       1  UNL1        0.0731
     60 H          -3.3335    3.3093    1.0777 H       1  UNL1        0.0731
     61 H          -3.1344    5.7802    0.8358 H       1  UNL1        0.0731
     62 H          -1.9764    4.9968   -0.2646 H       1  UNL1        0.0731
     63 H           8.3864    5.2904    3.6430 H       1  UNL1        0.1538
     64 H          10.9445    4.8968    1.1578 H       1  UNL1        0.0636
     65 H          13.3456    5.1470    1.5150 H       1  UNL1        0.0619
     66 H          14.2434    5.2758    3.8258 H       1  UNL1        0.0632
     67 H          10.2260    5.5908    5.3565 H       1  UNL1        0.0651
@<TRIPOS>UNITY_ATOM_ATTR
3 1
charge 1
@<TRIPOS>BOND
     1     1     2    1
     2     2     3    1
     3     3     4    1
     4     4     5    1
     5     3     6    1
     6     6     7    1
     7     7     8    1
     8     8     9    1
     9     9    10    1
    10    10    11    1
    11    11    12   ar
    12    12    13   ar
    13    13    14   ar
    14    14    15   ar
    15    15    16   ar
    16    16    17   ar
    17    17    18   ar
    18    13    18   ar
    19    18    19   ar
    20    19    20   ar
    21    11    20   ar
    22    20    21    2
    23    16    22    1
    24    22    23    1
    25    23    24    1
    26    24    25    1
    27    15    25    1
    28     9    26    1
    29    26    27    2
    30    26    28    1
    31    28    29    1
    32    29    30   ar
    33    30    31   ar
    34    31    32   ar
    35    32    33   ar
    36    33    34    1
    37    33    35   ar
    38    29    35   ar
    39     1    36    1
    40     1    37    1
    41     1    38    1
    42     2    39    1
    43     2    40    1
    44     3    41    1
    45     4    42    1
    46     4    43    1
    47     5    44    1
    48     5    45    1
    49     5    46    1
    50     6    47    1
    51     6    48    1
    52     7    49    1
    53     7    50    1
    54     8    51    1
    55     8    52    1
    56    10    53    1
    57    10    54    1
    58    12    55    1
    59    14    56    1
    60    17    57    1
    61    19    58    1
    62    23    59    1
    63    23    60    1
    64    24    61    1
    65    24    62    1
    66    28    63    1
    67    30    64    1
    68    31    65    1
    69    32    66    1
    70    35    67    1
