@<TRIPOS>MOLECULE
*****
 60 63 0 0 0
SMALL
GASTEIGER

@<TRIPOS>ATOM
      1 C           0.7937    0.1514   -0.0252 C.3     1  UNL1       -0.0424
      2 C           2.2790   -0.0464    0.0977 C.3     1  UNL1        0.0458
      3 N           2.5422   -0.5403    1.4640 N.am    1  UNL1       -0.3047
      4 C           2.4369    0.3267    2.5466 C.2     1  UNL1        0.2463
      5 O           1.8596    1.4102    2.5139 O.2     1  UNL1       -0.2701
      6 C           3.1191   -0.0469    3.8121 C.ar    1  UNL1        0.0579
      7 C           2.3460    0.1380    4.9868 C.ar    1  UNL1       -0.0478
      8 C           2.9165    0.0445    6.2559 C.ar    1  UNL1       -0.0609
      9 C           4.2451   -0.3415    6.3702 C.ar    1  UNL1       -0.0600
     10 C           5.0213   -0.5549    5.2066 C.ar    1  UNL1       -0.0397
     11 C           4.4832   -0.4047    3.8952 C.ar    1  UNL1        0.0456
     12 N           5.3418   -0.6709    2.7323 N.am    1  UNL1       -0.2820
     13 C           5.2153   -0.0057    1.4792 C.2     1  UNL1        0.2550
     14 O           4.6701    1.0970    1.4326 O.2     1  UNL1       -0.2717
     15 C           5.9273   -0.5793    0.1065 C.3     1  UNL1        0.1683
     16 O           5.5968   -0.1215   -1.4292 O.3     1  UNL1       -0.4549
     17 C           6.2520   -0.5554   -2.7083 C.2     1  UNL1        0.3135
     18 O           7.3418   -1.1378   -2.5261 O.2     1  UNL1       -0.2504
     19 C           5.5119   -0.4238   -4.4372 C.3     1  UNL1        0.0894
     20 C           5.9519   -1.3783   -6.1820 C.ar    1  UNL1        0.0799
     21 N           4.9062   -0.5864   -6.3797 N.ar    1  UNL1       -0.1748
     22 N           5.3509    0.4703   -7.0592 N.ar    1  UNL1       -0.2425
     23 C           4.7915    0.2047   -8.2482 C.ar    1  UNL1        0.2725
     24 O           3.6360    0.0021   -8.5856 O.2     1  UNL1       -0.2658
     25 C           5.8142   -0.4638   -8.9323 C.ar    1  UNL1        0.0496
     26 C           5.8419    0.0938  -10.3347 C.ar    1  UNL1       -0.0487
     27 C           6.5385   -0.4024  -11.3880 C.ar    1  UNL1       -0.0610
     28 C           7.2211   -1.5028  -10.9359 C.ar    1  UNL1       -0.0611
     29 C           7.1610   -2.0594   -9.3549 C.ar    1  UNL1       -0.0521
     30 C           6.4288   -1.4511   -8.0688 C.ar    1  UNL1        0.0108
     31 C           2.6655   -1.0727   -0.9602 C.ar    1  UNL1       -0.0275
     32 C           2.3220   -2.4181   -0.8375 C.ar    1  UNL1       -0.0568
     33 C           2.7596   -3.4390   -1.7104 C.ar    1  UNL1       -0.0614
     34 C           3.5463   -3.1723   -2.7662 C.ar    1  UNL1       -0.0617
     35 C           3.9503   -1.8946   -2.7791 C.ar    1  UNL1       -0.0614
     36 C           3.3863   -0.7841   -2.0823 C.ar    1  UNL1       -0.0568
     37 H           0.4336    0.8748    0.7047 H       1  UNL1        0.0251
     38 H           0.3145   -0.8061    0.1970 H       1  UNL1        0.0251
     39 H           0.5233    0.4751   -1.0305 H       1  UNL1        0.0251
     40 H           2.8027    0.9168   -0.0434 H       1  UNL1        0.0545
     41 H           3.1612   -1.3303    1.5560 H       1  UNL1        0.1496
     42 H           1.2839    0.3699    4.9030 H       1  UNL1        0.0626
     43 H           2.3327    0.2904    7.1427 H       1  UNL1        0.0618
     44 H           4.6670   -0.4806    7.3681 H       1  UNL1        0.0618
     45 H           6.0712   -0.7903    5.3700 H       1  UNL1        0.0636
     46 H           6.2773   -0.9685    2.9916 H       1  UNL1        0.1549
     47 H           5.9732   -1.6806    0.1828 H       1  UNL1        0.0796
     48 H           6.8942   -0.1232    0.2736 H       1  UNL1        0.0796
     49 H           5.1148    0.6256   -4.4555 H       1  UNL1        0.0443
     50 H           4.3987   -0.7107   -4.4132 H       1  UNL1        0.0443
     51 H           6.3958    0.4442   -7.0513 H       1  UNL1        0.1921
     52 H           5.2695    1.0060  -10.4937 H       1  UNL1        0.0625
     53 H           6.4942    0.0456  -12.3948 H       1  UNL1        0.0618
     54 H           7.8315   -1.9373  -11.7665 H       1  UNL1        0.0618
     55 H           7.7483   -2.9907   -9.4536 H       1  UNL1        0.0624
     56 H           1.6552   -2.6849   -0.0383 H       1  UNL1        0.0621
     57 H           2.5483   -4.4721   -1.5293 H       1  UNL1        0.0618
     58 H           3.9738   -3.8390   -3.5099 H       1  UNL1        0.0618
     59 H           4.8659   -1.9697   -3.3402 H       1  UNL1        0.0618
     60 H           3.6811    0.2613   -2.2562 H       1  UNL1        0.0621
@<TRIPOS>BOND
     1     1     2    1
     2     2     3    1
     3     3     4   am
     4     4     5    2
     5     4     6    1
     6     6     7   ar
     7     7     8   ar
     8     8     9   ar
     9     9    10   ar
    10    10    11   ar
    11     6    11   ar
    12    11    12    1
    13    12    13   am
    14    13    14    2
    15    13    15    1
    16    15    16    1
    17    16    17    1
    18    17    18    2
    19    17    19    1
    20    19    20    1
    21    20    21   ar
    22    21    22   ar
    23    22    23   ar
    24    23    24    2
    25    23    25   ar
    26    25    26   ar
    27    26    27   ar
    28    27    28   ar
    29    28    29   ar
    30    29    30   ar
    31    20    30   ar
    32    25    30   ar
    33     2    31    1
    34    31    32   ar
    35    32    33   ar
    36    33    34   ar
    37    34    35   ar
    38    35    36   ar
    39    31    36   ar
    40     1    37    1
    41     1    38    1
    42     1    39    1
    43     2    40    1
    44     3    41    1
    45     7    42    1
    46     8    43    1
    47     9    44    1
    48    10    45    1
    49    12    46    1
    50    15    47    1
    51    15    48    1
    52    19    49    1
    53    19    50    1
    54    22    51    1
    55    26    52    1
    56    27    53    1
    57    28    54    1
    58    29    55    1
    59    32    56    1
    60    33    57    1
    61    34    58    1
    62    35    59    1
    63    36    60    1
