@<TRIPOS>MOLECULE
*****
 52 54 0 0 0
SMALL
GASTEIGER

@<TRIPOS>ATOM
      1 C           0.9981   -0.0062    0.1004 C.3     1  UNL1        0.0209
      2 C           2.4922    0.0638    0.1226 C.ar    1  UNL1        0.1838
      3 C           3.1921    1.2787    0.1488 C.ar    1  UNL1        0.0450
      4 C           4.5779    1.2650    0.1385 C.ar    1  UNL1        0.1333
      5 N           5.3442    2.4028    0.0769 N.pl3   1  UNL1       -0.3148
      6 C           5.8257    2.7937   -1.2469 C.3     1  UNL1        0.0142
      7 C           7.2828    3.2394   -1.1131 C.3     1  UNL1       -0.0260
      8 C           7.4373    4.3920   -0.1146 C.3     1  UNL1        0.0384
      9 C           6.8492    5.7048   -0.6075 C.2     1  UNL1        0.2164
     10 O           6.0784    6.3206    0.1331 O.2     1  UNL1       -0.2755
     11 N           7.2007    6.1503   -1.8629 N.am    1  UNL1       -0.3122
     12 C           6.6598    7.3943   -2.4460 C.3     1  UNL1        0.0231
     13 C           5.1618    7.5684   -2.1347 C.3     1  UNL1       -0.0345
     14 C           4.5637    8.8744   -2.6125 C.3     1  UNL1       -0.0514
     15 C           5.3809   10.0525   -2.0957 C.3     1  UNL1       -0.0529
     16 C           6.8360    9.9313   -2.5344 C.3     1  UNL1       -0.0514
     17 C           7.4724    8.6307   -2.0328 C.3     1  UNL1       -0.0345
     18 C           6.7444    4.0220    1.2307 C.3     1  UNL1       -0.0260
     19 C           5.2903    3.5200    1.0269 C.3     1  UNL1        0.0142
     20 N           5.2372    0.0857    0.0982 N.ar    1  UNL1       -0.1757
     21 C           4.5231   -1.0664    0.1052 C.ar    1  UNL1        0.2768
     22 C           5.2518   -2.3782    0.1024 C.3     1  UNL1        0.0406
     23 N           3.1835   -1.0892    0.1095 N.ar    1  UNL1       -0.1960
     24 H           0.5569    0.9948    0.0928 H       1  UNL1        0.0336
     25 H           0.6313   -0.5340    0.9863 H       1  UNL1        0.0336
     26 H           0.6505   -0.5358   -0.7933 H       1  UNL1        0.0336
     27 H           2.6534    2.2209    0.1299 H       1  UNL1        0.0714
     28 H           5.2098    3.6148   -1.6383 H       1  UNL1        0.0464
     29 H           5.7592    1.9712   -1.9668 H       1  UNL1        0.0464
     30 H           7.6764    3.5079   -2.0975 H       1  UNL1        0.0288
     31 H           7.8769    2.3903   -0.7492 H       1  UNL1        0.0288
     32 H           8.5026    4.5830    0.0713 H       1  UNL1        0.0395
     33 H           8.0047    5.7398   -2.3258 H       1  UNL1        0.1490
     34 H           6.7667    7.2773   -3.5341 H       1  UNL1        0.0498
     35 H           4.9924    7.6041   -1.0592 H       1  UNL1        0.0283
     36 H           4.5997    6.7075   -2.5121 H       1  UNL1        0.0283
     37 H           3.5402    8.9453   -2.2246 H       1  UNL1        0.0266
     38 H           4.5093    8.8854   -3.7042 H       1  UNL1        0.0266
     39 H           5.3345   10.0914   -0.9986 H       1  UNL1        0.0265
     40 H           4.9464   10.9863   -2.4659 H       1  UNL1        0.0265
     41 H           7.4051   10.7900   -2.1612 H       1  UNL1        0.0266
     42 H           6.8823    9.9671   -3.6299 H       1  UNL1        0.0266
     43 H           7.5633    8.6692   -0.9409 H       1  UNL1        0.0283
     44 H           8.4948    8.5582   -2.4265 H       1  UNL1        0.0283
     45 H           6.7487    4.8817    1.9149 H       1  UNL1        0.0288
     46 H           7.3289    3.2365    1.7232 H       1  UNL1        0.0288
     47 H           4.6528    4.3216    0.6303 H       1  UNL1        0.0464
     48 H           4.8677    3.2286    1.9949 H       1  UNL1        0.0464
     49 H           6.3356   -2.2282    0.1079 H       1  UNL1        0.0354
     50 H           4.9896   -2.9603   -0.7872 H       1  UNL1        0.0354
     51 H           4.9829   -2.9643    0.9877 H       1  UNL1        0.0354
     52 H           2.7016   -1.9868    0.0987 H       1  UNL1        0.4544
@<TRIPOS>UNITY_ATOM_ATTR
23 1
charge 1
@<TRIPOS>BOND
     1     1     2    1
     2     2     3   ar
     3     3     4   ar
     4     4     5    1
     5     5     6    1
     6     6     7    1
     7     7     8    1
     8     8     9    1
     9     9    10    2
    10     9    11   am
    11    11    12    1
    12    12    13    1
    13    13    14    1
    14    14    15    1
    15    15    16    1
    16    16    17    1
    17    12    17    1
    18     8    18    1
    19    18    19    1
    20     5    19    1
    21     4    20   ar
    22    20    21   ar
    23    21    22    1
    24    21    23   ar
    25     2    23   ar
    26     1    24    1
    27     1    25    1
    28     1    26    1
    29     3    27    1
    30     6    28    1
    31     6    29    1
    32     7    30    1
    33     7    31    1
    34     8    32    1
    35    11    33    1
    36    12    34    1
    37    13    35    1
    38    13    36    1
    39    14    37    1
    40    14    38    1
    41    15    39    1
    42    15    40    1
    43    16    41    1
    44    16    42    1
    45    17    43    1
    46    17    44    1
    47    18    45    1
    48    18    46    1
    49    19    47    1
    50    19    48    1
    51    22    49    1
    52    22    50    1
    53    22    51    1
    54    23    52    1
