@<TRIPOS>MOLECULE
*****
 39 40 0 0 0
SMALL
GASTEIGER

@<TRIPOS>ATOM
      1 C           1.8151    4.8010    3.9403 C.3     1  UNL1       -0.0380
      2 C           1.9868    6.2496    3.6034 C.ar    1  UNL1       -0.0292
      3 C           2.0528    7.0735    4.7530 C.ar    1  UNL1       -0.0571
      4 C           2.3697    8.4176    4.6736 C.ar    1  UNL1       -0.0614
      5 C           2.6206    8.9685    3.4255 C.ar    1  UNL1       -0.0600
      6 C           2.5639    8.1661    2.2576 C.ar    1  UNL1       -0.0402
      7 C           2.2587    6.7787    2.3117 C.ar    1  UNL1        0.0364
      8 N           2.5427    5.9899    1.1203 N.am    1  UNL1       -0.2837
      9 C           2.4128    4.6156    0.9642 C.2     1  UNL1        0.2373
     10 O           1.6606    3.9148    1.6404 O.2     1  UNL1       -0.2734
     11 C           3.2061    3.8880   -0.1634 C.3     1  UNL1        0.0972
     12 C           2.5601    2.4593   -0.1988 C.3     1  UNL1       -0.0381
     13 N           4.6820    3.7136   -0.0083 N.am    1  UNL1       -0.3003
     14 C           5.6975    4.6470   -0.0656 C.2     1  UNL1        0.2461
     15 O           6.6693    4.4817   -0.8226 O.2     1  UNL1       -0.2701
     16 C           5.7471    5.7552    0.9203 C.ar    1  UNL1        0.0550
     17 C           6.4696    6.9407    0.7031 C.ar    1  UNL1       -0.0482
     18 C           6.3954    8.0150    1.6085 C.ar    1  UNL1       -0.0610
     19 C           5.6034    7.9072    2.7338 C.ar    1  UNL1       -0.0603
     20 C           5.1106    6.6542    3.0625 C.ar    1  UNL1       -0.0427
     21 C           5.2577    5.5663    2.2032 C.ar    1  UNL1        0.0531
     22 CL          5.0628    3.9885    2.8803 Cl      1  UNL1       -0.0828
     23 H           1.7050    4.5951    5.0059 H       1  UNL1        0.0278
     24 H           2.6993    4.2375    3.6556 H       1  UNL1        0.0278
     25 H           0.8980    4.4464    3.4793 H       1  UNL1        0.0278
     26 H           1.9683    6.6145    5.7382 H       1  UNL1        0.0621
     27 H           2.5009    8.9894    5.5895 H       1  UNL1        0.0618
     28 H           2.9967    9.9906    3.3828 H       1  UNL1        0.0618
     29 H           2.9579    8.6202    1.3471 H       1  UNL1        0.0636
     30 H           3.0132    6.4849    0.3711 H       1  UNL1        0.1549
     31 H           3.0067    4.3909   -1.1153 H       1  UNL1        0.0592
     32 H           2.8230    1.8897    0.7074 H       1  UNL1        0.0252
     33 H           2.8642    1.8591   -1.0584 H       1  UNL1        0.0252
     34 H           1.4613    2.5174   -0.2163 H       1  UNL1        0.0252
     35 H           5.0147    2.7997   -0.2997 H       1  UNL1        0.1498
     36 H           7.1738    7.0023   -0.1227 H       1  UNL1        0.0625
     37 H           6.9757    8.9236    1.4730 H       1  UNL1        0.0618
     38 H           5.4076    8.7560    3.3855 H       1  UNL1        0.0618
     39 H           4.5438    6.5352    3.9780 H       1  UNL1        0.0632
@<TRIPOS>BOND
     1     1     2    1
     2     2     3   ar
     3     3     4   ar
     4     4     5   ar
     5     5     6   ar
     6     6     7   ar
     7     2     7   ar
     8     7     8    1
     9     8     9   am
    10     9    10    2
    11    11    13    1
    12    13    14   am
    13    14    15    2
    14    14    16    1
    15    16    17   ar
    16    17    18   ar
    17    18    19   ar
    18    19    20   ar
    19    20    21   ar
    20    16    21   ar
    21    21    22    1
    22    11    12    1
    23    11     9    1
    24     1    23    1
    25     1    24    1
    26     1    25    1
    27     3    26    1
    28     4    27    1
    29     5    28    1
    30     6    29    1
    31     8    30    1
    32    11    31    1
    33    12    32    1
    34    12    33    1
    35    12    34    1
    36    13    35    1
    37    17    36    1
    38    18    37    1
    39    19    38    1
    40    20    39    1
