@<TRIPOS>MOLECULE
*****
 46 48 0 0 0
SMALL
GASTEIGER

@<TRIPOS>ATOM
      1 C           2.4761   -1.7550    0.1154 C.3     1  UNL1       -0.0260
      2 C           1.6688   -0.4914   -0.0502 C.2     1  UNL1        0.0167
      3 C           2.0756    0.8066    0.0242 C.2     1  UNL1        0.0571
      4 C           3.5706    1.1419    0.2254 C.2     1  UNL1        0.2628
      5 O           4.4019    0.2417    0.3917 O.2     1  UNL1       -0.2687
      6 N           4.0047    2.4585    0.2186 N.am    1  UNL1       -0.2031
      7 N           5.3304    2.7669    0.4419 N.2     1  UNL1       -0.1875
      8 C           5.6421    4.0190    0.5726 C.2     1  UNL1        0.0528
      9 C           7.0451    4.4403    0.7929 C.ar    1  UNL1       -0.0052
     10 C           8.0697    3.7977    0.0915 C.ar    1  UNL1       -0.0497
     11 C           9.4020    4.1778    0.2866 C.ar    1  UNL1       -0.0196
     12 C           9.6984    5.1927    1.1918 C.ar    1  UNL1        0.1169
     13 O          10.9793    5.5981    1.4269 O.3     1  UNL1       -0.5068
     14 C           8.6838    5.8359    1.8957 C.ar    1  UNL1       -0.0196
     15 C           7.3475    5.4734    1.6873 C.ar    1  UNL1       -0.0497
     16 C           0.9931    1.8912   -0.0987 C.3     1  UNL1        0.0793
     17 C           1.2045    3.0578    0.8439 C.ar    1  UNL1       -0.0162
     18 C           1.5808    4.3200    0.3558 C.ar    1  UNL1       -0.0561
     19 C           2.2239    5.2121    1.2143 C.ar    1  UNL1       -0.0550
     20 C           2.3529    4.9158    2.5761 C.ar    1  UNL1        0.0156
     21 C           1.8392    3.7139    3.0803 C.ar    1  UNL1        0.2735
     22 N           2.0033    3.3692    4.4954 N.pl3   1  UNL1        0.0796
     23 O           2.5614    4.1957    5.2250 O.2     1  UNL1        0.0414
     24 O           1.5691    2.2691    4.8736 O.co2   1  UNL1       -0.5760
     25 C           1.2574    2.7883    2.2215 C.ar    1  UNL1        0.0208
     26 N          -0.3373    1.3717    0.1880 N.am    1  UNL1       -0.3153
     27 C          -0.6937    0.0941   -0.0626 C.2     1  UNL1        0.1350
     28 S          -2.2802   -0.3914   -0.0291 S.2     1  UNL1       -0.0185
     29 N           0.3251   -0.7794   -0.2577 N.am    1  UNL1       -0.3001
     30 H           3.5380   -1.6352    0.2912 H       1  UNL1        0.0290
     31 H           2.3748   -2.3917   -0.7682 H       1  UNL1        0.0290
     32 H           2.0950   -2.3068    0.9842 H       1  UNL1        0.0290
     33 H           3.3939    3.2330    0.0624 H       1  UNL1        0.1776
     34 H           4.9002    4.8351    0.5322 H       1  UNL1        0.0851
     35 H           7.8276    3.0047   -0.6125 H       1  UNL1        0.0625
     36 H          10.1833    3.6656   -0.2663 H       1  UNL1        0.0654
     37 H          11.5885    5.0815    0.8738 H       1  UNL1        0.2921
     38 H           8.9425    6.6107    2.6137 H       1  UNL1        0.0654
     39 H           6.5712    5.9785    2.2547 H       1  UNL1        0.0625
     40 H           0.9596    2.2364   -1.1403 H       1  UNL1        0.0601
     41 H           1.5481    4.5338   -0.7139 H       1  UNL1        0.0621
     42 H           2.7130    6.0955    0.8060 H       1  UNL1        0.0620
     43 H           2.8753    5.6150    3.2245 H       1  UNL1        0.0685
     44 H           0.9346    1.8112    2.5857 H       1  UNL1        0.0689
     45 H          -1.0924    2.0102    0.4088 H       1  UNL1        0.1486
     46 H           0.0444   -1.7486   -0.3849 H       1  UNL1        0.1535
@<TRIPOS>UNITY_ATOM_ATTR
22 1
charge 1
24 1
charge -1
@<TRIPOS>BOND
     1     1     2    1
     2     2     3    2
     3     3     4    1
     4     4     5    2
     5     4     6   am
     6     6     7    1
     7     7     8    2
     8     8     9    1
     9     9    10   ar
    10    10    11   ar
    11    11    12   ar
    12    12    13    1
    13    12    14   ar
    14    14    15   ar
    15     9    15   ar
    16     3    16    1
    17    16    17    1
    18    17    18   ar
    19    18    19   ar
    20    19    20   ar
    21    20    21   ar
    22    21    22    1
    23    22    23    2
    24    22    24    1
    25    21    25   ar
    26    17    25   ar
    27    16    26    1
    28    26    27    1
    29    27    28    2
    30    27    29    1
    31     2    29    1
    32     1    30    1
    33     1    31    1
    34     1    32    1
    35     6    33    1
    36     8    34    1
    37    10    35    1
    38    11    36    1
    39    13    37    1
    40    14    38    1
    41    15    39    1
    42    16    40    1
    43    18    41    1
    44    19    42    1
    45    20    43    1
    46    25    44    1
    47    26    45    1
    48    29    46    1
