@<TRIPOS>MOLECULE
*****
 62 65 0 0 0
SMALL
GASTEIGER

@<TRIPOS>ATOM
      1 C           5.8978   -7.5856    3.0380 C.3     1  UNL1       -0.0597
      2 C           6.0601   -8.9893    2.4876 C.3     1  UNL1       -0.0052
      3 C           5.8028   -8.9838    1.0036 C.3     1  UNL1        0.0394
      4 C           6.5303   -7.7897    0.2383 C.ar    1  UNL1        0.1827
      5 N           7.8005   -7.5595    0.5346 N.ar    1  UNL1       -0.1276
      6 N           8.2934   -6.5629   -0.2475 N.ar    1  UNL1       -0.1223
      7 C           7.3590   -6.1842   -1.0860 C.ar    1  UNL1        0.1925
      8 S           7.6963   -5.0228   -2.3725 S.3     1  UNL1       -0.0783
      9 C           6.2331   -4.8168   -3.4145 C.3     1  UNL1        0.0613
     10 C           6.3186   -3.8581   -4.5705 C.2     1  UNL1        0.1676
     11 O           7.3530   -3.2486   -4.8396 O.2     1  UNL1       -0.2947
     12 C           5.0708   -3.6968   -5.4431 C.3     1  UNL1        0.1621
     13 C           3.8168   -3.6752   -4.5888 C.1     1  UNL1        0.0814
     14 N           2.9158   -3.6967   -3.9055 N.1     1  UNL1       -0.1954
     15 C           4.9459   -4.8013   -6.4855 C.ar    1  UNL1        0.1326
     16 N           3.9042   -5.6046   -6.5176 N.ar    1  UNL1       -0.2307
     17 C           4.0226   -6.3495   -7.6436 C.ar    1  UNL1        0.0892
     18 C           3.2244   -7.4029   -8.0814 C.ar    1  UNL1       -0.0342
     19 C           3.6435   -8.1812   -9.1364 C.ar    1  UNL1       -0.0596
     20 C           4.0762   -7.4083  -10.1487 C.ar    1  UNL1       -0.0597
     21 C           5.1857   -6.5865   -9.7522 C.ar    1  UNL1       -0.0363
     22 C           5.1077   -5.9838   -8.4305 C.ar    1  UNL1        0.0662
     23 N           5.7864   -5.0887   -7.5827 N.ar    1  UNL1       -0.3404
     24 N           6.1628   -6.8716   -0.7850 N.ar    1  UNL1       -0.2971
     25 C           4.9742   -6.5922   -1.6618 C.3     1  UNL1        0.0520
     26 C           3.5094   -6.9949   -1.5173 C.ar    1  UNL1       -0.0276
     27 C           2.9050   -7.9541   -2.4244 C.ar    1  UNL1       -0.0569
     28 C           1.7661   -8.7087   -2.0106 C.ar    1  UNL1       -0.0614
     29 C           1.2441   -8.4950   -0.7069 C.ar    1  UNL1       -0.0617
     30 C           1.7812   -7.4693    0.1279 C.ar    1  UNL1       -0.0614
     31 C           2.8784   -6.6881   -0.2977 C.ar    1  UNL1       -0.0569
     32 N           4.3414   -9.0461    0.8847 N.4     1  UNL1        0.2386
     33 C           4.2466   -9.3369   -0.5221 C.3     1  UNL1       -0.0427
     34 C           3.3833  -10.0141    1.5438 C.3     1  UNL1       -0.0427
     35 H           6.0868   -7.5832    4.1060 H       1  UNL1        0.0232
     36 H           4.8950   -7.1802    2.8505 H       1  UNL1        0.0232
     37 H           6.6017   -6.8988    2.5659 H       1  UNL1        0.0232
     38 H           5.3617   -9.6504    3.0118 H       1  UNL1        0.0322
     39 H           7.0379   -9.4372    2.6599 H       1  UNL1        0.0322
     40 H           6.1526   -9.9227    0.5495 H       1  UNL1        0.0935
     41 H           5.4478   -4.3895   -2.7955 H       1  UNL1        0.0459
     42 H           5.9723   -5.7702   -3.8735 H       1  UNL1        0.0459
     43 H           5.1368   -2.7159   -5.9187 H       1  UNL1        0.0613
     44 H           2.2236   -7.5092   -7.6977 H       1  UNL1        0.0639
     45 H           4.5599   -8.8319   -9.0693 H       1  UNL1        0.0618
     46 H           3.7465   -7.9822  -11.0278 H       1  UNL1        0.0618
     47 H           6.1008   -6.5366  -10.3381 H       1  UNL1        0.0639
     48 H           6.6763   -4.6274   -7.7438 H       1  UNL1        0.1671
     49 H           5.3123   -6.9876   -2.6243 H       1  UNL1        0.0542
     50 H           4.9022   -5.5180   -1.5486 H       1  UNL1        0.0542
     51 H           3.5268   -8.4058   -3.2169 H       1  UNL1        0.0621
     52 H           1.5346   -9.6574   -2.5196 H       1  UNL1        0.0618
     53 H           0.6851   -9.3185   -0.2360 H       1  UNL1        0.0618
     54 H           1.5851   -7.5037    1.2082 H       1  UNL1        0.0618
     55 H           3.4601   -6.1241    0.4400 H       1  UNL1        0.0621
     56 H           4.0089   -8.1200    1.1960 H       1  UNL1        0.2035
     57 H           4.2637  -10.3517   -0.8716 H       1  UNL1        0.0778
     58 H           4.9435   -8.7643   -1.1047 H       1  UNL1        0.0778
     59 H           3.2763   -9.0322   -0.6109 H       1  UNL1        0.0778
     60 H           3.4766  -10.9716    1.0329 H       1  UNL1        0.0778
     61 H           2.3558   -9.6591    1.3911 H       1  UNL1        0.0778
     62 H           3.5099  -10.0489    2.6176 H       1  UNL1        0.0778
@<TRIPOS>UNITY_ATOM_ATTR
32 1
charge 1
@<TRIPOS>BOND
     1     1     2    1
     2     4     5   ar
     3     5     6   ar
     4     6     7   ar
     5     7     8    1
     6     8     9    1
     7     9    10    1
     8    10    11    2
     9    13    14    3
    10    12    15    1
    11    15    16   ar
    12    16    17   ar
    13    17    18   ar
    14    18    19   ar
    15    19    20   ar
    16    20    21   ar
    17    21    22   ar
    18    17    22   ar
    19    22    23   ar
    20    15    23   ar
    21     7    24   ar
    22     4    24   ar
    23    24    25    1
    24    25    26    1
    25    26    27   ar
    26    27    28   ar
    27    28    29   ar
    28    29    30   ar
    29    30    31   ar
    30    26    31   ar
    31     3    32    1
    32    32    33    1
    33    32    34    1
    34     3     4    1
    35     3     2    1
    36    12    13    1
    37    12    10    1
    38     1    35    1
    39     1    36    1
    40     1    37    1
    41     2    38    1
    42     2    39    1
    43     3    40    1
    44     9    41    1
    45     9    42    1
    46    12    43    1
    47    18    44    1
    48    19    45    1
    49    20    46    1
    50    21    47    1
    51    23    48    1
    52    25    49    1
    53    25    50    1
    54    27    51    1
    55    28    52    1
    56    29    53    1
    57    30    54    1
    58    31    55    1
    59    32    56    1
    60    33    57    1
    61    33    58    1
    62    33    59    1
    63    34    60    1
    64    34    61    1
    65    34    62    1
