REMARK  10 active torsions:
REMARK  status: ('A' for Active; 'I' for Inactive)
REMARK    1  A    between atoms: O_2  and  C_3 
REMARK    2  A    between atoms: C_3  and  C_4 
REMARK    3  A    between atoms: C_4  and  O_5 
REMARK    4  A    between atoms: O_5  and  C_6 
REMARK    5  A    between atoms: C_9  and  C_10 
REMARK       I    between atoms: C_10  and  N_12 
REMARK    6  A    between atoms: N_12  and  C_13 
REMARK    7  A    between atoms: C_13  and  N_15 
REMARK    8  A    between atoms: N_15  and  N_16 
REMARK       I    between atoms: N_16  and  C_17 
REMARK    9  A    between atoms: C_17  and  C_19 
REMARK   10  A    between atoms: C_19  and  C_20 
ROOT
ATOM      1  C   UNL d   1      10.569  -2.488  -2.792  0.00  0.00     0.257 C 
ATOM      2  O   UNL d   1      10.889  -2.466  -3.984  0.00  0.00    -0.267 OA
ATOM      3  N   UNL d   1      11.496  -2.679  -1.732  0.00  0.00    -0.298 N 
ATOM      4  H   UNL d   1      11.133  -2.687  -0.791  0.00  0.00     0.171 HD
ENDROOT
BRANCH   3   5
ATOM      5  C   UNL d   1      12.893  -2.862  -1.854  0.00  0.00     0.193 C 
ATOM      6  S   UNL d   1      13.747  -2.892  -3.310  0.00  0.00    -0.039 SA
BRANCH   5   7
ATOM      7  N   UNL d   1      13.591  -3.026  -0.644  0.00  0.00    -0.273 N 
ATOM      8  H   UNL d   1      13.193  -3.027   0.295  0.00  0.00     0.189 HD
BRANCH   7   9
ATOM      9  N   UNL d   1      15.031  -3.217  -0.683  0.00  0.00    -0.268 N 
ATOM     10  C   UNL d   1      15.762  -3.384   0.484  0.00  0.00     0.240 C 
ATOM     11  O   UNL d   1      15.207  -3.373   1.582  0.00  0.00    -0.272 OA
ATOM     12  H   UNL d   1      15.449  -3.219  -1.614  0.00  0.00     0.190 HD
BRANCH  10  13
ATOM     13  C   UNL d   1      17.284  -3.576   0.291  0.00  0.00     0.143 C 
BRANCH  13  14
ATOM     14  C   UNL d   1      18.031  -3.753   1.606  0.00  0.00    -0.049 A 
ATOM     15  C   UNL d   1      18.219  -5.030   2.158  0.00  0.00     0.009 A 
ATOM     16  C   UNL d   1      18.789  -5.183   3.427  0.00  0.00     0.024 A 
ATOM     17  C   UNL d   1      19.183  -4.060   4.150  0.00  0.00     0.034 A 
ATOM     18 CL   UNL d   1      19.843  -4.245   5.730  0.00  0.00    -0.084 Cl
ATOM     19  C   UNL d   1      19.035  -2.787   3.605  0.00  0.00     0.024 A 
ATOM     20  C   UNL d   1      18.462  -2.634   2.337  0.00  0.00     0.009 A 
ENDBRANCH  13  14
ENDBRANCH  10  13
ENDBRANCH   7   9
ENDBRANCH   5   7
ENDBRANCH   3   5
BRANCH   1  21
ATOM     21  C   UNL d   1       9.099  -2.297  -2.539  0.00  0.00     0.033 A 
ATOM     22  C   UNL d   1       8.225  -2.130  -3.637  0.00  0.00     0.020 A 
ATOM     23  C   UNL d   1       6.838  -1.962  -3.456  0.00  0.00     0.039 A 
ATOM     24  C   UNL d   1       6.285  -1.938  -2.168  0.00  0.00     0.086 A 
ATOM     25  C   UNL d   1       7.151  -2.143  -1.080  0.00  0.00     0.045 A 
ATOM     26  C   UNL d   1       8.539  -2.298  -1.270  0.00  0.00     0.039 A 
ATOM     27 BR   UNL d   1       6.629  -2.379   0.738  0.00  0.00    -0.048 Br
BRANCH  24  28
ATOM     28  O   UNL d   1       4.917  -1.818  -2.125  0.00  0.00    -0.348 OA
BRANCH  28  29
ATOM     29  C   UNL d   1       4.402  -0.876  -1.179  0.00  0.00     0.201 C 
BRANCH  29  30
ATOM     30  C   UNL d   1       2.879  -0.900  -1.177  0.00  0.00     0.193 C 
BRANCH  30  31
ATOM     31  O   UNL d   1       2.405  -0.016  -0.157  0.00  0.00    -0.394 OA
ATOM     32  C   UNL d   1       0.986  -0.014  -0.105  0.00  0.00     0.201 C 
ENDBRANCH  30  31
ENDBRANCH  29  30
ENDBRANCH  28  29
ENDBRANCH  24  28
ENDBRANCH   1  21
TORSDOF 10
