@<TRIPOS>MOLECULE
*****
 62 65 0 0 0
SMALL
GASTEIGER

@<TRIPOS>ATOM
      1 O           1.2722   -0.8508   -0.3490 O.2     1  UNL1       -0.2687
      2 C           2.4387   -0.4637   -0.2577 C.2     1  UNL1        0.2601
      3 N           3.1809   -0.0261   -1.3445 N.am    1  UNL1       -0.2311
      4 N           2.5727    0.1420   -2.6790 N.am    1  UNL1       -0.2453
      5 C           3.2947    0.8766   -3.6536 C.2     1  UNL1        0.1533
      6 S           4.8819    1.3456   -3.3303 S.2     1  UNL1       -0.0170
      7 N           2.6112    1.1273   -4.8837 N.am    1  UNL1       -0.2626
      8 C           3.0945    1.8776   -6.0070 C.2     1  UNL1        0.2531
      9 O           4.2852    2.1235   -6.1959 O.2     1  UNL1       -0.2697
     10 C           2.1819    2.3783   -7.1147 C.ar    1  UNL1        0.0786
     11 C           2.6018    2.0048   -8.4175 C.ar    1  UNL1       -0.0461
     12 C           2.0156    2.5331   -9.5796 C.ar    1  UNL1       -0.0608
     13 C           0.9444    3.4061   -9.4759 C.ar    1  UNL1       -0.0583
     14 C           0.5354    3.8241   -8.2121 C.ar    1  UNL1       -0.0192
     15 C           1.1700    3.3653   -7.0324 C.ar    1  UNL1        0.1326
     16 O           0.7048    4.0676   -5.9424 O.3     1  UNL1       -0.4909
     17 C           1.2843    3.7019   -4.7115 C.3     1  UNL1        0.0936
     18 C           0.6286    4.3526   -3.5168 C.3     1  UNL1        0.0066
     19 C           1.2560    3.8756   -2.2391 C.ar    1  UNL1       -0.0442
     20 C           0.9939    2.5696   -1.8872 C.ar    1  UNL1       -0.0585
     21 C           1.2961    2.1423   -0.6145 C.ar    1  UNL1       -0.0615
     22 C           2.0906    2.8726    0.2474 C.ar    1  UNL1       -0.0617
     23 C           2.3775    4.1774   -0.0963 C.ar    1  UNL1       -0.0615
     24 C           1.9337    4.6883   -1.3258 C.ar    1  UNL1       -0.0585
     25 C           3.1111   -0.5131    1.0758 C.ar    1  UNL1        0.0383
     26 C           4.2390    0.2085    1.5004 C.ar    1  UNL1       -0.0478
     27 C           4.9912   -0.2619    2.6000 C.ar    1  UNL1       -0.0398
     28 C           4.5611   -1.3901    3.3152 C.ar    1  UNL1        0.0334
     29 N           5.2986   -1.8915    4.4126 N.am    1  UNL1       -0.2853
     30 C           4.9119   -2.9726    5.1810 C.2     1  UNL1        0.2203
     31 O           3.9043   -3.6804    5.0479 O.2     1  UNL1       -0.2752
     32 C           5.7725   -3.3182    6.3241 C.3     1  UNL1        0.0359
     33 C           6.4863   -4.6572    6.2665 C.3     1  UNL1       -0.0412
     34 C           7.2693   -3.3758    6.2528 C.3     1  UNL1       -0.0412
     35 C           3.3696   -2.0005    2.9332 C.ar    1  UNL1       -0.0398
     36 C           2.6257   -1.5393    1.8704 C.ar    1  UNL1       -0.0478
     37 H           4.0807    0.4315   -1.2210 H       1  UNL1        0.1731
     38 H           1.5548    0.1015   -2.6391 H       1  UNL1        0.1718
     39 H           1.6306    0.8840   -4.9142 H       1  UNL1        0.1569
     40 H           3.4436    1.3231   -8.5401 H       1  UNL1        0.0626
     41 H           2.4097    2.2796  -10.5628 H       1  UNL1        0.0618
     42 H           0.4506    3.7855  -10.3689 H       1  UNL1        0.0619
     43 H          -0.2645    4.5620   -8.1428 H       1  UNL1        0.0654
     44 H           2.3623    3.8970   -4.7128 H       1  UNL1        0.0700
     45 H           1.0351    2.6550   -4.5981 H       1  UNL1        0.0700
     46 H          -0.4168    4.0100   -3.4996 H       1  UNL1        0.0346
     47 H           0.6060    5.4372   -3.5848 H       1  UNL1        0.0346
     48 H           0.4798    1.8986   -2.5677 H       1  UNL1        0.0620
     49 H           0.8567    1.2119   -0.3082 H       1  UNL1        0.0618
     50 H           2.4052    2.4463    1.1948 H       1  UNL1        0.0618
     51 H           2.8572    4.8146    0.6396 H       1  UNL1        0.0618
     52 H           2.0718    5.7413   -1.5380 H       1  UNL1        0.0620
     53 H           4.5552    1.1205    0.9973 H       1  UNL1        0.0626
     54 H           5.9300    0.2355    2.8421 H       1  UNL1        0.0636
     55 H           6.1410   -1.3944    4.6799 H       1  UNL1        0.1548
     56 H           5.2986   -3.0939    7.2751 H       1  UNL1        0.0394
     57 H           6.4197   -5.2321    5.3465 H       1  UNL1        0.0273
     58 H           6.4797   -5.2749    7.1568 H       1  UNL1        0.0273
     59 H           7.7549   -3.1011    5.3256 H       1  UNL1        0.0273
     60 H           7.8140   -3.0992    7.1470 H       1  UNL1        0.0273
     61 H           2.9816   -2.8986    3.3913 H       1  UNL1        0.0636
     62 H           1.7093   -2.0679    1.6214 H       1  UNL1        0.0626
@<TRIPOS>BOND
     1     1     2    2
     2     2     3   am
     3     3     4    1
     4     4     5    1
     5     5     6    2
     6     5     7    1
     7     7     8   am
     8     8     9    2
     9     8    10    1
    10    10    11   ar
    11    11    12   ar
    12    12    13   ar
    13    13    14   ar
    14    14    15   ar
    15    10    15   ar
    16    15    16    1
    17    16    17    1
    18    17    18    1
    19    18    19    1
    20    19    20   ar
    21    20    21   ar
    22    21    22   ar
    23    22    23   ar
    24    23    24   ar
    25    19    24   ar
    26     2    25    1
    27    25    26   ar
    28    26    27   ar
    29    27    28   ar
    30    28    29    1
    31    29    30   am
    32    30    31    2
    33    30    32    1
    34    32    33    1
    35    33    34    1
    36    32    34    1
    37    28    35   ar
    38    35    36   ar
    39    25    36   ar
    40     3    37    1
    41     4    38    1
    42     7    39    1
    43    11    40    1
    44    12    41    1
    45    13    42    1
    46    14    43    1
    47    17    44    1
    48    17    45    1
    49    18    46    1
    50    18    47    1
    51    20    48    1
    52    21    49    1
    53    22    50    1
    54    23    51    1
    55    24    52    1
    56    26    53    1
    57    27    54    1
    58    29    55    1
    59    32    56    1
    60    33    57    1
    61    33    58    1
    62    34    59    1
    63    34    60    1
    64    35    61    1
    65    36    62    1
