@<TRIPOS>MOLECULE
*****
 37 39 0 0 0
SMALL
GASTEIGER

@<TRIPOS>ATOM
      1 O           0.9739   -0.0718    0.1490 O.2     1  UNL1       -0.2684
      2 C           2.2009   -0.0250    0.0344 C.2     1  UNL1        0.2634
      3 N           2.8977   -0.1676   -1.1727 N.am    1  UNL1       -0.2030
      4 N           2.1843   -0.3290   -2.3494 N.2     1  UNL1       -0.1875
      5 C           2.8351   -0.5862   -3.4434 C.2     1  UNL1        0.0528
      6 C           2.1272   -0.7761   -4.7474 C.ar    1  UNL1       -0.0049
      7 C           1.0302    0.0242   -5.0673 C.ar    1  UNL1       -0.0525
      8 C           0.3739   -0.1344   -6.2961 C.ar    1  UNL1       -0.0534
      9 C           0.8017   -1.0895   -7.2329 C.ar    1  UNL1       -0.0178
     10 C           0.1558   -1.2327   -8.4771 C.ar    1  UNL1       -0.0540
     11 C           0.5804   -2.1865   -9.4028 C.ar    1  UNL1       -0.0612
     12 C           1.6532   -3.0146   -9.0928 C.ar    1  UNL1       -0.0612
     13 C           2.3057   -2.8845   -7.8602 C.ar    1  UNL1       -0.0540
     14 C           1.9038   -1.9170   -6.9149 C.ar    1  UNL1       -0.0173
     15 C           2.5612   -1.7439   -5.6685 C.ar    1  UNL1       -0.0454
     16 C           3.0032    0.1820    1.2840 C.ar    1  UNL1        0.0420
     17 C           2.6132   -0.4520    2.4842 C.ar    1  UNL1       -0.0459
     18 C           3.3056   -0.2221    3.6891 C.ar    1  UNL1       -0.0158
     19 C           4.3828    0.6562    3.6939 C.ar    1  UNL1        0.1583
     20 O           5.1009    0.9300    4.8263 O.3     1  UNL1       -0.5033
     21 C           4.7570    1.2967    2.5120 C.ar    1  UNL1        0.1589
     22 O           5.8104    2.1695    2.5042 O.3     1  UNL1       -0.5033
     23 C           4.0765    1.0758    1.3137 C.ar    1  UNL1       -0.0044
     24 H           3.9106   -0.2104   -1.1938 H       1  UNL1        0.1776
     25 H           3.9355   -0.6846   -3.4693 H       1  UNL1        0.0851
     26 H           0.6858    0.7867   -4.3725 H       1  UNL1        0.0624
     27 H          -0.4838    0.4982   -6.5180 H       1  UNL1        0.0624
     28 H          -0.6852   -0.5928   -8.7386 H       1  UNL1        0.0624
     29 H           0.0733   -2.2816  -10.3606 H       1  UNL1        0.0618
     30 H           1.9848   -3.7603   -9.8122 H       1  UNL1        0.0618
     31 H           3.1384   -3.5507   -7.6461 H       1  UNL1        0.0624
     32 H           3.3992   -2.3899   -5.4179 H       1  UNL1        0.0630
     33 H           1.7560   -1.1253    2.4861 H       1  UNL1        0.0626
     34 H           2.9840   -0.7271    4.5966 H       1  UNL1        0.0655
     35 H           4.7251    0.4290    5.5721 H       1  UNL1        0.2923
     36 H           6.1466    2.1819    3.4225 H       1  UNL1        0.2923
     37 H           4.3638    1.6397    0.4342 H       1  UNL1        0.0663
@<TRIPOS>BOND
     1     1     2    2
     2     2     3   am
     3     3     4    1
     4     4     5    2
     5     5     6    1
     6     6     7   ar
     7     7     8   ar
     8     8     9   ar
     9     9    10   ar
    10    10    11   ar
    11    11    12   ar
    12    12    13   ar
    13    13    14   ar
    14     9    14   ar
    15    14    15   ar
    16     6    15   ar
    17     2    16    1
    18    16    17   ar
    19    17    18   ar
    20    18    19   ar
    21    19    20    1
    22    19    21   ar
    23    21    22    1
    24    21    23   ar
    25    16    23   ar
    26     3    24    1
    27     5    25    1
    28     7    26    1
    29     8    27    1
    30    10    28    1
    31    11    29    1
    32    12    30    1
    33    13    31    1
    34    15    32    1
    35    17    33    1
    36    18    34    1
    37    20    35    1
    38    22    36    1
    39    23    37    1
