@<TRIPOS>MOLECULE
*****
 63 64 0 0 0
SMALL
GASTEIGER

@<TRIPOS>ATOM
      1 C           0.8531    2.0308    0.0148 C.3     1  UNL1       -0.0366
      2 C          -0.1743    0.9497    0.0026 C.ar    1  UNL1       -0.0110
      3 C           0.3229   -0.3734    0.0081 C.ar    1  UNL1        0.0456
      4 CL          2.0225   -0.7342    0.0042 Cl      1  UNL1       -0.0832
      5 C          -0.5325   -1.4606    0.0130 C.ar    1  UNL1       -0.0430
      6 C          -1.9034   -1.2465    0.0037 C.ar    1  UNL1       -0.0586
      7 C          -2.4240    0.0659   -0.0118 C.ar    1  UNL1       -0.0401
      8 C          -1.5798    1.2053   -0.0116 C.ar    1  UNL1        0.0377
      9 N          -2.2227    2.5215   -0.0274 N.am    1  UNL1       -0.2852
     10 C          -1.6158    3.7705   -0.0269 C.2     1  UNL1        0.2177
     11 O          -0.4048    3.9911   -0.0074 O.2     1  UNL1       -0.2755
     12 C          -2.4150    5.0506   -0.0492 C.3     1  UNL1        0.0326
     13 C          -1.3778    6.2413   -0.0458 C.3     1  UNL1        0.0336
     14 C          -2.0260    7.6086   -0.0629 C.2     1  UNL1        0.2295
     15 O          -3.2459    7.7539   -0.0781 O.2     1  UNL1       -0.2743
     16 N          -1.1517    8.6830   -0.0595 N.am    1  UNL1       -0.2351
     17 N          -1.6581   10.0402   -0.0744 N.am    1  UNL1       -0.2455
     18 C          -0.7517   11.1134   -0.0747 C.2     1  UNL1        0.1531
     19 S           0.9054   10.7856   -0.0516 S.2     1  UNL1       -0.0170
     20 N          -1.3359   12.4060   -0.0965 N.am    1  UNL1       -0.2639
     21 C          -0.6287   13.6323   -0.1085 C.2     1  UNL1        0.2561
     22 O           0.6012   13.6909   -0.0714 O.2     1  UNL1       -0.2717
     23 C          -1.4259   14.9602   -0.1478 C.3     1  UNL1        0.1655
     24 O          -0.4564   16.0209   -0.2978 O.3     1  UNL1       -0.4828
     25 C          -0.8520   17.3167   -0.1522 C.ar    1  UNL1        0.1212
     26 C          -0.1515   18.2749   -0.8925 C.ar    1  UNL1       -0.0196
     27 C          -0.4448   19.6395   -0.7622 C.ar    1  UNL1       -0.0546
     28 C          -1.4876   20.0732    0.0715 C.ar    1  UNL1       -0.0418
     29 C          -1.9285   21.5447    0.0810 C.3     1  UNL1       -0.0127
     30 C          -0.7788   22.4589    0.5421 C.3     1  UNL1       -0.0560
     31 C          -2.3575   21.9548   -1.3453 C.3     1  UNL1       -0.0560
     32 C          -3.1363   21.7865    1.0134 C.3     1  UNL1       -0.0560
     33 C          -2.1385   19.0973    0.8443 C.ar    1  UNL1       -0.0546
     34 C          -1.8222   17.7401    0.7409 C.ar    1  UNL1       -0.0196
     35 H           1.9021    1.7553    0.0346 H       1  UNL1        0.0279
     36 H           0.7246    2.5848    0.9518 H       1  UNL1        0.0279
     37 H           0.7543    2.5793   -0.9287 H       1  UNL1        0.0279
     38 H          -0.1181   -2.4656    0.0230 H       1  UNL1        0.0632
     39 H          -2.5591   -2.1156    0.0066 H       1  UNL1        0.0619
     40 H          -3.5097    0.1547   -0.0234 H       1  UNL1        0.0636
     41 H          -3.2390    2.5043   -0.0402 H       1  UNL1        0.1548
     42 H          -3.0445    5.1025    0.8423 H       1  UNL1        0.0363
     43 H          -3.0215    5.0871   -0.9573 H       1  UNL1        0.0363
     44 H          -0.7077    6.1589   -0.9184 H       1  UNL1        0.0363
     45 H          -0.7288    6.1726    0.8438 H       1  UNL1        0.0363
     46 H          -0.1327    8.5854   -0.0473 H       1  UNL1        0.1728
     47 H          -2.6743   10.1003   -0.0890 H       1  UNL1        0.1718
     48 H          -2.3454   12.4566   -0.1091 H       1  UNL1        0.1566
     49 H          -1.9914   15.0514    0.7835 H       1  UNL1        0.0795
     50 H          -2.0850   14.9880   -1.0195 H       1  UNL1        0.0795
     51 H           0.6231   17.9670   -1.5920 H       1  UNL1        0.0654
     52 H           0.1426   20.3568   -1.3336 H       1  UNL1        0.0622
     53 H           0.0910   22.3933   -0.1206 H       1  UNL1        0.0238
     54 H          -0.4459   22.1968    1.5525 H       1  UNL1        0.0238
     55 H          -1.0946   23.5092    0.5545 H       1  UNL1        0.0238
     56 H          -1.5350   21.8704   -2.0646 H       1  UNL1        0.0238
     57 H          -2.7023   22.9948   -1.3717 H       1  UNL1        0.0238
     58 H          -3.1758   21.3217   -1.7089 H       1  UNL1        0.0238
     59 H          -2.8905   21.5375    2.0530 H       1  UNL1        0.0238
     60 H          -3.9962   21.1745    0.7124 H       1  UNL1        0.0238
     61 H          -3.4620   22.8311    0.9973 H       1  UNL1        0.0238
     62 H          -2.9166   19.3617    1.5539 H       1  UNL1        0.0622
     63 H          -2.3424   17.0504    1.3923 H       1  UNL1        0.0654
@<TRIPOS>BOND
     1     1     2    1
     2     2     3   ar
     3     3     4    1
     4     3     5   ar
     5     5     6   ar
     6     6     7   ar
     7     7     8   ar
     8     2     8   ar
     9     8     9    1
    10     9    10   am
    11    10    11    2
    12    10    12    1
    13    12    13    1
    14    13    14    1
    15    14    15    2
    16    14    16   am
    17    16    17    1
    18    17    18    1
    19    18    19    2
    20    18    20    1
    21    20    21   am
    22    21    22    2
    23    21    23    1
    24    23    24    1
    25    24    25    1
    26    25    26   ar
    27    26    27   ar
    28    27    28   ar
    29    28    29    1
    30    29    30    1
    31    29    31    1
    32    29    32    1
    33    28    33   ar
    34    33    34   ar
    35    25    34   ar
    36     1    35    1
    37     1    36    1
    38     1    37    1
    39     5    38    1
    40     6    39    1
    41     7    40    1
    42     9    41    1
    43    12    42    1
    44    12    43    1
    45    13    44    1
    46    13    45    1
    47    16    46    1
    48    17    47    1
    49    20    48    1
    50    23    49    1
    51    23    50    1
    52    26    51    1
    53    27    52    1
    54    30    53    1
    55    30    54    1
    56    30    55    1
    57    31    56    1
    58    31    57    1
    59    31    58    1
    60    32    59    1
    61    32    60    1
    62    32    61    1
    63    33    62    1
    64    34    63    1
