@<TRIPOS>MOLECULE
*****
 45 49 0 0 0
SMALL
GASTEIGER

@<TRIPOS>ATOM
      1 O           0.9627    0.0077   -0.0891 O.2     1  UNL1       -0.2522
      2 C           2.1900    0.0066    0.0510 C.2     1  UNL1        0.3082
      3 N           2.8425   -0.1494    1.2611 N.am    1  UNL1       -0.2691
      4 C           2.1744   -0.3709    2.4885 C.ar    1  UNL1        0.0385
      5 C           1.0766   -1.2488    2.5487 C.ar    1  UNL1       -0.0367
      6 C           0.4071   -1.4878    3.7519 C.ar    1  UNL1       -0.0144
      7 C           0.8376   -0.8135    4.8709 C.ar    1  UNL1        0.1663
      8 C           1.9102    0.0461    4.8268 C.ar    1  UNL1        0.1680
      9 C           2.6226    0.2659    3.6579 C.ar    1  UNL1        0.0051
     10 O           2.1427    0.6295    6.0372 O.3     1  UNL1       -0.4525
     11 C           1.0500    0.0914    6.8178 C.3     1  UNL1        0.2332
     12 O           0.2811   -0.8994    6.1084 O.3     1  UNL1       -0.4526
     13 N           2.9644    0.2892   -1.0488 N.am    1  UNL1       -0.2671
     14 C           4.3596    0.2804   -1.1560 C.ar    1  UNL1        0.0659
     15 C           5.1308   -0.7090   -0.5303 C.ar    1  UNL1       -0.0364
     16 C           6.5403   -0.7155   -0.5547 C.ar    1  UNL1       -0.0366
     17 C           7.3292    0.2556   -1.2103 C.ar    1  UNL1        0.0612
     18 N           8.6972    0.1911   -1.1810 N.pl3   1  UNL1       -0.3237
     19 C           9.4312   -0.9868   -1.6352 C.3     1  UNL1        0.0358
     20 C          10.3335   -1.4921   -0.5024 C.3     1  UNL1        0.0634
     21 O          11.1846   -0.4457    0.0019 O.3     1  UNL1       -0.3767
     22 C          10.3940    0.6534    0.4973 C.3     1  UNL1        0.0634
     23 C           9.5115    1.2620   -0.6104 C.3     1  UNL1        0.0358
     24 C           6.5622    1.2454   -1.8881 C.ar    1  UNL1        0.1569
     25 N           6.9758    2.2967   -2.6123 N.ar    1  UNL1       -0.0470
     26 O           5.8295    2.9233   -3.0632 O.2     1  UNL1       -0.2415
     27 N           4.6806    2.2856   -2.6205 N.ar    1  UNL1       -0.0470
     28 C           5.0995    1.2419   -1.8888 C.ar    1  UNL1        0.1571
     29 H           3.7793    0.2223    1.3243 H       1  UNL1        0.1564
     30 H           0.7509   -1.7745    1.6548 H       1  UNL1        0.0637
     31 H          -0.4314   -2.1720    3.7946 H       1  UNL1        0.0656
     32 H           3.4531    0.9630    3.6573 H       1  UNL1        0.0674
     33 H           0.3778    0.9102    7.1053 H       1  UNL1        0.1166
     34 H           1.4528   -0.3603    7.7318 H       1  UNL1        0.1166
     35 H           2.4331    0.6644   -1.8290 H       1  UNL1        0.1564
     36 H           4.6292   -1.5320   -0.0207 H       1  UNL1        0.0637
     37 H           7.0389   -1.5105   -0.0006 H       1  UNL1        0.0637
     38 H          10.0515   -0.6783   -2.4851 H       1  UNL1        0.0486
     39 H           8.7675   -1.7854   -1.9851 H       1  UNL1        0.0486
     40 H          10.9740   -2.2994   -0.8702 H       1  UNL1        0.0575
     41 H           9.7343   -1.8876    0.3263 H       1  UNL1        0.0575
     42 H          11.0799    1.4081    0.8927 H       1  UNL1        0.0575
     43 H           9.7782    0.2891    1.3293 H       1  UNL1        0.0575
     44 H          10.1456    1.6729   -1.4038 H       1  UNL1        0.0486
     45 H           8.9053    2.0749   -0.1950 H       1  UNL1        0.0486
@<TRIPOS>BOND
     1     1     2    2
     2     2     3   am
     3     3     4    1
     4     4     5   ar
     5     5     6   ar
     6     6     7   ar
     7     7     8   ar
     8     8     9   ar
     9     4     9   ar
    10     8    10    1
    11    10    11    1
    12    11    12    1
    13     7    12    1
    14     2    13   am
    15    13    14    1
    16    14    15   ar
    17    15    16   ar
    18    16    17   ar
    19    17    18    1
    20    18    19    1
    21    19    20    1
    22    20    21    1
    23    21    22    1
    24    22    23    1
    25    18    23    1
    26    17    24   ar
    27    24    25   ar
    28    25    26   ar
    29    26    27   ar
    30    27    28   ar
    31    14    28   ar
    32    24    28   ar
    33     3    29    1
    34     5    30    1
    35     6    31    1
    36     9    32    1
    37    11    33    1
    38    11    34    1
    39    13    35    1
    40    15    36    1
    41    16    37    1
    42    19    38    1
    43    19    39    1
    44    20    40    1
    45    20    41    1
    46    22    42    1
    47    22    43    1
    48    23    44    1
    49    23    45    1
