REMARK  11 active torsions:
REMARK  status: ('A' for Active; 'I' for Inactive)
REMARK    1  A    between atoms: C_2  and  C_3 
REMARK    2  A    between atoms: C_4  and  C_3 
REMARK    3  A    between atoms: C_4  and  N_13 
REMARK    4  A    between atoms: C_4  and  C_5 
REMARK       I    between atoms: C_5  and  N_7 
REMARK    5  A    between atoms: N_7  and  C_8 
REMARK    6  A    between atoms: C_8  and  C_9 
REMARK    7  A    between atoms: C_9  and  C_10 
REMARK       I    between atoms: N_13  and  C_14 
REMARK    8  A    between atoms: N_13  and  C_25 
REMARK    9  A    between atoms: C_14  and  C_16 
REMARK   10  A    between atoms: C_19  and  C_20 
REMARK       I    between atoms: C_20  and  N_21 
REMARK   11  A    between atoms: C_23  and  N_24 
ROOT
ATOM      1  N   UNL d   1       4.987   2.116  -2.015  0.00  0.00    -0.299 N 
ATOM      2  C   UNL d   1       4.122   3.093  -2.637  0.00  0.00     0.270 C 
ATOM      3  O   UNL d   1       4.593   3.980  -3.369  0.00  0.00    -0.266 OA
ENDROOT
BRANCH   1   4
ATOM      4  C   UNL d   1       4.549   1.043  -0.899  0.00  0.00     0.185 C 
BRANCH   4   5
ATOM      5  C   UNL d   1       3.028   0.698  -0.730  0.00  0.00     0.241 C 
ATOM      6  O   UNL d   1       2.344   0.321  -1.683  0.00  0.00    -0.271 OA
ATOM      7  N   UNL d   1       2.518   0.775   0.583  0.00  0.00    -0.359 N 
ATOM      8  H   UNL d   1       3.076   1.284   1.251  0.00  0.00     0.162 HD
BRANCH   7   9
ATOM      9  C   UNL d   1       1.065   0.852   0.734  0.00  0.00     0.123 C 
BRANCH   9  10
ATOM     10  C   UNL d   1       0.481   1.544   2.010  0.00  0.00     0.023 C 
BRANCH  10  11
ATOM     11  C   UNL d   1      -1.074   1.675   2.048  0.00  0.00    -0.021 C 
ATOM     12  C   UNL d   1      -1.730   0.377   1.622  0.00  0.00     0.009 C 
ATOM     13  C   UNL d   1      -1.651   2.319   3.300  0.00  0.00     0.009 C 
ENDBRANCH  10  11
ENDBRANCH   9  10
ENDBRANCH   7   9
ENDBRANCH   4   5
BRANCH   4  14
ATOM     14  C   UNL d   1       4.988  -0.449  -1.119  0.00  0.00     0.035 C 
BRANCH  14  15
ATOM     15  C   UNL d   1       6.464  -0.747  -0.945  0.00  0.00    -0.002 C 
ATOM     16  C   UNL d   1       6.949  -2.018  -1.683  0.00  0.00     0.005 C 
ENDBRANCH  14  15
ENDBRANCH   4  14
ENDBRANCH   1   4
BRANCH   1  17
ATOM     17  C   UNL d   1       6.452   2.411  -2.198  0.00  0.00     0.044 C 
ATOM     18  C   UNL d   1       7.003   3.685  -1.903  0.00  0.00     0.030 C 
ATOM     19  C   UNL d   1       8.391   3.949  -2.014  0.00  0.00     0.002 C 
ATOM     20  C   UNL d   1       9.283   2.921  -2.274  0.00  0.00     0.001 C 
ATOM     21  C   UNL d   1       8.768   1.683  -2.602  0.00  0.00     0.009 C 
ATOM     22  C   UNL d   1       7.370   1.497  -2.772  0.00  0.00    -0.035 C 
ATOM     23  C   UNL d   1       6.988   0.273  -3.577  0.00  0.00     0.050 C 
ENDBRANCH   1  17
BRANCH   2  24
ATOM     24  C   UNL d   1       2.690   3.047  -2.478  0.00  0.00     0.120 C 
ATOM     25  S   UNL d   1       1.675   2.819  -3.836  0.00  0.00     0.020 SA
ATOM     26  N   UNL d   1       0.235   2.702  -3.011  0.00  0.00    -0.203 NA
ATOM     27  C   UNL d   1       0.465   3.038  -1.733  0.00  0.00     0.160 C 
ATOM     28  C   UNL d   1       1.893   3.257  -1.381  0.00  0.00     0.085 C 
BRANCH  27  29
ATOM     29  C   UNL d   1      -0.644   3.088  -0.781  0.00  0.00     0.271 C 
ATOM     30  N   UNL d   1      -1.772   2.306  -0.928  0.00  0.00    -0.365 N 
ATOM     31  H   UNL d   1      -2.145   2.030  -1.829  0.00  0.00     0.159 HD
ATOM     32  H   UNL d   1      -2.434   2.207  -0.164  0.00  0.00     0.159 HD
ATOM     33  O   UNL d   1      -0.481   3.778   0.264  0.00  0.00    -0.266 OA
ENDBRANCH  27  29
BRANCH  28  34
ATOM     34  N   UNL d   1       2.453   3.477  -0.146  0.00  0.00    -0.396 N 
ATOM     35  H   UNL d   1       1.914   3.241   0.682  0.00  0.00     0.156 HD
ATOM     36  H   UNL d   1       3.435   3.257   0.010  0.00  0.00     0.156 HD
ENDBRANCH  28  34
ENDBRANCH   2  24
TORSDOF 11
