REMARK  10 active torsions:
REMARK  status: ('A' for Active; 'I' for Inactive)
REMARK    1  A    between atoms: N_1  and  N_2 
REMARK    2  A    between atoms: C_3  and  S_4 
REMARK    3  A    between atoms: S_4  and  C_5 
REMARK    4  A    between atoms: C_5  and  C_6 
REMARK    5  A    between atoms: C_6  and  C_7 
REMARK       I    between atoms: C_7  and  N_9 
REMARK    6  A    between atoms: N_9  and  C_10 
REMARK    7  A    between atoms: C_13  and  O_14 
REMARK    8  A    between atoms: O_14  and  C_15 
REMARK    9  A    between atoms: C_23  and  C_24 
REMARK   10  A    between atoms: C_29  and  O_30 
ROOT
ATOM      1  S   UNL d   1       0.419   2.836  -0.030  0.00  0.00    -0.088 SA
ENDROOT
BRANCH   1   2
ATOM      2  C   UNL d   1      -0.014   1.144  -0.037  0.00  0.00     0.206 A 
ATOM      3  N   UNL d   1       0.793   0.024  -0.099  0.00  0.00    -0.235 N 
ATOM      4  C   UNL d   1      -0.069  -1.062  -0.060  0.00  0.00     0.181 A 
ATOM      5  N   UNL d   1      -1.312  -0.619  -0.045  0.00  0.00    -0.127 NA
ATOM      6  N   UNL d   1      -1.275   0.756  -0.005  0.00  0.00    -0.121 NA
BRANCH   3   7
ATOM      7  N   UNL d   1       2.223  -0.095  -0.284  0.00  0.00    -0.239 NA
ATOM      8  H   UNL d   1       2.739   0.669   0.128  0.00  0.00     0.143 HD
ATOM      9  H   UNL d   1       2.560  -0.900   0.247  0.00  0.00     0.143 HD
ENDBRANCH   3   7
BRANCH   4  10
ATOM     10  C   UNL d   1       0.351  -2.463   0.003  0.00  0.00     0.046 A 
ATOM     11  C   UNL d   1      -0.093  -3.384  -0.955  0.00  0.00     0.018 A 
ATOM     12  C   UNL d   1       0.230  -4.740  -0.835  0.00  0.00     0.001 A 
ATOM     13  C   UNL d   1       1.042  -5.177   0.213  0.00  0.00     0.003 A 
ATOM     14  C   UNL d   1       1.515  -4.268   1.158  0.00  0.00     0.037 A 
ATOM     15  C   UNL d   1       1.168  -2.922   1.050  0.00  0.00     0.079 A 
BRANCH  15  16
ATOM     16  O   UNL d   1       1.651  -2.019   1.963  0.00  0.00    -0.360 OA
ATOM     17  H   UNL d   1       2.164  -2.491   2.639  0.00  0.00     0.217 HD
ENDBRANCH  15  16
ENDBRANCH   4  10
ENDBRANCH   1   2
BRANCH   1  18
ATOM     18  C   UNL d   1       2.217   2.947  -0.100  0.00  0.00     0.091 C 
BRANCH  18  19
ATOM     19  C   UNL d   1       2.758   4.383  -0.117  0.00  0.00     0.113 C 
BRANCH  19  20
ATOM     20  C   UNL d   1       4.280   4.327  -0.171  0.00  0.00     0.222 C 
ATOM     21  O   UNL d   1       4.864   3.236  -0.208  0.00  0.00    -0.273 OA
ATOM     22  N   UNL d   1       4.934   5.550  -0.130  0.00  0.00    -0.327 N 
ATOM     23  H   UNL d   1       4.415   6.383   0.124  0.00  0.00     0.169 HD
BRANCH  22  24
ATOM     24  C   UNL d   1       6.343   5.666  -0.252  0.00  0.00     0.034 A 
ATOM     25  C   UNL d   1       7.059   6.627   0.466  0.00  0.00     0.032 A 
ATOM     26  C   UNL d   1       8.453   6.742   0.297  0.00  0.00     0.039 A 
ATOM     27  C   UNL d   1       9.146   5.888  -0.572  0.00  0.00     0.078 A 
ATOM     28  C   UNL d   1       8.419   4.959  -1.307  0.00  0.00     0.039 A 
ATOM     29  C   UNL d   1       7.038   4.845  -1.140  0.00  0.00     0.032 A 
BRANCH  27  30
ATOM     30  O   UNL d   1      10.506   6.035  -0.611  0.00  0.00    -0.255 OA
BRANCH  30  31
ATOM     31  C   UNL d   1      11.230   5.104  -1.410  0.00  0.00     0.530 C 
ATOM     32  F   UNL d   1      10.986   3.829  -1.033  0.00  0.00    -0.144 F 
ATOM     33  F   UNL d   1      10.923   5.252  -2.717  0.00  0.00    -0.144 F 
ATOM     34  F   UNL d   1      12.555   5.331  -1.266  0.00  0.00    -0.144 F 
ENDBRANCH  30  31
ENDBRANCH  27  30
ENDBRANCH  22  24
ENDBRANCH  19  20
ENDBRANCH  18  19
ENDBRANCH   1  18
TORSDOF 10
