@<TRIPOS>MOLECULE
*****
 44 46 0 0 0
SMALL
GASTEIGER

@<TRIPOS>ATOM
      1 C           1.2408    0.4275    0.2326 C.3     1  UNL1       -0.0477
      2 C           2.6724    0.0917   -0.0504 C.3     1  UNL1        0.0284
      3 N           2.9373   -1.1326   -0.8808 N.pl3   1  UNL1       -0.2513
      4 N           1.9772   -1.6948   -1.8771 N.am    1  UNL1       -0.2337
      5 C           0.6320   -1.9099   -1.5300 C.2     1  UNL1        0.2336
      6 O           0.1199   -1.6102   -0.4442 O.2     1  UNL1       -0.2739
      7 C          -0.3387   -2.6043   -2.4741 C.3     1  UNL1        0.0525
      8 C          -1.7832   -2.1463   -2.1476 C.ar    1  UNL1       -0.0136
      9 C          -2.8558   -2.9559   -1.8065 C.ar    1  UNL1        0.0064
     10 N          -3.9175   -2.1614   -1.4386 N.ar    1  UNL1       -0.3604
     11 C          -3.5843   -0.8298   -1.5335 C.ar    1  UNL1        0.0467
     12 C          -4.3401    0.3285   -1.2667 C.ar    1  UNL1       -0.0378
     13 C          -3.7170    1.5740   -1.4166 C.ar    1  UNL1       -0.0598
     14 C          -2.3807    1.6559   -1.7841 C.ar    1  UNL1       -0.0611
     15 C          -1.6557    0.4921   -2.0667 C.ar    1  UNL1       -0.0523
     16 C          -2.2557   -0.7833   -1.9627 C.ar    1  UNL1        0.0033
     17 C           4.3426   -1.2715   -1.1583 C.ar    1  UNL1        0.0476
     18 C           5.2549   -1.2481   -0.0788 C.ar    1  UNL1       -0.0389
     19 C           6.6395   -1.3909   -0.2454 C.ar    1  UNL1       -0.0570
     20 C           7.1811   -1.5568   -1.5158 C.ar    1  UNL1       -0.0503
     21 C           8.6652   -1.7113   -1.6969 C.3     1  UNL1       -0.0397
     22 C           6.3045   -1.5676   -2.6091 C.ar    1  UNL1       -0.0570
     23 C           4.9047   -1.4297   -2.4339 C.ar    1  UNL1       -0.0389
     24 H           1.0265    1.3003    0.8458 H       1  UNL1        0.0245
     25 H           0.8571   -0.3843    0.8516 H       1  UNL1        0.0245
     26 H           0.7477    0.5927   -0.7242 H       1  UNL1        0.0245
     27 H           3.1071   -0.0743    0.9422 H       1  UNL1        0.0479
     28 H           3.1470    0.9830   -0.4783 H       1  UNL1        0.0479
     29 H           2.4030   -2.4973   -2.3441 H       1  UNL1        0.1729
     30 H          -0.2446   -3.6729   -2.2321 H       1  UNL1        0.0408
     31 H          -0.1094   -2.4404   -3.5277 H       1  UNL1        0.0408
     32 H          -2.9430   -4.0323   -1.7424 H       1  UNL1        0.0810
     33 H          -4.8151   -2.5005   -1.1204 H       1  UNL1        0.1653
     34 H          -5.3794    0.2756   -0.9562 H       1  UNL1        0.0638
     35 H          -4.2788    2.4897   -1.2427 H       1  UNL1        0.0618
     36 H          -1.8898    2.6235   -1.8574 H       1  UNL1        0.0618
     37 H          -0.6121    0.5787   -2.3420 H       1  UNL1        0.0624
     38 H           4.8929   -1.1411    0.9399 H       1  UNL1        0.0637
     39 H           7.2808   -1.3789    0.6338 H       1  UNL1        0.0621
     40 H           9.1911   -1.7030   -0.7342 H       1  UNL1        0.0278
     41 H           9.0667   -0.8887   -2.2972 H       1  UNL1        0.0278
     42 H           8.8958   -2.6629   -2.1864 H       1  UNL1        0.0278
     43 H           6.7110   -1.6775   -3.6140 H       1  UNL1        0.0621
     44 H           4.2837   -1.4036   -3.3239 H       1  UNL1        0.0637
@<TRIPOS>BOND
     1     1     2    1
     2     2     3    1
     3     3     4    1
     4     4     5   am
     5     5     6    2
     6     5     7    1
     7     7     8    1
     8     8     9   ar
     9     9    10   ar
    10    10    11   ar
    11    11    12   ar
    12    12    13   ar
    13    13    14   ar
    14    14    15   ar
    15    15    16   ar
    16     8    16   ar
    17    11    16   ar
    18     3    17    1
    19    17    18   ar
    20    18    19   ar
    21    19    20   ar
    22    20    21    1
    23    20    22   ar
    24    22    23   ar
    25    17    23   ar
    26     1    24    1
    27     1    25    1
    28     1    26    1
    29     2    27    1
    30     2    28    1
    31     4    29    1
    32     7    30    1
    33     7    31    1
    34     9    32    1
    35    10    33    1
    36    12    34    1
    37    13    35    1
    38    14    36    1
    39    15    37    1
    40    18    38    1
    41    19    39    1
    42    21    40    1
    43    21    41    1
    44    21    42    1
    45    22    43    1
    46    23    44    1
