REMARK  3 active torsions:
REMARK  status: ('A' for Active; 'I' for Inactive)
REMARK       I    between atoms: C_2  and  N_3 
REMARK    1  A    between atoms: C_2  and  C_13 
REMARK    2  A    between atoms: N_3  and  C_4 
REMARK    3  A    between atoms: C_8  and  O_9 
ROOT
ATOM      1  C   UNL d   1       2.255   1.987   1.539  0.00  0.00     0.038 A 
ATOM      2  C   UNL d   1       1.119   1.774   2.328  0.00  0.00     0.056 A 
ATOM      3  C   UNL d   1       0.564   2.823   3.077  0.00  0.00     0.071 A 
ATOM      4 CL   UNL d   1      -0.798   2.504   4.089  0.00  0.00    -0.081 Cl
ATOM      5  C   UNL d   1       1.114   4.106   3.025  0.00  0.00     0.109 A 
ATOM      6  C   UNL d   1       2.236   4.325   2.224  0.00  0.00     0.071 A 
ATOM      7 CL   UNL d   1       2.937   5.901   2.094  0.00  0.00    -0.081 Cl
ATOM      8  C   UNL d   1       2.818   3.269   1.504  0.00  0.00     0.056 A 
ENDROOT
BRANCH   1   9
ATOM      9  N   UNL d   1       2.873   0.932   0.814  0.00  0.00    -0.323 N 
ATOM     10  C   UNL d   1       2.170  -0.060   0.133  0.00  0.00     0.256 C 
ATOM     11  O   UNL d   1       0.944  -0.109   0.028  0.00  0.00    -0.267 OA
ATOM     12  H   UNL d   1       3.855   1.040   0.585  0.00  0.00     0.169 HD
BRANCH  10  13
ATOM     13  C   UNL d   1       2.991  -1.076  -0.595  0.00  0.00     0.032 A 
ATOM     14  C   UNL d   1       4.079  -1.694   0.031  0.00  0.00     0.017 A 
ATOM     15  C   UNL d   1       4.851  -2.633  -0.664  0.00  0.00     0.001 A 
ATOM     16  C   UNL d   1       4.503  -3.012  -1.961  0.00  0.00     0.000 A 
ATOM     17  C   UNL d   1       3.401  -2.426  -2.582  0.00  0.00     0.001 A 
ATOM     18  C   UNL d   1       2.647  -1.458  -1.903  0.00  0.00     0.017 A 
ENDBRANCH  10  13
ENDBRANCH   1   9
BRANCH   5  19
ATOM     19  O   UNL d   1       0.586   5.148   3.746  0.00  0.00    -0.357 OA
ATOM     20  H   UNL d   1      -0.183   4.826   4.251  0.00  0.00     0.217 HD
ENDBRANCH   5  19
TORSDOF 3
