@<TRIPOS>MOLECULE
*****
 36 38 0 0 0
SMALL
GASTEIGER

@<TRIPOS>ATOM
      1 C           2.4569   -1.7425    0.0400 C.3     1  UNL1       -0.0354
      2 C           1.6671   -0.4903    0.0044 C.ar    1  UNL1        0.0077
      3 C           2.0677    0.8489    0.0073 C.ar    1  UNL1        0.1948
      4 C           3.3842    1.5301    0.0284 C.2     1  UNL1        0.2957
      5 O           3.5183    2.7598    0.0391 O.2     1  UNL1       -0.2653
      6 N           4.5184    0.7159    0.0339 N.am    1  UNL1       -0.2276
      7 N           5.8415    1.2007    0.0687 N.am    1  UNL1       -0.2300
      8 C           6.8704    0.2589    0.0557 C.2     1  UNL1        0.2629
      9 O           6.6657   -0.9530   -0.0136 O.2     1  UNL1       -0.2686
     10 C           8.2607    0.7719    0.0932 C.ar    1  UNL1        0.0733
     11 C           9.2563    0.2106   -0.7237 C.ar    1  UNL1       -0.0468
     12 C          10.5586    0.7305   -0.7003 C.ar    1  UNL1       -0.0609
     13 C          10.8774    1.7832    0.1594 C.ar    1  UNL1       -0.0590
     14 C           9.8997    2.3072    1.0046 C.ar    1  UNL1       -0.0257
     15 C           8.6018    1.8009    0.9658 C.ar    1  UNL1        0.1355
     16 F           7.6885    2.3165    1.7999 F       1  UNL1       -0.2047
     17 O           0.9140    1.6346    0.0014 O.2     1  UNL1       -0.4499
     18 C          -0.1845    0.8117   -0.0008 C.ar    1  UNL1        0.1362
     19 C          -1.5391    1.1783    0.0183 C.ar    1  UNL1       -0.0187
     20 C          -2.4898    0.1384    0.0231 C.ar    1  UNL1       -0.0582
     21 C          -2.0962   -1.1986   -0.0031 C.ar    1  UNL1       -0.0610
     22 C          -0.7385   -1.5325   -0.0265 C.ar    1  UNL1       -0.0507
     23 C           0.2330   -0.5077   -0.0158 C.ar    1  UNL1        0.0238
     24 H           3.5266   -1.6226    0.0707 H       1  UNL1        0.0279
     25 H           2.2499   -2.3406   -0.8507 H       1  UNL1        0.0279
     26 H           2.2052   -2.3093    0.9401 H       1  UNL1        0.0279
     27 H           4.4936   -0.2872    0.0069 H       1  UNL1        0.1732
     28 H           5.9758    2.2081    0.1152 H       1  UNL1        0.1731
     29 H           9.0266   -0.6196   -1.3894 H       1  UNL1        0.0626
     30 H          11.3278    0.3177   -1.3519 H       1  UNL1        0.0618
     31 H          11.8867    2.1905    0.1771 H       1  UNL1        0.0618
     32 H          10.1390    3.1096    1.6957 H       1  UNL1        0.0646
     33 H          -1.8544    2.2154    0.0396 H       1  UNL1        0.0654
     34 H          -3.5544    0.3713    0.0502 H       1  UNL1        0.0619
     35 H          -2.8430   -1.9914    0.0010 H       1  UNL1        0.0618
     36 H          -0.4379   -2.5760   -0.0430 H       1  UNL1        0.0625
@<TRIPOS>BOND
     1     1     2    1
     2     2     3   ar
     3     3     4    1
     4     4     5    2
     5     4     6   am
     6     6     7    1
     7     7     8   am
     8     8     9    2
     9     8    10    1
    10    10    11   ar
    11    11    12   ar
    12    12    13   ar
    13    13    14   ar
    14    14    15   ar
    15    10    15   ar
    16    15    16    1
    17     3    17   ar
    18    17    18   ar
    19    18    19   ar
    20    19    20   ar
    21    20    21   ar
    22    21    22   ar
    23    22    23   ar
    24     2    23   ar
    25    18    23   ar
    26     1    24    1
    27     1    25    1
    28     1    26    1
    29     6    27    1
    30     7    28    1
    31    11    29    1
    32    12    30    1
    33    13    31    1
    34    14    32    1
    35    19    33    1
    36    20    34    1
    37    21    35    1
    38    22    36    1
