@<TRIPOS>MOLECULE
*****
 43 45 0 0 0
SMALL
GASTEIGER

@<TRIPOS>ATOM
      1 C           0.9231    0.1698   -0.0515 C.3     1  UNL1       -0.0444
      2 C           2.4571    0.1233   -0.0607 C.3     1  UNL1        0.0324
      3 C           2.9371    1.4621    0.4918 C.3     1  UNL1       -0.0444
      4 N           2.9469   -1.0778    0.6582 N.ar    1  UNL1       -0.3033
      5 C           3.6578   -1.2020    1.8139 C.ar    1  UNL1        0.1493
      6 C           4.2998   -0.0356    2.5595 C.3     1  UNL1        0.0720
      7 N           4.8970   -0.3878    3.8250 N.am    1  UNL1       -0.3040
      8 C           5.6744    0.5333    4.4879 C.2     1  UNL1        0.2511
      9 O           5.7014    1.7327    4.2053 O.2     1  UNL1       -0.2700
     10 C           6.4816    0.0470    5.6325 C.ar    1  UNL1        0.1172
     11 C           6.3970    0.8276    6.8114 C.ar    1  UNL1        0.0024
     12 C           7.1319    0.4920    7.9524 C.ar    1  UNL1        0.1632
     13 C           7.9477   -0.6362    7.9379 C.ar    1  UNL1        0.1685
     14 C           8.0560   -1.4058    6.7815 C.ar    1  UNL1        0.0617
     15 C           7.3314   -1.0721    5.6199 C.ar    1  UNL1        0.2889
     16 N           7.5636   -1.9194    4.4361 N.pl3   1  UNL1        0.0805
     17 O           7.0547   -1.6125    3.3569 O.2     1  UNL1        0.0415
     18 O           8.2709   -2.9257    4.5868 O.co2   1  UNL1       -0.5760
     19 O           8.6947   -1.0447    9.0101 O.3     1  UNL1       -0.4847
     20 C           8.2750   -0.4160   10.2255 C.3     1  UNL1        0.1237
     21 C           8.0381    1.0704   10.0178 C.3     1  UNL1        0.1237
     22 O           7.0025    1.3021    9.0508 O.3     1  UNL1       -0.4849
     23 N           3.7895   -2.4327    2.2384 N.ar    1  UNL1       -0.1569
     24 N           3.1378   -3.1821    1.3112 N.ar    1  UNL1       -0.2542
     25 C           2.6425   -2.3820    0.3003 C.ar    1  UNL1        0.1758
     26 S           1.8579   -3.0185   -1.0179 S.2     1  UNL1       -0.0114
     27 H           0.5563    1.0631   -0.5652 H       1  UNL1        0.0249
     28 H           0.5462    0.1694    0.9768 H       1  UNL1        0.0249
     29 H           0.4686   -0.6821   -0.5569 H       1  UNL1        0.0249
     30 H           2.8087    0.0357   -1.0968 H       1  UNL1        0.0523
     31 H           2.5347    1.6186    1.4969 H       1  UNL1        0.0249
     32 H           2.5740    2.3071   -0.0970 H       1  UNL1        0.0249
     33 H           4.0271    1.5238    0.5034 H       1  UNL1        0.0249
     34 H           3.5525    0.7065    2.8197 H       1  UNL1        0.0543
     35 H           5.0804    0.4037    1.9263 H       1  UNL1        0.0543
     36 H           5.0861   -1.3786    3.9215 H       1  UNL1        0.1495
     37 H           5.7617    1.7142    6.8370 H       1  UNL1        0.0665
     38 H           8.7204   -2.2679    6.8011 H       1  UNL1        0.0724
     39 H           9.0653   -0.5705   10.9680 H       1  UNL1        0.0731
     40 H           7.3694   -0.9197   10.5838 H       1  UNL1        0.0731
     41 H           8.9516    1.5754    9.6806 H       1  UNL1        0.0731
     42 H           7.7264    1.5300   10.9620 H       1  UNL1        0.0731
     43 H           3.0526   -4.1898    1.3686 H       1  UNL1        0.1910
@<TRIPOS>UNITY_ATOM_ATTR
16 1
charge 1
18 1
charge -1
@<TRIPOS>BOND
     1     1     2    1
     2     2     3    1
     3     2     4    1
     4     4     5   ar
     5     5     6    1
     6     6     7    1
     7     7     8   am
     8     8     9    2
     9     8    10    1
    10    10    11   ar
    11    11    12   ar
    12    12    13   ar
    13    13    14   ar
    14    14    15   ar
    15    10    15   ar
    16    15    16    1
    17    16    17    2
    18    16    18    1
    19    13    19    1
    20    19    20    1
    21    20    21    1
    22    21    22    1
    23    12    22    1
    24     5    23   ar
    25    23    24   ar
    26    24    25   ar
    27     4    25   ar
    28    25    26    2
    29     1    27    1
    30     1    28    1
    31     1    29    1
    32     2    30    1
    33     3    31    1
    34     3    32    1
    35     3    33    1
    36     6    34    1
    37     6    35    1
    38     7    36    1
    39    11    37    1
    40    14    38    1
    41    20    39    1
    42    20    40    1
    43    21    41    1
    44    21    42    1
    45    24    43    1
