@<TRIPOS>MOLECULE
*****
 58 62 0 0 0
SMALL
GASTEIGER

@<TRIPOS>ATOM
      1 O           1.2168    0.2565   -0.0912 O.2     1  UNL1       -0.2743
      2 C           2.4443    0.1625   -0.0383 C.2     1  UNL1        0.2296
      3 C           3.0699   -1.0895    0.5233 C.3     1  UNL1        0.0293
      4 C           2.1217   -2.1592    1.1009 C.3     1  UNL1       -0.0165
      5 C           2.8550   -3.3194    1.7369 C.2     1  UNL1        0.0081
      6 C           3.9234   -3.3008    2.5483 C.ar    1  UNL1        0.0509
      7 C           4.7268   -2.2764    3.1298 C.ar    1  UNL1       -0.0482
      8 C           5.7853   -2.6084    3.8787 C.ar    1  UNL1       -0.0608
      9 C           6.0983   -3.9924    4.1711 C.ar    1  UNL1       -0.0555
     10 C           5.3733   -5.0281    3.7060 C.ar    1  UNL1        0.0098
     11 C           4.2173   -4.7196    2.8390 C.ar    1  UNL1        0.2086
     12 N           3.3881   -5.5099    2.2732 N.2     1  UNL1       -0.2369
     13 C           2.3993   -4.7370    1.4923 C.3     1  UNL1        0.1660
     14 N           3.2601    1.2392   -0.3972 N.am    1  UNL1       -0.2292
     15 N           4.7278    1.2313   -0.6945 N.am    1  UNL1       -0.1859
     16 C           5.1581    2.2425   -1.5938 C.2     1  UNL1        0.2669
     17 O           4.4558    3.1303   -1.9785 O.2     1  UNL1       -0.2683
     18 C           6.6654    2.3126   -1.6914 C.ar    1  UNL1        0.0593
     19 C           7.5030    1.2959   -2.1324 C.ar    1  UNL1       -0.0478
     20 C           8.8839    1.2754   -1.7659 C.ar    1  UNL1       -0.0609
     21 C           9.4383    2.2605   -0.9559 C.ar    1  UNL1       -0.0600
     22 C           8.5683    3.2051   -0.4562 C.ar    1  UNL1       -0.0400
     23 C           7.1796    2.9446   -0.5755 C.ar    1  UNL1        0.0414
     24 N           6.4888    2.4103    0.6628 N.pl3   1  UNL1       -0.3156
     25 C           5.6424    1.1300    0.4534 C.3     1  UNL1        0.1562
     26 S           6.2976   -0.6526    0.5220 S.3     1  UNL1       -0.1131
     27 C           8.0756   -0.6066    0.5725 C.3     1  UNL1        0.0222
     28 C           8.9730   -1.8412    0.5786 C.ar    1  UNL1       -0.0347
     29 C          10.2675   -1.6995    0.0054 C.ar    1  UNL1       -0.0576
     30 C          11.1946   -2.7451   -0.0435 C.ar    1  UNL1       -0.0588
     31 C          10.8262   -3.9935    0.4290 C.ar    1  UNL1       -0.0264
     32 C           9.5655   -4.1518    1.0009 C.ar    1  UNL1        0.1237
     33 F           9.2098   -5.3619    1.4548 F       1  UNL1       -0.2055
     34 C           8.6573   -3.0865    1.1164 C.ar    1  UNL1       -0.0225
     35 H           3.6663   -0.7125    1.3417 H       1  UNL1        0.0362
     36 H           3.6889   -1.5535   -0.2476 H       1  UNL1        0.0362
     37 H           1.4740   -2.5405    0.3015 H       1  UNL1        0.0317
     38 H           1.4490   -1.7328    1.8569 H       1  UNL1        0.0317
     39 H           4.5108   -1.2296    2.9794 H       1  UNL1        0.0626
     40 H           6.4189   -1.8265    4.2931 H       1  UNL1        0.0618
     41 H           6.9586   -4.1524    4.8189 H       1  UNL1        0.0620
     42 H           5.6315   -6.0472    3.9660 H       1  UNL1        0.0683
     43 H           3.4271   -6.5232    2.3682 H       1  UNL1        0.4459
     44 H           1.4027   -4.9373    1.8949 H       1  UNL1        0.1077
     45 H           2.4788   -5.0325    0.4426 H       1  UNL1        0.1077
     46 H           2.7503    2.0071   -0.8442 H       1  UNL1        0.1731
     47 H           7.0651    0.3786   -2.5218 H       1  UNL1        0.0626
     48 H           9.4840    0.3919   -1.9781 H       1  UNL1        0.0618
     49 H          10.4900    2.2505   -0.6656 H       1  UNL1        0.0618
     50 H           8.9740    4.1404   -0.0673 H       1  UNL1        0.0636
     51 H           5.7739    3.1533    0.7523 H       1  UNL1        0.1487
     52 H           4.9955    1.1289    1.3306 H       1  UNL1        0.0847
     53 H           8.4103    0.1217    1.3043 H       1  UNL1        0.0426
     54 H           8.2379   -0.3141   -0.4361 H       1  UNL1        0.0426
     55 H          10.5835   -0.7502   -0.4224 H       1  UNL1        0.0621
     56 H          12.1915   -2.5759   -0.4486 H       1  UNL1        0.0619
     57 H          11.5151   -4.8310    0.3632 H       1  UNL1        0.0646
     58 H           7.7183   -3.2590    1.6240 H       1  UNL1        0.0649
@<TRIPOS>UNITY_ATOM_ATTR
12 1
charge 1
@<TRIPOS>BOND
     1     1     2    2
     2     2     3    1
     3     3     4    1
     4     4     5    1
     5     5     6    2
     6     6     7   ar
     7     7     8   ar
     8     8     9   ar
     9     9    10   ar
    10    10    11   ar
    11     6    11   ar
    12    11    12    2
    13    12    13    1
    14     5    13    1
    15     2    14   am
    16    14    15    1
    17    15    16   am
    18    16    17    2
    19    16    18    1
    20    18    19   ar
    21    19    20   ar
    22    20    21   ar
    23    21    22   ar
    24    22    23   ar
    25    18    23   ar
    26    23    24    1
    27    24    25    1
    28    15    25    1
    29    26    27    1
    30    27    28    1
    31    28    29   ar
    32    29    30   ar
    33    30    31   ar
    34    31    32   ar
    35    32    33    1
    36    32    34   ar
    37    28    34   ar
    38    25    26    1
    39     3    35    1
    40     3    36    1
    41     4    37    1
    42     4    38    1
    43     7    39    1
    44     8    40    1
    45     9    41    1
    46    10    42    1
    47    12    43    1
    48    13    44    1
    49    13    45    1
    50    14    46    1
    51    19    47    1
    52    20    48    1
    53    21    49    1
    54    22    50    1
    55    24    51    1
    56    25    52    1
    57    27    53    1
    58    27    54    1
    59    29    55    1
    60    30    56    1
    61    31    57    1
    62    34    58    1
