REMARK  13 active torsions:
REMARK  status: ('A' for Active; 'I' for Inactive)
REMARK    1  A    between atoms: C_2  and  C_3 
REMARK    2  A    between atoms: C_3  and  N_4 
REMARK       I    between atoms: N_4  and  C_5 
REMARK    3  A    between atoms: N_4  and  C_21 
REMARK    4  A    between atoms: C_5  and  C_7 
REMARK    5  A    between atoms: C_7  and  O_8 
REMARK    6  A    between atoms: C_7  and  C_9 
REMARK    7  A    between atoms: C_7  and  C_15 
REMARK    8  A    between atoms: C_21  and  C_22 
REMARK    9  A    between atoms: C_21  and  C_31 
REMARK       I    between atoms: C_22  and  N_24 
REMARK   10  A    between atoms: N_24  and  C_25 
REMARK   11  A    between atoms: C_32  and  O_33 
REMARK   12  A    between atoms: C_35  and  O_36 
REMARK   13  A    between atoms: C_38  and  O_39 
ROOT
ATOM      1  C   UNL d   1       5.284   1.488   2.058  0.00  0.00     0.218 C 
ENDROOT
BRANCH   1   2
ATOM      2  N   UNL d   1       4.516   0.626   1.060  0.00  0.00    -0.331 N 
ATOM      3  C   UNL d   1       5.245   0.170  -0.078  0.00  0.00     0.265 C 
ATOM      4  O   UNL d   1       6.389   0.561  -0.302  0.00  0.00    -0.269 OA
BRANCH   2   5
ATOM      5  C   UNL d   1       3.021   0.783   1.161  0.00  0.00     0.127 C 
BRANCH   5   6
ATOM      6  C   UNL d   1       2.127   0.216   0.104  0.00  0.00     0.015 C 
ATOM      7  C   UNL d   1       0.643   0.123   0.153  0.00  0.00     0.006 C 
ENDBRANCH   5   6
ENDBRANCH   2   5
BRANCH   3   8
ATOM      8  C   UNL d   1       4.605  -0.783  -1.140  0.00  0.00     0.194 C 
BRANCH   8   9
ATOM      9  O   UNL d   1       3.902  -1.840  -0.456  0.00  0.00    -0.371 OA
ATOM     10  H   UNL d   1       3.952  -1.692   0.504  0.00  0.00     0.212 HD
ENDBRANCH   8   9
BRANCH   8  11
ATOM     11  C   UNL d   1       3.824   0.129  -2.120  0.00  0.00    -0.010 C 
ATOM     12  C   UNL d   1       4.116   1.529  -2.140  0.00  0.00     0.011 C 
ATOM     13  C   UNL d   1       3.220   2.443  -2.670  0.00  0.00     0.001 C 
ATOM     14  C   UNL d   1       2.093   1.969  -3.324  0.00  0.00     0.000 C 
ATOM     15  C   UNL d   1       1.838   0.592  -3.402  0.00  0.00     0.001 C 
ATOM     16  C   UNL d   1       2.700  -0.336  -2.810  0.00  0.00     0.011 C 
ENDBRANCH   8  11
BRANCH   8  17
ATOM     17  C   UNL d   1       5.612  -1.548  -1.974  0.00  0.00    -0.010 A 
ATOM     18  C   UNL d   1       5.500  -2.938  -2.149  0.00  0.00     0.011 A 
ATOM     19  C   UNL d   1       6.453  -3.622  -2.876  0.00  0.00     0.001 A 
ATOM     20  C   UNL d   1       7.465  -2.912  -3.518  0.00  0.00     0.000 A 
ATOM     21  C   UNL d   1       7.552  -1.528  -3.406  0.00  0.00     0.001 A 
ATOM     22  C   UNL d   1       6.627  -0.851  -2.642  0.00  0.00     0.011 A 
ENDBRANCH   8  17
ENDBRANCH   3   8
ENDBRANCH   1   2
BRANCH   1  23
ATOM     23  C   UNL d   1       4.946   1.076   3.521  0.00  0.00     0.245 C 
ATOM     24  O   UNL d   1       5.791   0.596   4.255  0.00  0.00    -0.271 OA
ATOM     25  N   UNL d   1       3.642   1.235   3.966  0.00  0.00    -0.354 N 
ATOM     26  H   UNL d   1       2.957   1.760   3.446  0.00  0.00     0.162 HD
BRANCH  25  27
ATOM     27  C   UNL d   1       3.281   0.733   5.282  0.00  0.00     0.084 C 
ATOM     28  C   UNL d   1       3.418  -0.801   5.350  0.00  0.00     0.025 C 
ATOM     29  C   UNL d   1       3.269  -1.334   6.767  0.00  0.00     0.002 C 
ATOM     30  C   UNL d   1       4.197  -0.607   7.734  0.00  0.00     0.000 C 
ATOM     31  C   UNL d   1       3.925   0.893   7.733  0.00  0.00     0.002 C 
ATOM     32  C   UNL d   1       4.093   1.477   6.348  0.00  0.00     0.025 C 
ENDBRANCH  25  27
ENDBRANCH   1  23
BRANCH   1  33
ATOM     33  C   UNL d   1       6.809   1.402   1.980  0.00  0.00     0.040 A 
ATOM     34  C   UNL d   1       7.473   0.147   2.031  0.00  0.00     0.080 A 
ATOM     35  C   UNL d   1       8.846   0.044   1.907  0.00  0.00     0.073 A 
ATOM     36  C   UNL d   1       9.586   1.204   1.744  0.00  0.00     0.071 A 
ATOM     37  C   UNL d   1       8.981   2.460   1.746  0.00  0.00     0.073 A 
ATOM     38  C   UNL d   1       7.593   2.557   1.854  0.00  0.00     0.080 A 
BRANCH  34  39
ATOM     39  O   UNL d   1       6.814  -1.058   2.096  0.00  0.00    -0.360 OA
ATOM     40  H   UNL d   1       5.886  -0.905   1.876  0.00  0.00     0.217 HD
ENDBRANCH  34  39
BRANCH  36  41
ATOM     41  O   UNL d   1      10.936   1.136   1.558  0.00  0.00    -0.361 OA
ATOM     42  H   UNL d   1      11.165   0.196   1.455  0.00  0.00     0.217 HD
ENDBRANCH  36  41
BRANCH  38  43
ATOM     43  O   UNL d   1       6.982   3.782   1.821  0.00  0.00    -0.360 OA
ATOM     44  H   UNL d   1       7.667   4.465   1.712  0.00  0.00     0.217 HD
ENDBRANCH  38  43
ENDBRANCH   1  33
TORSDOF 13
