REMARK  5 active torsions:
REMARK  status: ('A' for Active; 'I' for Inactive)
REMARK    1  A    between atoms: C_7  and  N_8 
REMARK    2  A    between atoms: N_8  and  C_9 
REMARK    3  A    between atoms: C_9  and  N_11 
REMARK    4  A    between atoms: N_11  and  N_12 
REMARK       I    between atoms: N_12  and  C_13 
REMARK    5  A    between atoms: C_13  and  C_15 
ROOT
ATOM      1  C   UNL d   1      -0.584  -8.814  -0.004  0.00  0.00     0.126 C 
ATOM      2  C   UNL d   1      -0.930  -9.777  -0.945  0.00  0.00     0.039 C 
ATOM      3  C   UNL d   1      -0.072 -10.861  -1.161  0.00  0.00     0.027 C 
ATOM      4  C   UNL d   1       0.928 -11.140  -0.235  0.00  0.00     0.069 C 
ATOM      5  C   UNL d   1       1.624 -12.393  -0.293  0.00  0.00     0.101 C 
ATOM      6  N   UNL d   1       2.172 -13.423  -0.287  0.00  0.00    -0.191 NA
ATOM      7  C   UNL d   1       1.141 -10.204   0.782  0.00  0.00     0.052 C 
ATOM      8  C   UNL d   1       2.102 -10.515   1.905  0.00  0.00     0.072 C 
ATOM      9  N   UNL d   1       0.469  -8.995   0.847  0.00  0.00    -0.247 NA
ENDROOT
BRANCH   1  10
ATOM     10  C   UNL d   1      -1.400  -7.521   0.033  0.00  0.00     0.288 C 
ATOM     11  N   UNL d   1      -0.694  -6.332   0.067  0.00  0.00    -0.262 N 
ATOM     12  H   UNL d   1       0.329  -6.316   0.040  0.00  0.00     0.190 HD
ATOM     13  O   UNL d   1      -2.626  -7.550  -0.056  0.00  0.00    -0.264 OA
BRANCH  11  14
ATOM     14  N   UNL d   1      -1.329  -5.003  -0.008  0.00  0.00    -0.273 N 
ATOM     15  H   UNL d   1      -2.346  -4.992  -0.002  0.00  0.00     0.189 HD
BRANCH  14  16
ATOM     16  C   UNL d   1      -0.477  -3.884  -0.008  0.00  0.00     0.191 C 
ATOM     17  S   UNL d   1       1.184  -4.242  -0.015  0.00  0.00    -0.039 SA
BRANCH  16  18
ATOM     18  N   UNL d   1      -1.117  -2.612  -0.008  0.00  0.00    -0.330 N 
ATOM     19  H   UNL d   1      -2.136  -2.577  -0.007  0.00  0.00     0.168 HD
BRANCH  18  20
ATOM     20  C   UNL d   1      -0.501  -1.286  -0.003  0.00  0.00     0.073 A 
ATOM     21  C   UNL d   1      -1.228  -0.081  -0.003  0.00  0.00     0.143 A 
ATOM     22  C   UNL d   1      -0.577   1.179  -0.002  0.00  0.00     0.045 A 
ATOM     23  F   UNL d   1      -2.571  -0.086  -0.003  0.00  0.00    -0.204 F 
ATOM     24  C   UNL d   1       0.819   1.270  -0.000  0.00  0.00     0.010 A 
ATOM     25  C   UNL d   1       1.558   0.105   0.001  0.00  0.00    -0.060 A 
ATOM     26  C   UNL d   1       3.058   0.052  -0.001  0.00  0.00     0.048 C 
ATOM     27  C   UNL d   1       0.881  -1.117  -0.000  0.00  0.00     0.039 A 
ENDBRANCH  18  20
ENDBRANCH  16  18
ENDBRANCH  14  16
ENDBRANCH  11  14
ENDBRANCH   1  10
TORSDOF 5
