@<TRIPOS>MOLECULE
*****
 60 62 0 0 0
SMALL
GASTEIGER

@<TRIPOS>ATOM
      1 C           1.0413    0.0568   -0.0667 C.3     1  UNL1       -0.0653
      2 C           2.5589    0.0616   -0.0575 C.3     1  UNL1       -0.0559
      3 C           3.0863    0.7220    1.2125 C.3     1  UNL1       -0.0532
      4 C           4.6104    0.7275    1.2288 C.3     1  UNL1       -0.0500
      5 C           5.1438    1.3774    2.5032 C.3     1  UNL1       -0.0186
      6 C           6.6715    1.3728    2.5136 C.3     1  UNL1        0.0896
      7 O           7.1335    1.9156    3.7534 O.3     1  UNL1       -0.4920
      8 C           8.4879    2.0964    3.8587 C.ar    1  UNL1        0.1205
      9 C           9.0450    1.9033    5.1172 C.ar    1  UNL1       -0.0192
     10 C          10.4095    2.1919    5.3339 C.ar    1  UNL1       -0.0462
     11 C          11.2799    2.6086    4.2848 C.ar    1  UNL1        0.0373
     12 C          12.7739    2.7596    4.5755 C.2     1  UNL1        0.2495
     13 O          13.0704    2.5221    5.7577 O.2     1  UNL1       -0.2698
     14 N          13.7689    3.1076    3.5711 N.am    1  UNL1       -0.2627
     15 C          15.2194    3.2209    3.7248 C.2     1  UNL1        0.1533
     16 S          16.0117    2.9609    5.1846 S.2     1  UNL1       -0.0170
     17 N          15.9994    3.5713    2.5476 N.am    1  UNL1       -0.2455
     18 N          17.6717    3.6368    2.6163 N.am    1  UNL1       -0.2337
     19 C          18.5917    3.9230    1.4479 C.2     1  UNL1        0.2488
     20 O          18.0703    4.2251    0.3968 O.2     1  UNL1       -0.2723
     21 C          20.4003    3.8078    1.6994 C.3     1  UNL1        0.1009
     22 N          21.7292    4.2821    0.6345 N.ar    1  UNL1       -0.3378
     23 C          21.7653    5.6752    0.8237 C.ar    1  UNL1        0.0062
     24 C          21.9035    5.8321   -0.5224 C.ar    1  UNL1       -0.0364
     25 C          23.2343    5.4608   -0.5637 C.ar    1  UNL1       -0.0001
     26 C          24.2053    6.2938   -1.2932 C.ar    1  UNL1       -0.0526
     27 C          25.5599    6.1971   -1.3498 C.ar    1  UNL1       -0.0611
     28 C          25.9651    5.1570   -0.5930 C.ar    1  UNL1       -0.0598
     29 C          24.9444    4.2596    0.1310 C.ar    1  UNL1       -0.0376
     30 C          23.3746    4.1502    0.4294 C.ar    1  UNL1        0.0495
     31 C          10.6925    2.8113    3.0379 C.ar    1  UNL1       -0.0462
     32 C           9.3131    2.5626    2.8320 C.ar    1  UNL1       -0.0192
     33 H           0.6677   -0.4176   -0.9784 H       1  UNL1        0.0230
     34 H           0.6505    1.0785   -0.0251 H       1  UNL1        0.0230
     35 H           0.6506   -0.4955    0.7939 H       1  UNL1        0.0230
     36 H           2.9282    0.5978   -0.9396 H       1  UNL1        0.0263
     37 H           2.9279   -0.9686   -0.1247 H       1  UNL1        0.0263
     38 H           2.7099    0.1846    2.0915 H       1  UNL1        0.0265
     39 H           2.7117    1.7509    1.2769 H       1  UNL1        0.0265
     40 H           4.9847    1.2672    0.3499 H       1  UNL1        0.0266
     41 H           4.9817   -0.3022    1.1575 H       1  UNL1        0.0266
     42 H           4.7615    0.8534    3.3873 H       1  UNL1        0.0298
     43 H           4.7771    2.4094    2.5800 H       1  UNL1        0.0298
     44 H           7.0105    1.9604    1.6554 H       1  UNL1        0.0696
     45 H           7.0386    0.3444    2.4215 H       1  UNL1        0.0696
     46 H           8.4267    1.5201    5.9306 H       1  UNL1        0.0654
     47 H          10.7826    2.0853    6.3549 H       1  UNL1        0.0626
     48 H          13.3874    3.2605    2.6496 H       1  UNL1        0.1569
     49 H          15.6093    3.7711    1.6307 H       1  UNL1        0.1718
     50 H          17.9602    3.5256    3.5864 H       1  UNL1        0.1728
     51 H          20.7129    2.8802    2.1611 H       1  UNL1        0.0588
     52 H          20.5079    4.6583    2.3947 H       1  UNL1        0.0588
     53 H          22.3905    5.8629    1.7060 H       1  UNL1        0.0809
     54 H          21.2739    5.5984   -1.3700 H       1  UNL1        0.0639
     55 H          23.7745    7.1778   -1.7685 H       1  UNL1        0.0624
     56 H          26.1808    6.8994   -1.9135 H       1  UNL1        0.0618
     57 H          27.0591    5.0200   -0.5513 H       1  UNL1        0.0618
     58 H          25.5629    3.4554    0.5845 H       1  UNL1        0.0638
     59 H          11.2651    3.1816    2.1996 H       1  UNL1        0.0626
     60 H           8.9023    2.7689    1.8494 H       1  UNL1        0.0654
@<TRIPOS>BOND
     1     1     2    1
     2     2     3    1
     3     3     4    1
     4     4     5    1
     5     5     6    1
     6     6     7    1
     7     7     8    1
     8     8     9   ar
     9     9    10   ar
    10    10    11   ar
    11    11    12    1
    12    12    13    2
    13    12    14   am
    14    14    15    1
    15    15    16    2
    16    15    17    1
    17    17    18    1
    18    18    19   am
    19    19    20    2
    20    19    21    1
    21    21    22    1
    22    22    23   ar
    23    23    24   ar
    24    24    25   ar
    25    25    26   ar
    26    26    27   ar
    27    27    28   ar
    28    28    29   ar
    29    29    30   ar
    30    25    30   ar
    31    22    30   ar
    32    11    31   ar
    33    31    32   ar
    34     8    32   ar
    35     1    33    1
    36     1    34    1
    37     1    35    1
    38     2    36    1
    39     2    37    1
    40     3    38    1
    41     3    39    1
    42     4    40    1
    43     4    41    1
    44     5    42    1
    45     5    43    1
    46     6    44    1
    47     6    45    1
    48     9    46    1
    49    10    47    1
    50    14    48    1
    51    17    49    1
    52    18    50    1
    53    21    51    1
    54    21    52    1
    55    23    53    1
    56    24    54    1
    57    26    55    1
    58    27    56    1
    59    28    57    1
    60    29    58    1
    61    31    59    1
    62    32    60    1
