REMARK  14 active torsions:
REMARK  status: ('A' for Active; 'I' for Inactive)
REMARK    1  A    between atoms: C_2  and  C_3 
REMARK    2  A    between atoms: C_3  and  O_4 
REMARK    3  A    between atoms: O_4  and  C_5 
REMARK    4  A    between atoms: C_8  and  C_9 
REMARK       I    between atoms: C_9  and  N_11 
REMARK    5  A    between atoms: N_11  and  N_12 
REMARK    6  A    between atoms: C_13  and  C_14 
REMARK    7  A    between atoms: C_17  and  O_18 
REMARK    8  A    between atoms: O_18  and  C_19 
REMARK    9  A    between atoms: C_19  and  C_21 
REMARK   10  A    between atoms: C_24  and  O_25 
REMARK   11  A    between atoms: O_25  and  C_26 
REMARK   12  A    between atoms: C_26  and  C_27 
REMARK   13  A    between atoms: C_27  and  C_28 
REMARK   14  A    between atoms: C_32  and  O_33 
ROOT
ATOM      1  C   UNL d   1       9.748  -4.665   8.691  0.00  0.00    -0.014 A 
ATOM      2  C   UNL d   1      10.055  -5.985   9.047  0.00  0.00     0.016 A 
ATOM      3  C   UNL d   1      10.843  -6.246  10.195  0.00  0.00     0.041 A 
ATOM      4  C   UNL d   1      11.335  -5.179  10.970  0.00  0.00     0.112 A 
ATOM      5  C   UNL d   1      10.960  -3.870  10.627  0.00  0.00     0.102 A 
ATOM      6  C   UNL d   1      10.221  -3.619   9.472  0.00  0.00     0.052 A 
ENDROOT
BRANCH   1   7
ATOM      7  C   UNL d   1       8.818  -4.309   7.585  0.00  0.00     0.150 C 
ATOM      8  N   UNL d   1       9.020  -3.247   6.866  0.00  0.00    -0.183 NA
BRANCH   8   9
ATOM      9  N   UNL d   1       8.105  -2.943   5.883  0.00  0.00    -0.243 N 
ATOM     10  C   UNL d   1       8.345  -1.850   5.037  0.00  0.00     0.271 C 
ATOM     11  O   UNL d   1       9.345  -1.137   5.115  0.00  0.00    -0.266 OA
ATOM     12  H   UNL d   1       7.271  -3.507   5.817  0.00  0.00     0.192 HD
BRANCH  10  13
ATOM     13  C   UNL d   1       7.308  -1.508   3.992  0.00  0.00     0.033 A 
ATOM     14  C   UNL d   1       7.512  -0.379   3.176  0.00  0.00     0.020 A 
ATOM     15  C   UNL d   1       6.526   0.059   2.272  0.00  0.00     0.038 A 
ATOM     16  C   UNL d   1       5.343  -0.663   2.110  0.00  0.00     0.069 A 
ATOM     17  C   UNL d   1       5.155  -1.813   2.876  0.00  0.00     0.038 A 
ATOM     18  C   UNL d   1       6.124  -2.231   3.809  0.00  0.00     0.020 A 
BRANCH  16  19
ATOM     19  O   UNL d   1       4.498  -0.234   1.117  0.00  0.00    -0.348 OA
BRANCH  19  20
ATOM     20  C   UNL d   1       3.099  -0.418   1.358  0.00  0.00     0.202 C 
BRANCH  20  21
ATOM     21  C   UNL d   1       2.325  -0.051   0.121  0.00  0.00    -0.011 C 
ATOM     22  C   UNL d   1       0.984  -0.049   0.077  0.00  0.00     0.009 C 
ENDBRANCH  20  21
ENDBRANCH  19  20
ENDBRANCH  16  19
ENDBRANCH  10  13
ENDBRANCH   8   9
ENDBRANCH   1   7
BRANCH   5  23
ATOM     23  O   UNL d   1      11.195  -2.891  11.528  0.00  0.00    -0.353 OA
ATOM     24  C   UNL d   1      11.064  -1.532  11.171  0.00  0.00     0.210 C 
ENDBRANCH   5  23
BRANCH   4  25
ATOM     25  O   UNL d   1      12.188  -5.498  12.099  0.00  0.00    -0.272 OA
BRANCH  25  26
ATOM     26  C   UNL d   1      12.934  -4.576  12.844  0.00  0.00     0.298 C 
ATOM     27  O   UNL d   1      13.059  -3.358  12.705  0.00  0.00    -0.259 OA
BRANCH  26  28
ATOM     28  C   UNL d   1      13.770  -5.109  13.917  0.00  0.00     0.040 A 
ATOM     29  C   UNL d   1      13.805  -4.366  15.112  0.00  0.00     0.020 A 
ATOM     30  C   UNL d   1      14.860  -4.521  16.008  0.00  0.00     0.038 A 
ATOM     31  C   UNL d   1      15.845  -5.475  15.755  0.00  0.00     0.068 A 
ATOM     32  C   UNL d   1      15.816  -6.196  14.552  0.00  0.00     0.038 A 
ATOM     33  C   UNL d   1      14.787  -6.009  13.623  0.00  0.00     0.020 A 
BRANCH  31  34
ATOM     34  O   UNL d   1      16.781  -5.624  16.745  0.00  0.00    -0.351 OA
BRANCH  34  35
ATOM     35  C   UNL d   1      17.695  -6.707  16.564  0.00  0.00     0.175 C 
BRANCH  35  36
ATOM     36  C   UNL d   1      18.559  -6.854  17.809  0.00  0.00     0.026 C 
BRANCH  36  37
ATOM     37  C   UNL d   1      19.596  -7.959  17.620  0.00  0.00    -0.002 C 
ATOM     38  C   UNL d   1      20.472  -8.101  18.851  0.00  0.00     0.005 C 
ENDBRANCH  36  37
ENDBRANCH  35  36
ENDBRANCH  34  35
ENDBRANCH  31  34
ENDBRANCH  26  28
ENDBRANCH  25  26
ENDBRANCH   4  25
TORSDOF 14
