REMARK  3 active torsions:
REMARK  status: ('A' for Active; 'I' for Inactive)
REMARK    1  A    between atoms: C_7  and  C_8 
REMARK       I    between atoms: C_8  and  N_10 
REMARK    2  A    between atoms: N_10  and  N_11 
REMARK       I    between atoms: N_11  and  C_12 
REMARK    3  A    between atoms: C_12  and  C_14 
ROOT
ATOM      1  C   UNL d   1       1.069   2.611   0.103  0.00  0.00     0.270 C 
ATOM      2  O   UNL d   1       0.396   3.642  -0.011  0.00  0.00    -0.266 OA
ATOM      3  N   UNL d   1       2.451   2.667   0.270  0.00  0.00    -0.263 N 
ATOM      4  H   UNL d   1       2.983   1.843   0.078  0.00  0.00     0.190 HD
ENDROOT
BRANCH   3   5
ATOM      5  N   UNL d   1       3.175   3.849  -0.091  0.00  0.00    -0.263 N 
ATOM      6  C   UNL d   1       4.571   3.793  -0.079  0.00  0.00     0.271 C 
ATOM      7  O   UNL d   1       5.219   4.562   0.632  0.00  0.00    -0.266 OA
ATOM      8  H   UNL d   1       2.761   4.684   0.321  0.00  0.00     0.190 HD
BRANCH   6   9
ATOM      9  C   UNL d   1       5.306   2.826  -0.984  0.00  0.00     0.055 C 
ATOM     10  C   UNL d   1       6.721   2.779  -0.894  0.00  0.00     0.019 C 
ATOM     11  C   UNL d   1       7.484   1.955  -1.742  0.00  0.00     0.001 C 
ATOM     12  C   UNL d   1       6.851   1.106  -2.640  0.00  0.00     0.002 C 
ATOM     13  C   UNL d   1       5.468   1.129  -2.734  0.00  0.00     0.025 C 
ATOM     14  C   UNL d   1       4.711   2.043  -1.987  0.00  0.00     0.049 C 
ATOM     15 CL   UNL d   1       3.094   2.216  -2.579  0.00  0.00    -0.083 Cl
ENDBRANCH   6   9
ENDBRANCH   3   5
BRANCH   1  16
ATOM     16  C   UNL d   1       0.384   1.239   0.060  0.00  0.00     0.039 A 
ATOM     17  C   UNL d   1      -1.031   1.241   0.015  0.00  0.00     0.017 A 
ATOM     18  C   UNL d   1      -1.777   0.050  -0.010  0.00  0.00     0.001 A 
ATOM     19  C   UNL d   1      -1.131  -1.177  -0.003  0.00  0.00     0.001 A 
ATOM     20  C   UNL d   1       0.256  -1.211   0.021  0.00  0.00     0.007 A 
ATOM     21  C   UNL d   1       1.025  -0.027   0.059  0.00  0.00    -0.046 A 
ATOM     22  C   UNL d   1       2.505  -0.245   0.073  0.00  0.00     0.049 C 
ENDBRANCH   1  16
TORSDOF 3
