@<TRIPOS>MOLECULE
*****
 43 44 0 0 0
SMALL
GASTEIGER

@<TRIPOS>ATOM
      1 C           0.8433   -0.8968    0.8657 C.3     1  UNL1       -0.0397
      2 C           0.1758   -1.2376   -0.4521 C.ar    1  UNL1       -0.0495
      3 C          -0.4410   -0.4807   -1.3734 C.ar    1  UNL1       -0.0559
      4 C          -0.9797   -1.1397   -2.5123 C.ar    1  UNL1       -0.0495
      5 C          -1.6926   -0.2953   -3.5040 C.3     1  UNL1       -0.0397
      6 C          -0.8791   -2.5550   -2.7603 C.ar    1  UNL1       -0.0467
      7 C          -0.2563   -3.3633   -1.8375 C.ar    1  UNL1        0.0372
      8 C          -0.1213   -4.8987   -2.0702 C.2     1  UNL1        0.2444
      9 O          -0.6379   -5.3662   -3.0748 O.2     1  UNL1       -0.2702
     10 N           0.5529   -5.8429   -1.2633 N.am    1  UNL1       -0.3060
     11 C           1.3455   -5.8163   -0.0008 C.3     1  UNL1        0.0506
     12 C           1.4769   -4.4561    0.4531 C.3     1  UNL1       -0.0439
     13 C           2.8190   -6.2057   -0.0442 C.3     1  UNL1        0.0982
     14 O           3.5637   -5.7365    1.1006 O.3     1  UNL1       -0.3853
     15 C           2.8140   -7.6771   -0.0221 C.ar    1  UNL1       -0.0172
     16 C           2.7729   -8.3449   -1.2425 C.ar    1  UNL1       -0.0526
     17 C           2.6869   -9.7201   -1.2381 C.ar    1  UNL1       -0.0198
     18 C           2.6300  -10.3906   -0.0150 C.ar    1  UNL1        0.1169
     19 O           2.5975  -11.7485    0.0452 O.3     1  UNL1       -0.5068
     20 C           2.6020   -9.7196    1.1989 C.ar    1  UNL1       -0.0198
     21 C           2.6785   -8.3500    1.1986 C.ar    1  UNL1       -0.0526
     22 C           0.1503   -2.5871   -0.7533 C.ar    1  UNL1       -0.0467
     23 H           0.8215    0.1568    1.1196 H       1  UNL1        0.0278
     24 H           1.8941   -1.2399    0.8588 H       1  UNL1        0.0278
     25 H           0.3708   -1.4632    1.6891 H       1  UNL1        0.0278
     26 H          -0.5307    0.5829   -1.2008 H       1  UNL1        0.0623
     27 H          -1.6997    0.7423   -3.1604 H       1  UNL1        0.0278
     28 H          -2.7216   -0.6473   -3.5929 H       1  UNL1        0.0278
     29 H          -1.1607   -0.3567   -4.4535 H       1  UNL1        0.0278
     30 H          -1.3130   -2.9914   -3.6590 H       1  UNL1        0.0628
     31 H           0.3819   -6.7855   -1.6122 H       1  UNL1        0.1494
     32 H           0.7603   -6.3487    0.7644 H       1  UNL1        0.0524
     33 H           1.9339   -3.9406   -0.4221 H       1  UNL1        0.0248
     34 H           2.0330   -4.0963    1.3102 H       1  UNL1        0.0248
     35 H           0.4243   -4.3532    0.7472 H       1  UNL1        0.0248
     36 H           3.3144   -5.7827   -0.9253 H       1  UNL1        0.0662
     37 H           2.9845   -5.7883    1.8832 H       1  UNL1        0.2103
     38 H           2.7778   -7.7795   -2.1747 H       1  UNL1        0.0622
     39 H           2.6655  -10.2368   -2.1891 H       1  UNL1        0.0654
     40 H           2.6869  -12.0849   -0.8591 H       1  UNL1        0.2921
     41 H           2.5265  -10.2505    2.1395 H       1  UNL1        0.0654
     42 H           2.6144   -7.8131    2.1423 H       1  UNL1        0.0622
     43 H           0.5114   -2.9100    0.1589 H       1  UNL1        0.0628
@<TRIPOS>BOND
     1     1     2    1
     2     2     3   ar
     3     3     4   ar
     4     4     5    1
     5     4     6   ar
     6     6     7   ar
     7     7     8    1
     8     8     9    2
     9     8    10   am
    10    11    13    1
    11    13    14    1
    12    13    15    1
    13    15    16   ar
    14    16    17   ar
    15    17    18   ar
    16    18    19    1
    17    18    20   ar
    18    20    21   ar
    19    15    21   ar
    20     7    22   ar
    21     2    22   ar
    22    11    12    1
    23    11    10    1
    24     1    23    1
    25     1    24    1
    26     1    25    1
    27     3    26    1
    28     5    27    1
    29     5    28    1
    30     5    29    1
    31     6    30    1
    32    10    31    1
    33    11    32    1
    34    12    33    1
    35    12    34    1
    36    12    35    1
    37    13    36    1
    38    14    37    1
    39    16    38    1
    40    17    39    1
    41    19    40    1
    42    20    41    1
    43    21    42    1
    44    22    43    1
