REMARK  4 active torsions:
REMARK  status: ('A' for Active; 'I' for Inactive)
REMARK    1  A    between atoms: N_1  and  C_2 
REMARK    2  A    between atoms: C_6  and  N_7 
REMARK       I    between atoms: N_7  and  C_8 
REMARK    3  A    between atoms: C_8  and  C_10 
REMARK    4  A    between atoms: C_11  and  C_12 
ROOT
ATOM      1  N   UNL d   1       0.141   3.818  -0.014  0.00  0.00    -0.324 N 
ATOM      2  C   UNL d   1       1.326   4.550  -0.038  0.00  0.00     0.245 C 
ATOM      3  O   UNL d   1       2.463   4.076  -0.055  0.00  0.00    -0.268 OA
ATOM      4  H   UNL d   1      -0.741   4.318  -0.003  0.00  0.00     0.169 HD
ENDROOT
BRANCH   1   5
ATOM      5  C   UNL d   1       0.077   2.386  -0.010  0.00  0.00     0.038 A 
ATOM      6  C   UNL d   1       1.233   1.600  -0.022  0.00  0.00     0.056 A 
ATOM      7  C   UNL d   1       1.191   0.206  -0.016  0.00  0.00     0.064 A 
ATOM      8  C   UNL d   1      -0.021  -0.484  -0.029  0.00  0.00     0.070 A 
ATOM      9 CL   UNL d   1       2.704  -0.641  -0.002  0.00  0.00    -0.082 Cl
ATOM     10  C   UNL d   1      -1.192   0.296   0.001  0.00  0.00     0.064 A 
ATOM     11  C   UNL d   1      -1.153   1.712   0.008  0.00  0.00     0.056 A 
ATOM     12 CL   UNL d   1      -2.740  -0.489   0.015  0.00  0.00    -0.082 Cl
BRANCH   8  13
ATOM     13  N   UNL d   1      -0.042  -1.877   0.037  0.00  0.00    -0.396 N 
ATOM     14  H   UNL d   1       0.835  -2.379  -0.075  0.00  0.00     0.156 HD
ATOM     15  H   UNL d   1      -0.913  -2.378  -0.076  0.00  0.00     0.156 HD
ENDBRANCH   8  13
ENDBRANCH   1   5
BRANCH   2  16
ATOM     16  C   UNL d   1       1.199   6.035  -0.042  0.00  0.00     0.075 C 
ATOM     17  C   UNL d   1       2.335   6.765  -0.073  0.00  0.00     0.017 C 
BRANCH  17  18
ATOM     18  C   UNL d   1       2.379   8.233  -0.069  0.00  0.00    -0.033 A 
ATOM     19  C   UNL d   1       1.585   8.966   0.810  0.00  0.00     0.030 A 
ATOM     20  C   UNL d   1       1.653  10.348   0.775  0.00  0.00     0.117 A 
ATOM     21  N   UNL d   1       2.454  11.040  -0.061  0.00  0.00    -0.273 NA
ATOM     22  C   UNL d   1       3.239  10.314  -0.884  0.00  0.00     0.117 A 
ATOM     23  C   UNL d   1       3.251   8.926  -0.914  0.00  0.00     0.030 A 
ENDBRANCH  17  18
ENDBRANCH   2  16
TORSDOF 4
