REMARK  5 active torsions:
REMARK  status: ('A' for Active; 'I' for Inactive)
REMARK    1  A    between atoms: C_2  and  C_3 
REMARK    2  A    between atoms: C_3  and  N_4 
REMARK    3  A    between atoms: C_3  and  C_18 
REMARK       I    between atoms: N_4  and  C_5 
REMARK    4  A    between atoms: C_5  and  C_7 
REMARK    5  A    between atoms: C_12  and  N_13 
REMARK       I    between atoms: N_13  and  C_14 
ROOT
ATOM      1  N   UNL d   1       2.539  -0.167  -2.392  0.00  0.00    -0.247 NA
ATOM      2  C   UNL d   1       1.167  -0.026  -2.700  0.00  0.00     0.231 C 
ATOM      3  O   UNL d   1       0.735  -0.584  -3.727  0.00  0.00    -0.274 OA
ATOM      4  H   UNL d   1       3.015  -0.380  -3.263  0.00  0.00     0.131 HD
ENDROOT
BRANCH   1   5
ATOM      5  C   UNL d   1       3.105  -1.152  -1.379  0.00  0.00     0.132 C 
BRANCH   5   6
ATOM      6  C   UNL d   1       2.707  -0.782   0.015  0.00  0.00     0.023 C 
ATOM      7  C   UNL d   1       1.263  -1.019   0.370  0.00  0.00     0.007 C 
ENDBRANCH   5   6
BRANCH   5   8
ATOM      8  C   UNL d   1       4.633  -1.070  -1.347  0.00  0.00     0.122 A 
ATOM      9  N   UNL d   1       5.429  -2.112  -1.214  0.00  0.00    -0.232 NA
ATOM     10  C   UNL d   1       6.690  -1.611  -1.021  0.00  0.00     0.084 A 
ATOM     11  C   UNL d   1       7.870  -2.435  -1.007  0.00  0.00    -0.006 A 
ATOM     12  C   UNL d   1       6.682  -0.237  -1.018  0.00  0.00     0.122 A 
ATOM     13  C   UNL d   1       8.837  -2.325  -0.005  0.00  0.00     0.014 A 
ATOM     14  C   UNL d   1       8.066  -3.318  -2.074  0.00  0.00     0.014 A 
ATOM     15  C   UNL d   1      10.030  -3.041  -0.116  0.00  0.00     0.001 A 
ATOM     16  C   UNL d   1      10.221  -3.920  -1.184  0.00  0.00     0.000 A 
ATOM     17  C   UNL d   1       9.239  -4.061  -2.162  0.00  0.00     0.001 A 
ATOM     18  N   UNL d   1       5.364   0.100  -1.178  0.00  0.00    -0.351 N 
ATOM     19  H   UNL d   1       4.996   1.042  -1.147  0.00  0.00     0.166 HD
ENDBRANCH   5   8
ENDBRANCH   1   5
BRANCH   2  20
ATOM     20  C   UNL d   1       0.201   0.812  -1.819  0.00  0.00     0.028 C 
ATOM     21  C   UNL d   1      -1.181   0.568  -1.854  0.00  0.00     0.017 C 
ATOM     22  C   UNL d   1      -1.990   1.038  -0.801  0.00  0.00     0.010 C 
ATOM     23  C   UNL d   1      -1.429   1.649   0.358  0.00  0.00    -0.035 C 
ATOM     24  C   UNL d   1      -2.360   2.085   1.464  0.00  0.00     0.050 C 
ATOM     25  C   UNL d   1      -0.030   1.852   0.450  0.00  0.00     0.041 C 
ATOM     26  C   UNL d   1       0.704   1.595  -0.743  0.00  0.00     0.046 C 
BRANCH  25  27
ATOM     27  N   UNL d   1       0.541   2.162   1.771  0.00  0.00    -0.327 N 
ATOM     28  C   UNL d   1       1.805   2.130   2.374  0.00  0.00     0.218 C 
ATOM     29  C   UNL d   1       2.985   1.688   1.604  0.00  0.00     0.117 C 
ATOM     30  O   UNL d   1       1.951   2.375   3.566  0.00  0.00    -0.274 OA
ATOM     31  H   UNL d   1      -0.133   2.272   2.521  0.00  0.00     0.169 HD
ENDBRANCH  25  27
ENDBRANCH   2  20
TORSDOF 5
