@<TRIPOS>MOLECULE
*****
 50 52 0 0 0
SMALL
GASTEIGER

@<TRIPOS>ATOM
      1 O           1.0109    0.1625    0.0674 O.2     1  UNL1       -0.2743
      2 C           2.2390    0.1074    0.0103 C.2     1  UNL1        0.2294
      3 C           2.9621   -0.8077   -0.9576 C.3     1  UNL1        0.0294
      4 C           1.9863   -1.6127   -1.8277 C.3     1  UNL1       -0.0194
      5 C           2.6967   -2.5555   -2.7726 C.ar    1  UNL1       -0.0469
      6 C           2.3505   -3.9134   -2.8003 C.ar    1  UNL1       -0.0586
      7 C           3.0573   -4.8083   -3.6050 C.ar    1  UNL1       -0.0615
      8 C           4.0629   -4.3436   -4.4496 C.ar    1  UNL1       -0.0617
      9 C           4.3858   -2.9892   -4.4656 C.ar    1  UNL1       -0.0615
     10 C           3.7068   -2.0999   -3.6320 C.ar    1  UNL1       -0.0586
     11 N           3.0074    0.8960    0.8379 N.am    1  UNL1       -0.2341
     12 N           4.4126    0.9368    0.8659 N.am    1  UNL1       -0.2304
     13 C           5.0385    1.7416    1.8108 C.2     1  UNL1        0.2601
     14 O           4.4248    2.4297    2.6297 O.2     1  UNL1       -0.2687
     15 C           6.5304    1.7696    1.7851 C.ar    1  UNL1        0.0383
     16 C           7.2892    1.8614    2.9629 C.ar    1  UNL1       -0.0478
     17 C           8.6971    2.0134    2.9093 C.ar    1  UNL1       -0.0398
     18 C           9.3677    2.0244    1.6775 C.ar    1  UNL1        0.0337
     19 N          10.7948    2.0756    1.6253 N.am    1  UNL1       -0.2815
     20 C          11.5453    2.0452    0.4517 C.2     1  UNL1        0.2483
     21 O          11.1022    2.0161   -0.6975 O.2     1  UNL1       -0.2699
     22 C          13.0247    2.0264    0.5422 C.ar    1  UNL1        0.0370
     23 C          13.7438    2.7466   -0.4287 C.ar    1  UNL1       -0.0496
     24 C          15.1232    2.5852   -0.5551 C.ar    1  UNL1       -0.0610
     25 C          15.8001    1.7441    0.3237 C.ar    1  UNL1       -0.0617
     26 C          15.0926    1.0331    1.2974 C.ar    1  UNL1       -0.0610
     27 C          13.7020    1.1613    1.4036 C.ar    1  UNL1       -0.0496
     28 C           8.5826    1.9573    0.5212 C.ar    1  UNL1       -0.0398
     29 C           7.1908    1.8277    0.5637 C.ar    1  UNL1       -0.0478
     30 H           3.5952   -1.4958   -0.3849 H       1  UNL1        0.0362
     31 H           3.6066   -0.1855   -1.5876 H       1  UNL1        0.0362
     32 H           1.3394   -0.9471   -2.4126 H       1  UNL1        0.0318
     33 H           1.3205   -2.1901   -1.1719 H       1  UNL1        0.0318
     34 H           1.5317   -4.2869   -2.1886 H       1  UNL1        0.0620
     35 H           2.8260   -5.8695   -3.5677 H       1  UNL1        0.0618
     36 H           4.5886   -5.0359   -5.1013 H       1  UNL1        0.0618
     37 H           5.1729   -2.6246   -5.1204 H       1  UNL1        0.0618
     38 H           3.9775   -1.0477   -3.6620 H       1  UNL1        0.0620
     39 H           2.5203    1.5202    1.4830 H       1  UNL1        0.1728
     40 H           4.9381    0.3138    0.2621 H       1  UNL1        0.1731
     41 H           6.7888    1.8169    3.9298 H       1  UNL1        0.0626
     42 H           9.2400    2.1362    3.8450 H       1  UNL1        0.0636
     43 H          11.2909    2.1154    2.5084 H       1  UNL1        0.1551
     44 H          13.2183    3.4049   -1.1195 H       1  UNL1        0.0625
     45 H          15.6604    3.0897   -1.3553 H       1  UNL1        0.0618
     46 H          16.8785    1.6291    0.2368 H       1  UNL1        0.0618
     47 H          15.6272    0.3449    1.9480 H       1  UNL1        0.0618
     48 H          13.1618    0.5371    2.1079 H       1  UNL1        0.0625
     49 H           9.0165    2.0260   -0.4683 H       1  UNL1        0.0636
     50 H           6.6514    1.8185   -0.3781 H       1  UNL1        0.0626
@<TRIPOS>BOND
     1     1     2    2
     2     2     3    1
     3     3     4    1
     4     4     5    1
     5     5     6   ar
     6     6     7   ar
     7     7     8   ar
     8     8     9   ar
     9     9    10   ar
    10     5    10   ar
    11     2    11   am
    12    11    12    1
    13    12    13   am
    14    13    14    2
    15    13    15    1
    16    15    16   ar
    17    16    17   ar
    18    17    18   ar
    19    18    19    1
    20    19    20   am
    21    20    21    2
    22    20    22    1
    23    22    23   ar
    24    23    24   ar
    25    24    25   ar
    26    25    26   ar
    27    26    27   ar
    28    22    27   ar
    29    18    28   ar
    30    28    29   ar
    31    15    29   ar
    32     3    30    1
    33     3    31    1
    34     4    32    1
    35     4    33    1
    36     6    34    1
    37     7    35    1
    38     8    36    1
    39     9    37    1
    40    10    38    1
    41    11    39    1
    42    12    40    1
    43    16    41    1
    44    17    42    1
    45    19    43    1
    46    23    44    1
    47    24    45    1
    48    25    46    1
    49    26    47    1
    50    27    48    1
    51    28    49    1
    52    29    50    1
