REMARK  7 active torsions:
REMARK  status: ('A' for Active; 'I' for Inactive)
REMARK    1  A    between atoms: C_2  and  C_3 
REMARK       I    between atoms: C_2  and  N_16 
REMARK    2  A    between atoms: C_3  and  S_4 
REMARK    3  A    between atoms: S_4  and  C_5 
REMARK    4  A    between atoms: C_10  and  C_11 
REMARK    5  A    between atoms: N_16  and  C_17 
REMARK    6  A    between atoms: C_20  and  N_21 
REMARK    7  A    between atoms: C_25  and  C_26 
ROOT
ATOM      1  O   UNL d   1       0.945   0.024  -0.154  0.00  0.00    -0.272 OA
ATOM      2  C   UNL d   1       2.163   0.186  -0.001  0.00  0.00     0.231 C 
ATOM      3  N   UNL d   1       2.995  -0.455  -0.903  0.00  0.00    -0.326 N 
ATOM      4  H   UNL d   1       2.479  -0.876  -1.675  0.00  0.00     0.169 HD
ENDROOT
BRANCH   2   5
ATOM      5  C   UNL d   1       2.773   1.117   1.066  0.00  0.00     0.182 C 
BRANCH   5   6
ATOM      6  S   UNL d   1       1.572   1.724   2.285  0.00  0.00    -0.121 SA
BRANCH   6   7
ATOM      7  C   UNL d   1       2.627   2.446   3.548  0.00  0.00     0.001 A 
ATOM      8  C   UNL d   1       3.381   1.732   4.486  0.00  0.00     0.020 A 
ATOM      9  C   UNL d   1       3.984   2.405   5.565  0.00  0.00     0.026 A 
ATOM     10  C   UNL d   1       3.844   3.790   5.720  0.00  0.00     0.049 A 
ATOM     11 CL   UNL d   1       4.561   4.498   7.120  0.00  0.00    -0.083 Cl
ATOM     12  C   UNL d   1       3.129   4.525   4.774  0.00  0.00     0.070 A 
ATOM     13  C   UNL d   1       2.531   3.832   3.696  0.00  0.00     0.036 A 
BRANCH  12  14
ATOM     14  C   UNL d   1       2.923   6.015   4.817  0.00  0.00     0.419 C 
ATOM     15  F   UNL d   1       3.425   6.615   3.699  0.00  0.00    -0.166 F 
ATOM     16  F   UNL d   1       1.599   6.343   4.840  0.00  0.00    -0.166 F 
ATOM     17  F   UNL d   1       3.480   6.676   5.862  0.00  0.00    -0.166 F 
ENDBRANCH  12  14
ENDBRANCH   6   7
ENDBRANCH   5   6
ENDBRANCH   2   5
BRANCH   3  18
ATOM     18  C   UNL d   1       4.387  -0.668  -0.876  0.00  0.00     0.050 C 
ATOM     19  C   UNL d   1       5.079  -0.570  -2.105  0.00  0.00     0.033 C 
ATOM     20  C   UNL d   1       6.475  -0.728  -2.169  0.00  0.00     0.038 C 
ATOM     21  C   UNL d   1       7.190  -0.940  -0.990  0.00  0.00     0.103 C 
ATOM     22  C   UNL d   1       6.506  -1.112   0.214  0.00  0.00     0.054 C 
ATOM     23  C   UNL d   1       5.100  -1.037   0.275  0.00  0.00     0.076 C 
BRANCH  21  24
ATOM     24  N   UNL d   1       8.658  -0.956  -0.984  0.00  0.00    -0.116 N 
ATOM     25  O   UNL d   1       9.241  -0.807  -2.065  0.00  0.00    -0.532 OA
ATOM     26  O   UNL d   1       9.222  -1.093   0.111  0.00  0.00    -0.532 OA
ENDBRANCH  21  24
BRANCH  23  27
ATOM     27  C   UNL d   1       4.509  -1.430   1.608  0.00  0.00     0.419 C 
ATOM     28  F   UNL d   1       4.962  -2.624   2.067  0.00  0.00    -0.166 F 
ATOM     29  F   UNL d   1       4.861  -0.524   2.566  0.00  0.00    -0.166 F 
ATOM     30  F   UNL d   1       3.156  -1.531   1.639  0.00  0.00    -0.166 F 
ENDBRANCH  23  27
ENDBRANCH   3  18
TORSDOF 7
