@<TRIPOS>MOLECULE
*****
 48 50 0 0 0
SMALL
GASTEIGER

@<TRIPOS>ATOM
      1 C           2.5116    1.1091    0.0080 C.3     1  UNL1       -0.0397
      2 C           1.2100    0.3667    0.0000 C.ar    1  UNL1       -0.0501
      3 C           1.2351   -1.0152    0.0051 C.ar    1  UNL1       -0.0571
      4 C           0.0479   -1.7346    0.0007 C.ar    1  UNL1       -0.0400
      5 C          -1.2184   -1.1309   -0.0054 C.ar    1  UNL1        0.0363
      6 N          -2.4071   -1.9320   -0.0141 N.am    1  UNL1       -0.2846
      7 C          -2.4197   -3.3245   -0.0279 C.2     1  UNL1        0.2275
      8 O          -1.4052   -4.0196   -0.0333 O.2     1  UNL1       -0.2746
      9 C          -3.8044   -3.9917   -0.0392 C.3     1  UNL1        0.0779
     10 S          -3.5312   -5.7764   -0.0429 S.3     1  UNL1       -0.0784
     11 C          -5.0161   -6.6272   -0.0655 C.ar    1  UNL1        0.1713
     12 N          -4.9044   -7.8999   -0.0706 N.ar    1  UNL1       -0.2069
     13 C          -6.0063   -8.6932   -0.1367 C.ar    1  UNL1        0.1458
     14 N          -5.6698   -9.9981   -0.3107 N.pl3   1  UNL1       -0.3415
     15 C          -7.2806   -8.2181   -0.0992 C.ar    1  UNL1        0.1389
     16 N          -8.4854   -8.9665   -0.1012 N.am    1  UNL1       -0.2741
     17 C          -8.6306  -10.3515    0.0220 C.2     1  UNL1        0.2551
     18 O          -7.6826  -11.1393    0.1460 O.2     1  UNL1       -0.2693
     19 C          -9.9432  -10.9491   -0.0008 C.ar    1  UNL1        0.0742
     20 C         -11.0064  -10.7537   -0.8533 C.ar    1  UNL1       -0.0425
     21 C         -12.0340  -11.7274   -0.6492 C.ar    1  UNL1       -0.0540
     22 C         -11.7190  -12.6365    0.3361 C.ar    1  UNL1       -0.0236
     23 S         -10.1911  -12.3274    1.0136 S.2     1  UNL1       -0.0921
     24 C          -7.3737   -6.6989   -0.1175 C.ar    1  UNL1        0.2753
     25 O          -8.4575   -6.1181   -0.1820 O.2     1  UNL1       -0.2657
     26 N          -6.2012   -5.9876   -0.0836 N.ar    1  UNL1       -0.3003
     27 C          -1.2618    0.2793   -0.0041 C.ar    1  UNL1       -0.0290
     28 C          -2.5379    1.0801   -0.0050 C.3     1  UNL1       -0.0379
     29 C          -0.0375    1.0098   -0.0064 C.ar    1  UNL1       -0.0542
     30 H           3.3604    0.4120    0.0029 H       1  UNL1        0.0278
     31 H           2.5977    1.7183    0.9114 H       1  UNL1        0.0278
     32 H           2.6020    1.7366   -0.8822 H       1  UNL1        0.0278
     33 H           2.1700   -1.5705    0.0118 H       1  UNL1        0.0621
     34 H           0.1941   -2.8048    0.0028 H       1  UNL1        0.0636
     35 H          -3.2935   -1.4502   -0.0173 H       1  UNL1        0.1548
     36 H          -4.3443   -3.6928   -0.9407 H       1  UNL1        0.0475
     37 H          -4.3551   -3.7043    0.8593 H       1  UNL1        0.0475
     38 H          -4.7339  -10.2694   -0.0505 H       1  UNL1        0.1438
     39 H          -6.3911  -10.7045   -0.2012 H       1  UNL1        0.1438
     40 H          -9.3348   -8.4041   -0.1093 H       1  UNL1        0.1554
     41 H         -11.0101  -10.0093   -1.6377 H       1  UNL1        0.0630
     42 H         -12.9506  -11.7802   -1.2204 H       1  UNL1        0.0623
     43 H         -12.2978  -13.4816    0.6839 H       1  UNL1        0.0693
     44 H          -6.2494   -4.9844   -0.0995 H       1  UNL1        0.1709
     45 H          -3.4354    0.4610    0.0257 H       1  UNL1        0.0278
     46 H          -2.6020    1.6907   -0.9120 H       1  UNL1        0.0278
     47 H          -2.5782    1.7341    0.8731 H       1  UNL1        0.0278
     48 H          -0.0571    2.0998   -0.0131 H       1  UNL1        0.0623
@<TRIPOS>BOND
     1     1     2    1
     2     2     3   ar
     3     3     4   ar
     4     4     5   ar
     5     5     6    1
     6     6     7   am
     7     7     8    2
     8     7     9    1
     9     9    10    1
    10    10    11    1
    11    11    12   ar
    12    12    13   ar
    13    13    14    1
    14    13    15   ar
    15    15    16    1
    16    16    17   am
    17    17    18    2
    18    17    19    1
    19    19    20   ar
    20    20    21   ar
    21    21    22   ar
    22    22    23   ar
    23    19    23   ar
    24    15    24   ar
    25    24    25    2
    26    24    26   ar
    27    11    26   ar
    28     5    27   ar
    29    27    28    1
    30    27    29   ar
    31     2    29   ar
    32     1    30    1
    33     1    31    1
    34     1    32    1
    35     3    33    1
    36     4    34    1
    37     6    35    1
    38     9    36    1
    39     9    37    1
    40    14    38    1
    41    14    39    1
    42    16    40    1
    43    20    41    1
    44    21    42    1
    45    22    43    1
    46    26    44    1
    47    28    45    1
    48    28    46    1
    49    28    47    1
    50    29    48    1
