REMARK  5 active torsions:
REMARK  status: ('A' for Active; 'I' for Inactive)
REMARK    1  A    between atoms: C_5  and  C_6 
REMARK    2  A    between atoms: C_9  and  N_10 
REMARK       I    between atoms: N_10  and  C_11 
REMARK    3  A    between atoms: C_11  and  C_13 
REMARK    4  A    between atoms: C_16  and  C_17 
REMARK    5  A    between atoms: C_17  and  N_18 
REMARK       I    between atoms: N_18  and  C_19 
REMARK       I    between atoms: C_19  and  N_20 
ROOT
ATOM      1  N   UNL d   1      -4.527  -4.203   1.693  0.00  0.00    -0.301 N 
ATOM      2  C   UNL d   1      -3.899  -4.566   2.875  0.00  0.00     0.257 C 
ATOM      3  O   UNL d   1      -2.843  -4.112   3.310  0.00  0.00    -0.267 OA
ATOM      4  H   UNL d   1      -5.428  -4.565   1.419  0.00  0.00     0.171 HD
ENDROOT
BRANCH   2   5
ATOM      5  C   UNL d   1      -4.516  -5.641   3.699  0.00  0.00     0.032 A 
ATOM      6  C   UNL d   1      -4.337  -5.631   5.093  0.00  0.00     0.017 A 
ATOM      7  C   UNL d   1      -4.649  -6.763   5.863  0.00  0.00     0.010 A 
ATOM      8  C   UNL d   1      -5.217  -7.902   5.268  0.00  0.00    -0.040 A 
ATOM      9  C   UNL d   1      -5.392  -7.887   3.874  0.00  0.00     0.010 A 
ATOM     10  C   UNL d   1      -5.055  -6.772   3.097  0.00  0.00     0.017 A 
BRANCH   8  11
ATOM     11  C   UNL d   1      -5.641  -9.059   6.153  0.00  0.00     0.162 C 
BRANCH  11  12
ATOM     12  N   UNL d   1      -6.287 -10.162   5.468  0.00  0.00    -0.339 N 
ATOM     13  C   UNL d   1      -6.805 -11.289   5.983  0.00  0.00     0.314 C 
ATOM     14  N   UNL d   1      -6.741 -11.459   7.311  0.00  0.00    -0.352 N 
ATOM     15  O   UNL d   1      -7.323 -12.133   5.252  0.00  0.00    -0.248 OA
ATOM     16  H   UNL d   1      -6.339 -10.785   7.939  0.00  0.00     0.160 HD
ATOM     17  H   UNL d   1      -7.135 -12.309   7.688  0.00  0.00     0.160 HD
ATOM     18  H   UNL d   1      -6.405 -10.138   4.469  0.00  0.00     0.164 HD
ENDBRANCH  11  12
ENDBRANCH   8  11
ENDBRANCH   2   5
BRANCH   1  19
ATOM     19  C   UNL d   1      -3.917  -3.293   0.857  0.00  0.00     0.173 A 
ATOM     20  S   UNL d   1      -4.764  -2.846  -0.560  0.00  0.00    -0.061 SA
ATOM     21  C   UNL d   1      -3.455  -1.808  -0.997  0.00  0.00     0.085 A 
ATOM     22  C   UNL d   1      -2.479  -1.868  -0.019  0.00  0.00     0.077 A 
ATOM     23  N   UNL d   1      -2.745  -2.735   1.014  0.00  0.00    -0.223 NA
BRANCH  22  24
ATOM     24  C   UNL d   1      -1.253  -1.083  -0.028  0.00  0.00    -0.001 A 
ATOM     25  C   UNL d   1      -0.029  -1.768  -0.002  0.00  0.00     0.015 A 
ATOM     26  C   UNL d   1       1.184  -1.073   0.002  0.00  0.00     0.007 A 
ATOM     27  C   UNL d   1       1.200   0.323  -0.008  0.00  0.00    -0.061 A 
ATOM     28  C   UNL d   1       2.505   1.067   0.007  0.00  0.00     0.048 C 
ATOM     29  C   UNL d   1      -0.023   1.013  -0.017  0.00  0.00     0.014 A 
ATOM     30  C   UNL d   1      -1.256   0.325  -0.018  0.00  0.00    -0.049 A 
ATOM     31  C   UNL d   1      -2.529   1.129   0.014  0.00  0.00     0.049 C 
ENDBRANCH  22  24
ENDBRANCH   1  19
TORSDOF 5
