@<TRIPOS>MOLECULE
*****
 47 49 0 0 0
SMALL
GASTEIGER

@<TRIPOS>ATOM
      1 C           0.8795   -0.3436    0.4273 C.3     1  UNL1        0.0789
      2 O           2.2916   -0.2116    0.2721 O.3     1  UNL1       -0.4932
      3 C           2.9669   -1.1202   -0.4951 C.ar    1  UNL1        0.1431
      4 C           4.1147   -1.6413    0.1260 C.ar    1  UNL1        0.0085
      5 C           4.9427   -2.5673   -0.5315 C.ar    1  UNL1        0.1121
      6 S           6.5271   -2.9315    0.2038 S.O2    1  UNL1        0.0725
      7 O           7.2617   -1.6901    0.2149 O.2     1  UNL1       -0.1500
      8 O           6.2200   -3.6456    1.4316 O.2     1  UNL1       -0.1500
      9 N           7.3441   -3.9780   -0.8405 N.pl3   1  UNL1       -0.2163
     10 C           8.6427   -4.4785   -0.5076 C.ar    1  UNL1        0.0480
     11 C           9.6043   -4.6414   -1.5132 C.ar    1  UNL1       -0.0393
     12 C          10.8243   -5.2728   -1.2283 C.ar    1  UNL1       -0.0600
     13 C          11.1115   -5.6880    0.0710 C.ar    1  UNL1       -0.0616
     14 C          10.1590   -5.5269    1.0707 C.ar    1  UNL1       -0.0600
     15 C           8.9275   -4.9427    0.7755 C.ar    1  UNL1       -0.0393
     16 C           4.5440   -3.0960   -1.7503 C.ar    1  UNL1       -0.0331
     17 C           3.4302   -2.5461   -2.3938 C.ar    1  UNL1       -0.0350
     18 C           2.6929   -1.4890   -1.8200 C.ar    1  UNL1        0.0759
     19 N           1.7094   -0.9051   -2.6569 N.am    1  UNL1       -0.2784
     20 C           1.0626    0.2815   -2.4260 C.2     1  UNL1        0.2549
     21 O           1.5856    1.2279   -1.8366 O.2     1  UNL1       -0.2696
     22 C          -0.3569    0.4598   -2.8872 C.ar    1  UNL1        0.1139
     23 C          -0.7787    1.8118   -2.7965 C.ar    1  UNL1       -0.0431
     24 C          -2.0335    2.2371   -3.2197 C.ar    1  UNL1       -0.0606
     25 C          -2.8984    1.3231   -3.7912 C.ar    1  UNL1       -0.0553
     26 C          -2.5603   -0.0296   -3.8074 C.ar    1  UNL1        0.0164
     27 C          -1.3083   -0.4824   -3.3257 C.ar    1  UNL1        0.2852
     28 N          -1.1417   -1.9475   -3.2995 N.pl3   1  UNL1        0.0804
     29 O          -1.9793   -2.6333   -3.9009 O.2     1  UNL1        0.0415
     30 O          -0.1923   -2.4423   -2.6907 O.co2   1  UNL1       -0.5760
     31 H           0.5125    0.6150    0.8150 H       1  UNL1        0.0660
     32 H           0.6352   -1.1416    1.1267 H       1  UNL1        0.0660
     33 H           0.3021   -0.5453   -0.4720 H       1  UNL1        0.0660
     34 H           4.3659   -1.3003    1.1298 H       1  UNL1        0.0674
     35 H           6.9371   -4.2862   -1.7132 H       1  UNL1        0.1737
     36 H           9.4344   -4.2702   -2.5205 H       1  UNL1        0.0636
     37 H          11.5536   -5.4475   -2.0165 H       1  UNL1        0.0618
     38 H          12.0727   -6.1370    0.3084 H       1  UNL1        0.0618
     39 H          10.3556   -5.8693    2.0828 H       1  UNL1        0.0618
     40 H           8.1949   -4.8794    1.5717 H       1  UNL1        0.0636
     41 H           5.0819   -3.8957   -2.2408 H       1  UNL1        0.0638
     42 H           3.1868   -2.9173   -3.3876 H       1  UNL1        0.0638
     43 H           1.3620   -1.5235   -3.3775 H       1  UNL1        0.1552
     44 H          -0.1076    2.5739   -2.3931 H       1  UNL1        0.0627
     45 H          -2.3110    3.2840   -3.1197 H       1  UNL1        0.0618
     46 H          -3.8395    1.6610   -4.2167 H       1  UNL1        0.0620
     47 H          -3.2978   -0.7272   -4.2044 H       1  UNL1        0.0685
@<TRIPOS>UNITY_ATOM_ATTR
28 1
charge 1
30 1
charge -1
@<TRIPOS>BOND
     1     1     2    1
     2     2     3    1
     3     3     4   ar
     4     4     5   ar
     5     5     6    1
     6     6     7    2
     7     6     8    2
     8     6     9    1
     9     9    10    1
    10    10    11   ar
    11    11    12   ar
    12    12    13   ar
    13    13    14   ar
    14    14    15   ar
    15    10    15   ar
    16     5    16   ar
    17    16    17   ar
    18    17    18   ar
    19     3    18   ar
    20    18    19    1
    21    19    20   am
    22    20    21    2
    23    20    22    1
    24    22    23   ar
    25    23    24   ar
    26    24    25   ar
    27    25    26   ar
    28    26    27   ar
    29    22    27   ar
    30    27    28    1
    31    28    29    2
    32    28    30    1
    33     1    31    1
    34     1    32    1
    35     1    33    1
    36     4    34    1
    37     9    35    1
    38    11    36    1
    39    12    37    1
    40    13    38    1
    41    14    39    1
    42    15    40    1
    43    16    41    1
    44    17    42    1
    45    19    43    1
    46    23    44    1
    47    24    45    1
    48    25    46    1
    49    26    47    1
