REMARK  7 active torsions:
REMARK  status: ('A' for Active; 'I' for Inactive)
REMARK    1  A    between atoms: C_2  and  C_3 
REMARK    2  A    between atoms: C_3  and  C_4 
REMARK       I    between atoms: C_4  and  N_6 
REMARK    3  A    between atoms: N_6  and  N_7 
REMARK       I    between atoms: N_7  and  C_8 
REMARK    4  A    between atoms: C_8  and  C_10 
REMARK    5  A    between atoms: C_13  and  N_14 
REMARK       I    between atoms: N_14  and  C_15 
REMARK    6  A    between atoms: C_15  and  C_17 
REMARK    7  A    between atoms: C_20  and  C_21 
ROOT
ATOM      1  C   UNL d   1       8.898  -2.158  -3.203  0.00  0.00     0.033 A 
ATOM      2  C   UNL d   1       9.663  -2.076  -4.381  0.00  0.00     0.019 A 
ATOM      3  C   UNL d   1      11.072  -2.238  -4.353  0.00  0.00     0.030 A 
ATOM      4  C   UNL d   1      11.739  -2.435  -3.138  0.00  0.00     0.035 A 
ATOM      5  C   UNL d   1      10.953  -2.539  -1.985  0.00  0.00     0.030 A 
ATOM      6  C   UNL d   1       9.560  -2.398  -2.006  0.00  0.00     0.019 A 
ENDROOT
BRANCH   4   7
ATOM      7  N   UNL d   1      13.164  -2.498  -3.090  0.00  0.00    -0.323 N 
ATOM      8  C   UNL d   1      13.906  -2.645  -1.923  0.00  0.00     0.256 C 
ATOM      9  O   UNL d   1      13.463  -2.788  -0.780  0.00  0.00    -0.267 OA
ATOM     10  H   UNL d   1      13.666  -2.401  -3.967  0.00  0.00     0.169 HD
BRANCH   8  11
ATOM     11  C   UNL d   1      15.378  -2.610  -2.003  0.00  0.00     0.032 A 
ATOM     12  C   UNL d   1      16.099  -3.460  -1.153  0.00  0.00     0.017 A 
ATOM     13  C   UNL d   1      17.479  -3.319  -1.013  0.00  0.00     0.009 A 
ATOM     14  C   UNL d   1      18.180  -2.374  -1.778  0.00  0.00    -0.051 A 
ATOM     15  C   UNL d   1      17.431  -1.512  -2.604  0.00  0.00     0.009 A 
ATOM     16  C   UNL d   1      16.042  -1.622  -2.719  0.00  0.00     0.017 A 
BRANCH  14  17
ATOM     17  C   UNL d   1      19.716  -2.349  -1.745  0.00  0.00    -0.024 C 
ATOM     18  C   UNL d   1      20.235  -2.048  -0.327  0.00  0.00     0.019 C 
ATOM     19  C   UNL d   1      20.247  -3.730  -2.191  0.00  0.00     0.019 C 
ATOM     20  C   UNL d   1      20.301  -1.294  -2.706  0.00  0.00     0.019 C 
ENDBRANCH  14  17
ENDBRANCH   8  11
ENDBRANCH   4   7
BRANCH   1  21
ATOM     21  C   UNL d   1       7.400  -2.139  -3.235  0.00  0.00     0.270 C 
ATOM     22  N   UNL d   1       6.747  -1.498  -2.191  0.00  0.00    -0.263 N 
ATOM     23  H   UNL d   1       7.223  -0.961  -1.465  0.00  0.00     0.190 HD
ATOM     24  O   UNL d   1       6.801  -2.701  -4.153  0.00  0.00    -0.266 OA
BRANCH  22  25
ATOM     25  N   UNL d   1       5.326  -1.460  -2.154  0.00  0.00    -0.267 N 
ATOM     26  C   UNL d   1       4.708  -0.748  -1.137  0.00  0.00     0.236 C 
ATOM     27  O   UNL d   1       5.361  -0.148  -0.282  0.00  0.00    -0.272 OA
ATOM     28  H   UNL d   1       4.835  -1.978  -2.881  0.00  0.00     0.190 HD
BRANCH  26  29
ATOM     29  C   UNL d   1       3.176  -0.761  -1.154  0.00  0.00     0.104 C 
BRANCH  29  30
ATOM     30  C   UNL d   1       2.586   0.057   0.007  0.00  0.00     0.005 C 
ATOM     31  C   UNL d   1       1.063   0.066   0.019  0.00  0.00     0.005 C 
ENDBRANCH  29  30
ENDBRANCH  26  29
ENDBRANCH  22  25
ENDBRANCH   1  21
TORSDOF 7
