@<TRIPOS>MOLECULE
*****
 49 50 0 0 0
SMALL
GASTEIGER

@<TRIPOS>ATOM
      1 C           2.4345   -0.3608   -0.0033 C.3     1  UNL1       -0.0380
      2 C           0.9693   -0.0895    0.0051 C.ar    1  UNL1       -0.0292
      3 C           0.1701   -1.2397    0.0073 C.ar    1  UNL1       -0.0564
      4 C          -1.2146   -1.1556   -0.0006 C.ar    1  UNL1       -0.0492
      5 C          -1.8491    0.0934   -0.0096 C.ar    1  UNL1        0.0399
      6 C          -3.3676    0.0749   -0.0399 C.2     1  UNL1        0.2602
      7 O          -3.9770   -0.9954   -0.0535 O.2     1  UNL1       -0.2687
      8 N          -4.0410    1.2855   -0.0563 N.am    1  UNL1       -0.2304
      9 N          -5.4612    1.3184   -0.1002 N.am    1  UNL1       -0.2342
     10 C          -6.0752    2.5612   -0.1190 C.2     1  UNL1        0.2291
     11 O          -5.4169    3.6018   -0.0993 O.2     1  UNL1       -0.2743
     12 C          -7.6002    2.5407   -0.1472 C.3     1  UNL1        0.0256
     13 C          -8.1969    3.9611   -0.1472 C.3     1  UNL1       -0.0424
     14 C          -9.7379    3.9932   -0.1611 C.3     1  UNL1       -0.0463
     15 C         -10.3221    3.2896    1.0631 C.3     1  UNL1       -0.0627
     16 C         -10.2417    5.4405   -0.1956 C.3     1  UNL1       -0.0627
     17 C          -1.0362    1.2624    0.0001 C.ar    1  UNL1       -0.0280
     18 C           0.3923    1.1959    0.0017 C.ar    1  UNL1        0.0374
     19 N           1.1480    2.4315   -0.0047 N.am    1  UNL1       -0.2787
     20 C           2.5366    2.6329   -0.0617 C.2     1  UNL1        0.2835
     21 O           3.4318    1.7916   -0.0979 O.2     1  UNL1       -0.2665
     22 C           3.0334    3.9721   -0.0507 C.ar    1  UNL1        0.1893
     23 C           2.8076    5.0377    0.7871 C.ar    1  UNL1       -0.0113
     24 C           3.8141    5.9890    0.4849 C.ar    1  UNL1       -0.0231
     25 C           4.6101    5.4338   -0.4889 C.ar    1  UNL1        0.0928
     26 O           4.1413    4.2131   -0.8223 O.2     1  UNL1       -0.4583
     27 H           2.7297   -1.4080    0.0052 H       1  UNL1        0.0278
     28 H           2.8511    0.0605    0.9192 H       1  UNL1        0.0278
     29 H           2.8266    0.0273   -0.9501 H       1  UNL1        0.0278
     30 H           0.6547   -2.2159    0.0083 H       1  UNL1        0.0621
     31 H          -1.7775   -2.0876   -0.0039 H       1  UNL1        0.0625
     32 H          -3.5963    2.1969   -0.0522 H       1  UNL1        0.1731
     33 H          -5.9509    0.4242   -0.1024 H       1  UNL1        0.1728
     34 H          -7.9361    1.9907    0.7375 H       1  UNL1        0.0359
     35 H          -7.9438    2.0031   -1.0382 H       1  UNL1        0.0359
     36 H          -7.8224    4.5091   -1.0224 H       1  UNL1        0.0272
     37 H          -7.8347    4.5088    0.7330 H       1  UNL1        0.0272
     38 H         -10.0968    3.4865   -1.0660 H       1  UNL1        0.0296
     39 H          -9.9772    3.7693    1.9856 H       1  UNL1        0.0232
     40 H         -10.0317    2.2366    1.0974 H       1  UNL1        0.0232
     41 H         -11.4159    3.3195    1.0487 H       1  UNL1        0.0232
     42 H          -9.9157    5.9932    0.6927 H       1  UNL1        0.0232
     43 H         -11.3369    5.4711   -0.2247 H       1  UNL1        0.0232
     44 H          -9.8692    5.9691   -1.0791 H       1  UNL1        0.0232
     45 H          -1.5209    2.2335    0.0002 H       1  UNL1        0.0644
     46 H           0.5945    3.2811   -0.0169 H       1  UNL1        0.1552
     47 H           2.0754    5.0557    1.5791 H       1  UNL1        0.0657
     48 H           3.9738    6.9455    0.9543 H       1  UNL1        0.0649
     49 H           5.5059    5.7422   -1.0119 H       1  UNL1        0.1029
@<TRIPOS>BOND
     1     1     2    1
     2     2     3   ar
     3     3     4   ar
     4     4     5   ar
     5     5     6    1
     6     6     7    2
     7     6     8   am
     8     8     9    1
     9     9    10   am
    10    10    11    2
    11    10    12    1
    12    12    13    1
    13    13    14    1
    14    14    15    1
    15    14    16    1
    16     5    17   ar
    17    17    18   ar
    18     2    18   ar
    19    18    19    1
    20    19    20   am
    21    20    21    2
    22    20    22    1
    23    22    23   ar
    24    23    24   ar
    25    24    25   ar
    26    25    26   ar
    27    22    26   ar
    28     1    27    1
    29     1    28    1
    30     1    29    1
    31     3    30    1
    32     4    31    1
    33     8    32    1
    34     9    33    1
    35    12    34    1
    36    12    35    1
    37    13    36    1
    38    13    37    1
    39    14    38    1
    40    15    39    1
    41    15    40    1
    42    15    41    1
    43    16    42    1
    44    16    43    1
    45    16    44    1
    46    17    45    1
    47    19    46    1
    48    23    47    1
    49    24    48    1
    50    25    49    1
