REMARK  12 active torsions:
REMARK  status: ('A' for Active; 'I' for Inactive)
REMARK    1  A    between atoms: C_2  and  O_3 
REMARK    2  A    between atoms: O_3  and  C_4 
REMARK    3  A    between atoms: C_10  and  C_11 
REMARK       I    between atoms: C_11  and  N_13 
REMARK    4  A    between atoms: N_13  and  C_14 
REMARK    5  A    between atoms: C_14  and  N_16 
REMARK    6  A    between atoms: N_16  and  C_17 
REMARK    7  A    between atoms: C_20  and  C_21 
REMARK       I    between atoms: C_21  and  N_23 
REMARK    8  A    between atoms: N_23  and  C_24 
REMARK    9  A    between atoms: C_24  and  C_25 
REMARK   10  A    between atoms: C_25  and  N_26 
REMARK   11  A    between atoms: N_26  and  C_27 
REMARK   12  A    between atoms: N_26  and  C_29 
ROOT
ATOM      1  C   UNL d   1      -0.552  -4.095  -3.670  0.00  0.00     0.034 A 
ATOM      2  C   UNL d   1      -1.540  -3.461  -4.436  0.00  0.00     0.030 A 
ATOM      3  C   UNL d   1      -2.389  -4.233  -5.271  0.00  0.00     0.019 A 
ATOM      4  C   UNL d   1      -2.226  -5.626  -5.370  0.00  0.00     0.032 A 
ATOM      5  C   UNL d   1      -1.269  -6.240  -4.573  0.00  0.00     0.019 A 
ATOM      6  C   UNL d   1      -0.490  -5.488  -3.709  0.00  0.00     0.030 A 
ENDROOT
BRANCH   1   7
ATOM      7  N   UNL d   1       0.418  -3.401  -2.867  0.00  0.00    -0.333 N 
ATOM      8  H   UNL d   1       0.096  -2.557  -2.408  0.00  0.00     0.168 HD
BRANCH   7   9
ATOM      9  C   UNL d   1       1.807  -3.698  -2.932  0.00  0.00     0.179 C 
ATOM     10  S   UNL d   1       2.469  -4.714  -4.125  0.00  0.00    -0.040 SA
BRANCH   9  11
ATOM     11  N   UNL d   1       2.601  -3.055  -1.957  0.00  0.00    -0.299 N 
ATOM     12  C   UNL d   1       3.996  -3.235  -1.802  0.00  0.00     0.260 C 
ATOM     13  O   UNL d   1       4.655  -4.059  -2.431  0.00  0.00    -0.267 OA
ATOM     14  H   UNL d   1       2.171  -2.393  -1.323  0.00  0.00     0.171 HD
BRANCH  12  15
ATOM     15  C   UNL d   1       4.800  -2.435  -0.830  0.00  0.00     0.067 A 
ATOM     16  C   UNL d   1       6.192  -2.708  -0.795  0.00  0.00     0.039 A 
ATOM     17  C   UNL d   1       7.043  -2.018   0.061  0.00  0.00     0.012 A 
ATOM     18  C   UNL d   1       6.527  -1.039   0.896  0.00  0.00     0.022 A 
ATOM     19 BR   UNL d   1       8.890  -2.419   0.102  0.00  0.00    -0.051 Br
ATOM     20  C   UNL d   1       5.154  -0.759   0.874  0.00  0.00     0.039 A 
ATOM     21  C   UNL d   1       4.285  -1.446   0.009  0.00  0.00     0.084 A 
BRANCH  21  22
ATOM     22  O   UNL d   1       2.930  -1.255   0.024  0.00  0.00    -0.350 OA
BRANCH  22  23
ATOM     23  C   UNL d   1       2.518   0.114   0.036  0.00  0.00     0.171 C 
ATOM     24  C   UNL d   1       1.001   0.112   0.020  0.00  0.00     0.034 C 
ENDBRANCH  22  23
ENDBRANCH  21  22
ENDBRANCH  12  15
ENDBRANCH   9  11
ENDBRANCH   7   9
ENDBRANCH   1   7
BRANCH   4  25
ATOM     25  C   UNL d   1      -3.060  -6.440  -6.306  0.00  0.00     0.251 C 
ATOM     26  O   UNL d   1      -3.836  -5.912  -7.082  0.00  0.00    -0.268 OA
ATOM     27  N   UNL d   1      -2.864  -7.831  -6.277  0.00  0.00    -0.355 N 
ATOM     28  H   UNL d   1      -1.988  -8.172  -5.915  0.00  0.00     0.162 HD
BRANCH  27  29
ATOM     29  C   UNL d   1      -3.469  -8.588  -7.333  0.00  0.00     0.150 C 
BRANCH  29  30
ATOM     30  C   UNL d   1      -3.033 -10.048  -7.465  0.00  0.00     0.254 C 
BRANCH  30  31
ATOM     31  N   UNL d   1      -3.778 -10.802  -8.575  0.00  0.00    -0.070 N 
ATOM     32  H   UNL d   1      -4.786 -10.756  -8.360  0.00  0.00     0.279 HD
BRANCH  31  33
ATOM     33  C   UNL d   1      -3.556 -10.255  -9.983  0.00  0.00     0.230 C 
ATOM     34  C   UNL d   1      -4.106  -8.867 -10.232  0.00  0.00     0.034 C 
ENDBRANCH  31  33
BRANCH  31  35
ATOM     35  C   UNL d   1      -3.378 -12.283  -8.506  0.00  0.00     0.230 C 
ATOM     36  C   UNL d   1      -4.173 -13.130  -9.486  0.00  0.00     0.034 C 
ENDBRANCH  31  35
ENDBRANCH  30  31
ENDBRANCH  29  30
ENDBRANCH  27  29
ENDBRANCH   4  25
TORSDOF 12
