@<TRIPOS>MOLECULE
*****
 66 69 0 0 0
SMALL
GASTEIGER

@<TRIPOS>ATOM
      1 C           1.1085    0.1304   -0.0186 C.3     1  UNL1        0.0788
      2 O           2.5252    0.2448   -0.0990 O.3     1  UNL1       -0.4950
      3 C           3.1575    0.8148    0.9741 C.ar    1  UNL1        0.1243
      4 C           4.3913    1.4308    0.7200 C.ar    1  UNL1        0.0218
      5 C           5.1979    1.8774    1.7754 C.ar    1  UNL1        0.1243
      6 O           6.4554    2.3188    1.4521 O.3     1  UNL1       -0.4950
      7 C           7.3384    2.5413    2.5570 C.3     1  UNL1        0.0788
      8 C           4.7143    1.8032    3.0778 C.ar    1  UNL1       -0.0061
      9 C           3.4880    1.1923    3.3380 C.ar    1  UNL1        0.0630
     10 C           3.0764    1.0083    4.7575 C.2     1  UNL1        0.3408
     11 O           3.8157    1.3957    5.6494 O.2     1  UNL1       -0.2483
     12 N           1.8509    0.4062    4.9353 N.am    1  UNL1        0.0006
     13 C           1.3626    0.3131    6.1349 C.2     1  UNL1        0.3842
     14 N           0.0812   -0.1429    6.2815 N.pl3   1  UNL1       -0.2767
     15 C          -0.6338   -0.8714    5.2614 C.3     1  UNL1        0.0684
     16 C          -1.8546   -1.5874    5.8267 C.3     1  UNL1        0.0059
     17 C          -2.8047   -2.1438    4.8113 C.2     1  UNL1        0.0106
     18 C          -3.8968   -2.8160    5.1758 C.ar    1  UNL1        0.0510
     19 C          -4.3929   -3.1766    6.4552 C.ar    1  UNL1       -0.0482
     20 C          -5.4293   -4.0198    6.5121 C.ar    1  UNL1       -0.0608
     21 C          -6.1316   -4.4354    5.3071 C.ar    1  UNL1       -0.0555
     22 C          -5.7667   -4.0685    4.0602 C.ar    1  UNL1        0.0098
     23 C          -4.5648   -3.2189    3.9333 C.ar    1  UNL1        0.2086
     24 N          -3.9604   -2.7610    2.9031 N.2     1  UNL1       -0.2369
     25 C          -2.7000   -2.0754    3.3132 C.3     1  UNL1        0.1661
     26 N           1.9680    0.7193    7.2940 N.pl3   1  UNL1       -0.2448
     27 C           1.7359    0.3706    8.6395 C.ar    1  UNL1        0.1027
     28 C           1.9583    1.3740    9.6051 C.ar    1  UNL1       -0.0227
     29 C           1.7360    1.1396   10.9638 C.ar    1  UNL1       -0.0556
     30 C           1.2075   -0.0797   11.3791 C.ar    1  UNL1       -0.0500
     31 C           0.8028   -0.3106   12.8031 C.3     1  UNL1       -0.0397
     32 C           1.0183   -1.0932   10.4357 C.ar    1  UNL1       -0.0527
     33 C           1.3073   -0.8989    9.0750 C.ar    1  UNL1       -0.0118
     34 C           1.1920   -2.0982    8.1760 C.3     1  UNL1       -0.0364
     35 C           2.7098    0.7011    2.2871 C.ar    1  UNL1       -0.0061
     36 H           0.7699   -0.4999   -0.8469 H       1  UNL1        0.0660
     37 H           0.6562    1.1195   -0.1286 H       1  UNL1        0.0660
     38 H           0.7493   -0.3558    0.8938 H       1  UNL1        0.0660
     39 H           4.7368    1.5430   -0.3062 H       1  UNL1        0.0691
     40 H           8.3402    2.7490    2.1714 H       1  UNL1        0.0660
     41 H           7.4164    1.6594    3.2071 H       1  UNL1        0.0660
     42 H           7.0120    3.4161    3.1294 H       1  UNL1        0.0660
     43 H           5.2877    2.1875    3.9147 H       1  UNL1        0.0662
     44 H          -0.2878   -0.1173    7.2255 H       1  UNL1        0.2577
     45 H           0.0147   -1.6227    4.7931 H       1  UNL1        0.0658
     46 H          -0.9539   -0.1579    4.5005 H       1  UNL1        0.0658
     47 H          -2.4151   -0.8994    6.4741 H       1  UNL1        0.0343
     48 H          -1.5347   -2.4164    6.4765 H       1  UNL1        0.0343
     49 H          -3.8993   -2.8089    7.3483 H       1  UNL1        0.0626
     50 H          -5.7596   -4.3993    7.4756 H       1  UNL1        0.0618
     51 H          -7.0113   -5.0543    5.4757 H       1  UNL1        0.0620
     52 H          -6.3256   -4.4059    3.1954 H       1  UNL1        0.0683
     53 H          -4.3270   -2.8715    1.9583 H       1  UNL1        0.4459
     54 H          -2.6985   -1.0540    2.9260 H       1  UNL1        0.1077
     55 H          -1.8538   -2.6505    2.9204 H       1  UNL1        0.1077
     56 H           2.9135    1.0909    7.1540 H       1  UNL1        0.2646
     57 H           2.2820    2.3691    9.2997 H       1  UNL1        0.0652
     58 H           1.9586    1.9200   11.6888 H       1  UNL1        0.0621
     59 H           0.9996    0.5684   13.4241 H       1  UNL1        0.0278
     60 H           1.3428   -1.1626   13.2257 H       1  UNL1        0.0278
     61 H          -0.2739   -0.5108   12.8435 H       1  UNL1        0.0278
     62 H           0.6549   -2.0627   10.7714 H       1  UNL1        0.0624
     63 H           0.9572   -3.0043    8.7394 H       1  UNL1        0.0279
     64 H           2.1165   -2.2545    7.6148 H       1  UNL1        0.0279
     65 H           0.3621   -2.0207    7.4868 H       1  UNL1        0.0279
     66 H           1.7844    0.1961    2.5270 H       1  UNL1        0.0662
@<TRIPOS>UNITY_ATOM_ATTR
24 1
charge 1
@<TRIPOS>BOND
     1     1     2    1
     2     2     3    1
     3     3     4   ar
     4     4     5   ar
     5     5     6    1
     6     6     7    1
     7     5     8   ar
     8     8     9   ar
     9     9    10    1
    10    10    11    2
    11    10    12    1
    12    12    13    2
    13    13    14    1
    14    14    15    1
    15    15    16    1
    16    16    17    1
    17    17    18    2
    18    18    19   ar
    19    19    20   ar
    20    20    21   ar
    21    21    22   ar
    22    22    23   ar
    23    18    23   ar
    24    23    24    2
    25    24    25    1
    26    17    25    1
    27    13    26    1
    28    26    27    1
    29    27    28   ar
    30    28    29   ar
    31    29    30   ar
    32    30    31    1
    33    30    32   ar
    34    32    33   ar
    35    27    33   ar
    36    33    34    1
    37     9    35   ar
    38     3    35   ar
    39     1    36    1
    40     1    37    1
    41     1    38    1
    42     4    39    1
    43     7    40    1
    44     7    41    1
    45     7    42    1
    46     8    43    1
    47    14    44    1
    48    15    45    1
    49    15    46    1
    50    16    47    1
    51    16    48    1
    52    19    49    1
    53    20    50    1
    54    21    51    1
    55    22    52    1
    56    24    53    1
    57    25    54    1
    58    25    55    1
    59    26    56    1
    60    28    57    1
    61    29    58    1
    62    31    59    1
    63    31    60    1
    64    31    61    1
    65    32    62    1
    66    34    63    1
    67    34    64    1
    68    34    65    1
    69    35    66    1
