@<TRIPOS>MOLECULE
*****
 68 72 0 0 0
SMALL
GASTEIGER

@<TRIPOS>ATOM
      1 O          -0.7882    0.2180   -7.2075 O.2     1  UNL1       -0.2749
      2 C          -1.0715    0.1431   -6.0129 C.2     1  UNL1        0.2230
      3 C          -0.0334   -0.0738   -4.8791 C.3     1  UNL1        0.0734
      4 S           1.6620   -0.2051   -5.5882 S.3     1  UNL1       -0.1085
      5 C           2.7662   -0.4608   -4.1452 C.3     1  UNL1        0.1563
      6 N           3.8020    0.5626   -4.1382 N.pl3   1  UNL1       -0.3156
      7 C           4.9011    0.4225   -4.9808 C.ar    1  UNL1        0.0414
      8 C           5.7014    1.5021   -5.3643 C.ar    1  UNL1       -0.0400
      9 C           6.8388    1.3107   -6.1732 C.ar    1  UNL1       -0.0600
     10 C           7.2128    0.0362   -6.5906 C.ar    1  UNL1       -0.0609
     11 C           6.4167   -1.0391   -6.2432 C.ar    1  UNL1       -0.0478
     12 C           5.2621   -0.8305   -5.4748 C.ar    1  UNL1        0.0593
     13 C           4.4252   -1.9839   -5.1476 C.2     1  UNL1        0.2669
     14 O           4.6812   -3.0319   -5.7438 O.2     1  UNL1       -0.2683
     15 N           3.4298   -1.7742   -4.1888 N.am    1  UNL1       -0.1859
     16 N           2.7291   -2.9039   -3.6046 N.am    1  UNL1       -0.2292
     17 C           3.3862   -4.1250   -3.4635 C.2     1  UNL1        0.2296
     18 O           4.5204   -4.4053   -3.8359 O.2     1  UNL1       -0.2743
     19 C           2.6381   -5.1866   -2.6986 C.3     1  UNL1        0.0293
     20 C           3.4157   -6.4973   -2.9077 C.3     1  UNL1       -0.0165
     21 C           2.9048   -7.6722   -2.1677 C.2     1  UNL1        0.0081
     22 C           3.2587   -8.9344   -2.4162 C.ar    1  UNL1        0.0509
     23 C           4.1127   -9.5438   -3.3782 C.ar    1  UNL1       -0.0482
     24 C           4.2825  -10.8727   -3.3209 C.ar    1  UNL1       -0.0608
     25 C           3.6258  -11.6797   -2.3012 C.ar    1  UNL1       -0.0555
     26 C           2.8121  -11.1720   -1.3538 C.ar    1  UNL1        0.0098
     27 C           2.5862   -9.7174   -1.3696 C.ar    1  UNL1        0.2086
     28 N           1.8883   -8.9825   -0.5893 N.2     1  UNL1       -0.2369
     29 C           1.9932   -7.5700   -0.9921 C.3     1  UNL1        0.1660
     30 N          -2.4014    0.2523   -5.6866 N.am    1  UNL1       -0.3143
     31 C          -2.9752    0.1603   -4.3681 C.3     1  UNL1        0.0156
     32 C          -4.5085    0.2713   -4.3190 C.3     1  UNL1       -0.0121
     33 C          -5.0359    0.2031   -2.8991 C.ar    1  UNL1       -0.0459
     34 C          -6.1801    0.9250   -2.5343 C.ar    1  UNL1       -0.0585
     35 C          -6.5563    1.0142   -1.1909 C.ar    1  UNL1       -0.0615
     36 C          -5.8704    0.2888   -0.2188 C.ar    1  UNL1       -0.0617
     37 C          -4.8298   -0.5512   -0.5920 C.ar    1  UNL1       -0.0615
     38 C          -4.3973   -0.5684   -1.9149 C.ar    1  UNL1       -0.0585
     39 H          -0.2789   -1.0020   -4.3542 H       1  UNL1        0.0472
     40 H          -0.0894    0.7740   -4.1890 H       1  UNL1        0.0472
     41 H           2.1939   -0.3747   -3.2144 H       1  UNL1        0.0847
     42 H           3.5922    1.4743   -3.7587 H       1  UNL1        0.1487
     43 H           5.4491    2.5142   -5.0621 H       1  UNL1        0.0636
     44 H           7.4426    2.1615   -6.4787 H       1  UNL1        0.0618
     45 H           8.1063   -0.1278   -7.1871 H       1  UNL1        0.0618
     46 H           6.6891   -2.0450   -6.5584 H       1  UNL1        0.0626
     47 H           1.9849   -2.6741   -2.9568 H       1  UNL1        0.1731
     48 H           1.6065   -5.2847   -3.0485 H       1  UNL1        0.0362
     49 H           2.6461   -4.9047   -1.6399 H       1  UNL1        0.0362
     50 H           4.4622   -6.3659   -2.5931 H       1  UNL1        0.0317
     51 H           3.4404   -6.7324   -3.9818 H       1  UNL1        0.0317
     52 H           4.6077   -8.9380   -4.1325 H       1  UNL1        0.0626
     53 H           4.9261  -11.3715   -4.0431 H       1  UNL1        0.0618
     54 H           3.8342  -12.7475   -2.3387 H       1  UNL1        0.0620
     55 H           2.3487  -11.8051   -0.6080 H       1  UNL1        0.0683
     56 H           1.3537   -9.3424    0.1971 H       1  UNL1        0.4459
     57 H           2.4293   -6.9913   -0.1735 H       1  UNL1        0.1077
     58 H           1.0025   -7.2008   -1.2710 H       1  UNL1        0.1077
     59 H          -3.0085    0.3801   -6.4919 H       1  UNL1        0.1487
     60 H          -2.5184    0.9445   -3.7540 H       1  UNL1        0.0465
     61 H          -2.6481   -0.8069   -3.9783 H       1  UNL1        0.0465
     62 H          -4.9757   -0.5195   -4.9177 H       1  UNL1        0.0328
     63 H          -4.8038    1.2292   -4.7699 H       1  UNL1        0.0328
     64 H          -6.7735    1.4478   -3.2823 H       1  UNL1        0.0620
     65 H          -7.3842    1.6559   -0.8986 H       1  UNL1        0.0618
     66 H          -6.1547    0.3683    0.8265 H       1  UNL1        0.0618
     67 H          -4.3400   -1.1810    0.1445 H       1  UNL1        0.0618
     68 H          -3.5376   -1.1865   -2.1488 H       1  UNL1        0.0620
@<TRIPOS>UNITY_ATOM_ATTR
28 1
charge 1
@<TRIPOS>BOND
     1     1     2    2
     2     2     3    1
     3     3     4    1
     4     5     6    1
     5     6     7    1
     6     7     8   ar
     7     8     9   ar
     8     9    10   ar
     9    10    11   ar
    10    11    12   ar
    11     7    12   ar
    12    12    13    1
    13    13    14    2
    14    13    15   am
    15     5    15    1
    16    15    16    1
    17    16    17   am
    18    17    18    2
    19    17    19    1
    20    19    20    1
    21    20    21    1
    22    21    22    2
    23    22    23   ar
    24    23    24   ar
    25    24    25   ar
    26    25    26   ar
    27    26    27   ar
    28    22    27   ar
    29    27    28    2
    30    28    29    1
    31    21    29    1
    32     2    30   am
    33    30    31    1
    34    31    32    1
    35    32    33    1
    36    33    34   ar
    37    34    35   ar
    38    35    36   ar
    39    36    37   ar
    40    37    38   ar
    41    33    38   ar
    42     5     4    1
    43     3    39    1
    44     3    40    1
    45     5    41    1
    46     6    42    1
    47     8    43    1
    48     9    44    1
    49    10    45    1
    50    11    46    1
    51    16    47    1
    52    19    48    1
    53    19    49    1
    54    20    50    1
    55    20    51    1
    56    23    52    1
    57    24    53    1
    58    25    54    1
    59    26    55    1
    60    28    56    1
    61    29    57    1
    62    29    58    1
    63    30    59    1
    64    31    60    1
    65    31    61    1
    66    32    62    1
    67    32    63    1
    68    34    64    1
    69    35    65    1
    70    36    66    1
    71    37    67    1
    72    38    68    1
