@<TRIPOS>MOLECULE
*****
 49 49 0 0 0
SMALL
GASTEIGER

@<TRIPOS>ATOM
      1 C           1.0165   -0.0886    0.0588 C.3     1  UNL1       -0.0653
      2 C           2.5361   -0.0802    0.0490 C.3     1  UNL1       -0.0559
      3 C           3.0671    0.8450   -1.0451 C.3     1  UNL1       -0.0533
      4 C           4.5962    0.8648   -1.0685 C.3     1  UNL1       -0.0517
      5 C           5.1247    1.7957   -2.1692 C.3     1  UNL1       -0.0373
      6 C           6.6546    1.8216   -2.1995 C.3     1  UNL1        0.0131
      7 N           7.2129    2.6910   -3.2314 N.am    1  UNL1       -0.2994
      8 C           8.5730    2.8096   -3.3784 C.2     1  UNL1        0.2997
      9 O           9.3769    2.2139   -2.6627 O.2     1  UNL1       -0.2529
     10 N           8.9700    3.6340   -4.4020 N.am    1  UNL1       -0.2968
     11 C          10.3944    3.8770   -4.6510 C.3     1  UNL1        0.0423
     12 C          10.6782    4.8792   -5.7901 C.3     1  UNL1        0.1046
     13 O          10.0461    6.1287   -5.4733 O.3     1  UNL1       -0.3869
     14 C          12.2011    5.0748   -6.0089 C.3     1  UNL1        0.1169
     15 O          12.4238    6.0555   -7.0376 O.3     1  UNL1       -0.4893
     16 C          13.7218    6.2585   -7.4288 C.ar    1  UNL1        0.1210
     17 C          14.0631    7.5690   -7.7885 C.ar    1  UNL1       -0.0135
     18 C          15.3249    7.8615   -8.3241 C.ar    1  UNL1        0.0190
     19 C          16.2750    6.8409   -8.4373 C.ar    1  UNL1        0.2734
     20 N          17.6452    7.1563   -8.8658 N.pl3   1  UNL1        0.0796
     21 O          17.9086    8.3362   -9.1377 O.2     1  UNL1        0.0414
     22 O          18.4651    6.2271   -8.9031 O.co2   1  UNL1       -0.5760
     23 C          15.9404    5.5260   -8.0917 C.ar    1  UNL1        0.0190
     24 C          14.6609    5.2393   -7.5968 C.ar    1  UNL1       -0.0135
     25 H           0.6429   -0.7525    0.8440 H       1  UNL1        0.0230
     26 H           0.6235   -0.4385   -0.9012 H       1  UNL1        0.0230
     27 H           0.6235    0.9162    0.2444 H       1  UNL1        0.0230
     28 H           2.9033   -1.1007   -0.1115 H       1  UNL1        0.0263
     29 H           2.9033    0.2475    1.0286 H       1  UNL1        0.0263
     30 H           2.6878    1.8608   -0.8797 H       1  UNL1        0.0265
     31 H           2.6878    0.5131   -2.0193 H       1  UNL1        0.0265
     32 H           4.9695   -0.1542   -1.2298 H       1  UNL1        0.0266
     33 H           4.9695    1.1931   -0.0905 H       1  UNL1        0.0266
     34 H           4.7389    2.8087   -2.0031 H       1  UNL1        0.0280
     35 H           4.7390    1.4634   -3.1406 H       1  UNL1        0.0280
     36 H           7.0403    0.8093   -2.3695 H       1  UNL1        0.0462
     37 H           7.0408    2.1589   -1.2302 H       1  UNL1        0.0462
     38 H           6.5925    3.2055   -3.8378 H       1  UNL1        0.1502
     39 H           8.2926    4.1905   -4.9050 H       1  UNL1        0.1503
     40 H          10.8623    2.9100   -4.8669 H       1  UNL1        0.0489
     41 H          10.8241    4.2552   -3.7146 H       1  UNL1        0.0489
     42 H          10.2223    4.5300   -6.7236 H       1  UNL1        0.0643
     43 H          10.5071    6.5071   -4.7046 H       1  UNL1        0.2100
     44 H          12.6343    4.1066   -6.2787 H       1  UNL1        0.0723
     45 H          12.6694    5.4457   -5.0898 H       1  UNL1        0.0723
     46 H          13.3453    8.3747   -7.6451 H       1  UNL1        0.0656
     47 H          15.5476    8.8776   -8.6450 H       1  UNL1        0.0686
     48 H          16.6544    4.7133   -8.2114 H       1  UNL1        0.0686
     49 H          14.4208    4.2053   -7.3759 H       1  UNL1        0.0656
@<TRIPOS>UNITY_ATOM_ATTR
20 1
charge 1
22 1
charge -1
@<TRIPOS>BOND
     1     1     2    1
     2     2     3    1
     3     3     4    1
     4     4     5    1
     5     5     6    1
     6     6     7    1
     7     7     8   am
     8     8     9    2
     9     8    10   am
    10    10    11    1
    11    11    12    1
    12    12    13    1
    13    12    14    1
    14    14    15    1
    15    15    16    1
    16    16    17   ar
    17    17    18   ar
    18    18    19   ar
    19    19    20    1
    20    20    21    2
    21    20    22    1
    22    19    23   ar
    23    23    24   ar
    24    16    24   ar
    25     1    25    1
    26     1    26    1
    27     1    27    1
    28     2    28    1
    29     2    29    1
    30     3    30    1
    31     3    31    1
    32     4    32    1
    33     4    33    1
    34     5    34    1
    35     5    35    1
    36     6    36    1
    37     6    37    1
    38     7    38    1
    39    10    39    1
    40    11    40    1
    41    11    41    1
    42    12    42    1
    43    13    43    1
    44    14    44    1
    45    14    45    1
    46    17    46    1
    47    18    47    1
    48    23    48    1
    49    24    49    1
