REMARK  8 active torsions:
REMARK  status: ('A' for Active; 'I' for Inactive)
REMARK       I    between atoms: C_2  and  N_3 
REMARK       I    between atoms: C_2  and  N_12 
REMARK    1  A    between atoms: N_3  and  C_4 
REMARK    2  A    between atoms: C_4  and  C_5 
REMARK    3  A    between atoms: C_5  and  C_6 
REMARK    4  A    between atoms: C_6  and  N_7 
REMARK    5  A    between atoms: N_12  and  N_13 
REMARK       I    between atoms: N_13  and  C_14 
REMARK    6  A    between atoms: C_14  and  C_16 
REMARK    7  A    between atoms: C_21  and  S_22 
REMARK    8  A    between atoms: S_22  and  C_23 
ROOT
ATOM      1  N   UNL d   1       4.458  -1.196  -0.354  0.00  0.00    -0.262 N 
ATOM      2  C   UNL d   1       5.058  -2.383  -0.783  0.00  0.00     0.273 C 
ATOM      3  O   UNL d   1       4.463  -3.456  -0.871  0.00  0.00    -0.266 OA
ATOM      4  H   UNL d   1       4.980  -0.333  -0.329  0.00  0.00     0.190 HD
ENDROOT
BRANCH   1   5
ATOM      5  N   UNL d   1       3.046  -1.149  -0.299  0.00  0.00    -0.249 N 
ATOM      6  C   UNL d   1       2.269  -0.072   0.044  0.00  0.00     0.334 C 
ATOM      7  O   UNL d   1       1.046  -0.096  -0.061  0.00  0.00    -0.246 OA
ATOM      8  N   UNL d   1       2.934   1.025   0.521  0.00  0.00    -0.342 N 
ATOM      9  H   UNL d   1       3.935   0.990   0.552  0.00  0.00     0.164 HD
ATOM     10  H   UNL d   1       2.559  -1.946  -0.721  0.00  0.00     0.192 HD
BRANCH   8  11
ATOM     11  C   UNL d   1       2.217   2.163   1.069  0.00  0.00     0.126 C 
BRANCH  11  12
ATOM     12  C   UNL d   1       3.182   3.213   1.600  0.00  0.00     0.040 C 
BRANCH  12  13
ATOM     13  C   UNL d   1       2.461   4.406   2.218  0.00  0.00     0.130 C 
BRANCH  13  14
ATOM     14  N   UNL d   1       3.399   5.427   2.728  0.00  0.00    -0.352 N 
ATOM     15  C   UNL d   1       4.614   5.204   3.372  0.00  0.00     0.108 A 
ATOM     16  C   UNL d   1       5.137   6.427   3.679  0.00  0.00     0.106 A 
ATOM     17  N   UNL d   1       4.224   7.354   3.242  0.00  0.00    -0.361 N 
ATOM     18  C   UNL d   1       3.173   6.753   2.677  0.00  0.00     0.182 A 
ATOM     19  H   UNL d   1       4.322   8.362   3.338  0.00  0.00     0.166 HD
ENDBRANCH  13  14
ENDBRANCH  12  13
ENDBRANCH  11  12
ENDBRANCH   8  11
ENDBRANCH   1   5
BRANCH   2  20
ATOM     20  C   UNL d   1       6.506  -2.318  -1.073  0.00  0.00     0.069 A 
ATOM     21  C   UNL d   1       7.305  -1.927   0.013  0.00  0.00     0.021 A 
ATOM     22  C   UNL d   1       8.690  -1.969  -0.078  0.00  0.00     0.020 A 
ATOM     23  C   UNL d   1       9.243  -2.387  -1.268  0.00  0.00     0.118 A 
ATOM     24  N   UNL d   1       8.501  -2.730  -2.346  0.00  0.00    -0.253 NA
ATOM     25  C   UNL d   1       7.131  -2.719  -2.260  0.00  0.00     0.113 A 
BRANCH  25  26
ATOM     26  S   UNL d   1       6.395  -3.227  -3.808  0.00  0.00    -0.070 SA
BRANCH  26  27
ATOM     27  C   UNL d   1       4.639  -3.001  -3.694  0.00  0.00     0.007 A 
ATOM     28  C   UNL d   1       3.788  -4.110  -3.792  0.00  0.00     0.019 A 
ATOM     29  C   UNL d   1       2.405  -3.961  -3.647  0.00  0.00     0.001 A 
ATOM     30  C   UNL d   1       1.868  -2.716  -3.331  0.00  0.00     0.000 A 
ATOM     31  C   UNL d   1       2.702  -1.604  -3.260  0.00  0.00     0.001 A 
ATOM     32  C   UNL d   1       4.078  -1.740  -3.469  0.00  0.00     0.019 A 
ENDBRANCH  26  27
ENDBRANCH  25  26
ENDBRANCH   2  20
TORSDOF 8
