@<TRIPOS>MOLECULE
*****
 37 38 0 0 0
SMALL
GASTEIGER

@<TRIPOS>ATOM
      1 C           1.0775   -0.0082   -0.0804 C.3     1  UNL1       -0.0203
      2 C           2.6008   -0.0200   -0.0751 C.2     1  UNL1        0.0635
      3 N           3.2105   -1.0753    0.3975 N.2     1  UNL1       -0.1845
      4 N           4.5930   -1.1354    0.4735 N.am    1  UNL1       -0.2039
      5 C           5.2268   -2.2976    0.9123 C.2     1  UNL1        0.2698
      6 O           4.6138   -3.3022    1.2864 O.2     1  UNL1       -0.2703
      7 C           6.7758   -2.2370    0.8905 C.3     1  UNL1        0.1668
      8 O           7.2984   -3.4670    1.4130 O.3     1  UNL1       -0.4827
      9 C           8.6547   -3.6261    1.3965 C.ar    1  UNL1        0.1213
     10 C           9.5544   -2.6999    1.9217 C.ar    1  UNL1       -0.0185
     11 C          10.9296   -2.9745    1.9065 C.ar    1  UNL1       -0.0399
     12 C          11.3979   -4.1786    1.3799 C.ar    1  UNL1        0.0412
     13 CL         13.0900   -4.4887    1.3180 Cl      1  UNL1       -0.0835
     14 C          10.5005   -5.1298    0.9038 C.ar    1  UNL1       -0.0399
     15 C           9.1289   -4.8559    0.9269 C.ar    1  UNL1       -0.0185
     16 C           3.2719    1.1764   -0.6510 C.ar    1  UNL1        0.0009
     17 C           2.9141    2.4794   -0.2902 C.ar    1  UNL1       -0.0526
     18 C           3.6777    3.5547   -0.7612 C.ar    1  UNL1       -0.0577
     19 C           4.8025    3.3274   -1.5635 C.ar    1  UNL1       -0.0201
     20 C           5.1259    2.0274   -1.9299 C.ar    1  UNL1        0.1175
     21 O           6.2357    1.7146   -2.6532 O.3     1  UNL1       -0.5067
     22 C           4.3357    0.9655   -1.5288 C.ar    1  UNL1       -0.0113
     23 H           0.6791   -0.9505    0.3089 H       1  UNL1        0.0293
     24 H           0.7054    0.1226   -1.1024 H       1  UNL1        0.0293
     25 H           0.6878    0.8039    0.5406 H       1  UNL1        0.0293
     26 H           5.1418   -0.3179    0.2389 H       1  UNL1        0.1773
     27 H           7.1022   -1.3864    1.4988 H       1  UNL1        0.0795
     28 H           7.1100   -2.1040   -0.1472 H       1  UNL1        0.0795
     29 H           9.2078   -1.7807    2.3817 H       1  UNL1        0.0654
     30 H          11.6310   -2.2513    2.3149 H       1  UNL1        0.0633
     31 H          10.8570   -6.0813    0.5175 H       1  UNL1        0.0633
     32 H           8.4257   -5.6070    0.5742 H       1  UNL1        0.0654
     33 H           2.0738    2.6767    0.3716 H       1  UNL1        0.0624
     34 H           3.4121    4.5721   -0.4796 H       1  UNL1        0.0619
     35 H           5.4060    4.1691   -1.8890 H       1  UNL1        0.0654
     36 H           6.7132    2.5268   -2.8861 H       1  UNL1        0.2921
     37 H           4.5844   -0.0385   -1.8629 H       1  UNL1        0.0660
@<TRIPOS>BOND
     1     1     2    1
     2     2     3    2
     3     3     4    1
     4     4     5   am
     5     5     6    2
     6     5     7    1
     7     7     8    1
     8     8     9    1
     9     9    10   ar
    10    10    11   ar
    11    11    12   ar
    12    12    13    1
    13    12    14   ar
    14    14    15   ar
    15     9    15   ar
    16     2    16    1
    17    16    17   ar
    18    17    18   ar
    19    18    19   ar
    20    19    20   ar
    21    20    21    1
    22    20    22   ar
    23    16    22   ar
    24     1    23    1
    25     1    24    1
    26     1    25    1
    27     4    26    1
    28     7    27    1
    29     7    28    1
    30    10    29    1
    31    11    30    1
    32    14    31    1
    33    15    32    1
    34    17    33    1
    35    18    34    1
    36    19    35    1
    37    21    36    1
    38    22    37    1
