@<TRIPOS>MOLECULE
*****
 52 52 0 0 0
SMALL
GASTEIGER

@<TRIPOS>ATOM
      1 C           0.9538   -0.0954    0.0006 C.3     1  UNL1       -0.0653
      2 C           2.4705   -0.1042    0.0193 C.3     1  UNL1       -0.0559
      3 C           2.9868   -0.3544    1.4362 C.3     1  UNL1       -0.0532
      4 C           4.5092   -0.3582    1.4572 C.3     1  UNL1       -0.0514
      5 C           5.0739   -0.5789    2.8723 C.3     1  UNL1       -0.0347
      6 C           6.6209   -0.5417    2.9015 C.3     1  UNL1        0.0218
      7 C           7.1125    0.8063    2.3573 C.3     1  UNL1       -0.0466
      8 N           7.1741   -0.7833    4.2476 N.am    1  UNL1       -0.2968
      9 C           8.5306   -0.8803    4.4503 C.2     1  UNL1        0.2999
     10 O           9.3586   -0.7983    3.5430 O.2     1  UNL1       -0.2529
     11 N           8.9151   -1.0245    5.7582 N.am    1  UNL1       -0.2968
     12 C          10.3408   -1.1053    6.0897 C.3     1  UNL1        0.0423
     13 C          10.6283   -1.3826    7.5770 C.3     1  UNL1        0.1046
     14 O           9.9981   -2.6196    7.9427 O.3     1  UNL1       -0.3869
     15 C          12.1511   -1.4376    7.8594 C.3     1  UNL1        0.1169
     16 O          12.3733   -1.7556    9.2438 O.3     1  UNL1       -0.4893
     17 C          13.6701   -1.7310    9.6853 C.ar    1  UNL1        0.1210
     18 C          14.0060   -2.6727   10.6666 C.ar    1  UNL1       -0.0135
     19 C          15.2647   -2.6506   11.2818 C.ar    1  UNL1        0.0190
     20 C          16.2174   -1.7169   10.8600 C.ar    1  UNL1        0.2734
     21 N          17.5846   -1.7690   11.3970 N.pl3   1  UNL1        0.0796
     22 O          17.8428   -2.6427   12.2368 O.2     1  UNL1        0.0414
     23 O          18.4074   -0.9526   10.9570 O.co2   1  UNL1       -0.5760
     24 C          15.8883   -0.7650    9.8873 C.ar    1  UNL1        0.0190
     25 C          14.6115   -0.7713    9.3096 C.ar    1  UNL1       -0.0135
     26 H           0.5849    0.0770   -1.0142 H       1  UNL1        0.0230
     27 H           0.5643    0.6967    0.6480 H       1  UNL1        0.0230
     28 H           0.5594   -1.0534    0.3535 H       1  UNL1        0.0230
     29 H           2.8444    0.8564   -0.3566 H       1  UNL1        0.0263
     30 H           2.8419   -0.8817   -0.6588 H       1  UNL1        0.0263
     31 H           2.6067   -1.3108    1.8106 H       1  UNL1        0.0265
     32 H           2.6152    0.4337    2.1027 H       1  UNL1        0.0265
     33 H           4.8308    0.6082    1.0566 H       1  UNL1        0.0266
     34 H           4.8924   -1.1317    0.7803 H       1  UNL1        0.0266
     35 H           4.7130   -1.5423    3.2544 H       1  UNL1        0.0283
     36 H           4.6722    0.1914    3.5432 H       1  UNL1        0.0283
     37 H           6.9973   -1.3471    2.2570 H       1  UNL1        0.0496
     38 H           6.7365    1.6264    2.9778 H       1  UNL1        0.0247
     39 H           6.7929    0.9754    1.3264 H       1  UNL1        0.0247
     40 H           8.2009    0.8736    2.3362 H       1  UNL1        0.0247
     41 H           6.5436   -0.9349    5.0212 H       1  UNL1        0.1505
     42 H           8.2375   -1.2424    6.4755 H       1  UNL1        0.1503
     43 H          10.8061   -0.1627    5.7782 H       1  UNL1        0.0489
     44 H          10.7719   -1.9070    5.4761 H       1  UNL1        0.0489
     45 H          10.1728   -0.6054    8.2010 H       1  UNL1        0.0643
     46 H          10.4542   -3.3353    7.4668 H       1  UNL1        0.2100
     47 H          12.5837   -0.4672    7.5962 H       1  UNL1        0.0723
     48 H          12.6187   -2.2255    7.2574 H       1  UNL1        0.0723
     49 H          13.2857   -3.4370   10.9529 H       1  UNL1        0.0656
     50 H          15.4829   -3.3587   12.0791 H       1  UNL1        0.0686
     51 H          16.6046   -0.0066    9.5767 H       1  UNL1        0.0686
     52 H          14.3752    0.0030    8.5883 H       1  UNL1        0.0656
@<TRIPOS>UNITY_ATOM_ATTR
21 1
charge 1
23 1
charge -1
@<TRIPOS>BOND
     1     1     2    1
     2     2     3    1
     3     3     4    1
     4     4     5    1
     5     5     6    1
     6     6     7    1
     7     6     8    1
     8     8     9   am
     9     9    10    2
    10     9    11   am
    11    11    12    1
    12    12    13    1
    13    13    14    1
    14    13    15    1
    15    15    16    1
    16    16    17    1
    17    17    18   ar
    18    18    19   ar
    19    19    20   ar
    20    20    21    1
    21    21    22    2
    22    21    23    1
    23    20    24   ar
    24    24    25   ar
    25    17    25   ar
    26     1    26    1
    27     1    27    1
    28     1    28    1
    29     2    29    1
    30     2    30    1
    31     3    31    1
    32     3    32    1
    33     4    33    1
    34     4    34    1
    35     5    35    1
    36     5    36    1
    37     6    37    1
    38     7    38    1
    39     7    39    1
    40     7    40    1
    41     8    41    1
    42    11    42    1
    43    12    43    1
    44    12    44    1
    45    13    45    1
    46    14    46    1
    47    15    47    1
    48    15    48    1
    49    18    49    1
    50    19    50    1
    51    24    51    1
    52    25    52    1
