REMARK  9 active torsions:
REMARK  status: ('A' for Active; 'I' for Inactive)
REMARK    1  A    between atoms: C_2  and  C_3 
REMARK    2  A    between atoms: C_3  and  N_5 
REMARK       I    between atoms: N_5  and  C_6 
REMARK    3  A    between atoms: C_6  and  C_8 
REMARK    4  A    between atoms: C_8  and  N_10 
REMARK       I    between atoms: N_10  and  C_11 
REMARK       I    between atoms: C_11  and  N_13 
REMARK    5  A    between atoms: N_13  and  C_14 
REMARK    6  A    between atoms: C_14  and  C_15 
REMARK    7  A    between atoms: C_15  and  N_16 
REMARK    8  A    between atoms: N_16  and  C_17 
REMARK    9  A    between atoms: C_22  and  N_23 
ROOT
ATOM      1  N   UNL d   1       7.417  -1.750  -3.713  0.00  0.00    -0.330 N 
ATOM      2  C   UNL d   1       8.774  -1.793  -3.918  0.00  0.00     0.316 C 
ATOM      3  O   UNL d   1       9.584  -1.324  -3.135  0.00  0.00    -0.247 OA
ATOM      4  N   UNL d   1       9.161  -2.478  -5.042  0.00  0.00    -0.342 N 
ATOM      5  H   UNL d   1       6.765  -2.070  -4.418  0.00  0.00     0.165 HD
ATOM      6  H   UNL d   1       8.480  -2.668  -5.763  0.00  0.00     0.164 HD
ENDROOT
BRANCH   4   7
ATOM      7  C   UNL d   1      10.589  -2.617  -5.350  0.00  0.00     0.144 C 
BRANCH   7   8
ATOM      8  C   UNL d   1      10.854  -3.379  -6.655  0.00  0.00     0.139 C 
BRANCH   8   9
ATOM      9  N   UNL d   1      12.270  -3.381  -7.028  0.00  0.00    -0.386 N 
ATOM     10  H   UNL d   1      12.961  -3.153  -6.318  0.00  0.00     0.159 HD
BRANCH   9  11
ATOM     11  C   UNL d   1      12.735  -3.896  -8.232  0.00  0.00     0.061 A 
ATOM     12  C   UNL d   1      13.771  -4.860  -8.170  0.00  0.00     0.031 A 
ATOM     13  C   UNL d   1      14.321  -5.449  -9.320  0.00  0.00     0.002 A 
ATOM     14  C   UNL d   1      13.799  -5.146 -10.569  0.00  0.00     0.003 A 
ATOM     15  C   UNL d   1      12.773  -4.214 -10.670  0.00  0.00     0.038 A 
ATOM     16  C   UNL d   1      12.250  -3.581  -9.520  0.00  0.00     0.129 A 
BRANCH  16  17
ATOM     17  N   UNL d   1      11.268  -2.513  -9.779  0.00  0.00    -0.113 N 
ATOM     18  O   UNL d   1      10.646  -2.565 -10.851  0.00  0.00    -0.532 OA
ATOM     19  O   UNL d   1      11.130  -1.595  -8.957  0.00  0.00    -0.532 OA
ENDBRANCH  16  17
ENDBRANCH   9  11
ENDBRANCH   8   9
ENDBRANCH   7   8
ENDBRANCH   4   7
BRANCH   1  20
ATOM     20  C   UNL d   1       6.835  -1.162  -2.484  0.00  0.00     0.174 C 
ATOM     21  C   UNL d   1       7.301  -1.934  -1.253  0.00  0.00     0.042 C 
BRANCH  20  22
ATOM     22  C   UNL d   1       5.279  -1.184  -2.530  0.00  0.00     0.240 C 
ATOM     23  N   UNL d   1       4.601  -0.595  -1.462  0.00  0.00    -0.355 N 
ATOM     24  H   UNL d   1       5.122  -0.215  -0.681  0.00  0.00     0.162 HD
ATOM     25  O   UNL d   1       4.690  -1.701  -3.482  0.00  0.00    -0.271 OA
BRANCH  23  26
ATOM     26  C   UNL d   1       3.127  -0.548  -1.404  0.00  0.00     0.080 C 
ATOM     27  C   UNL d   1       2.580   0.255  -2.588  0.00  0.00     0.032 C 
BRANCH  26  28
ATOM     28  C   UNL d   1       2.597   0.052  -0.078  0.00  0.00     0.020 C 
ATOM     29  C   UNL d   1       1.067   0.064  -0.001  0.00  0.00     0.007 C 
ENDBRANCH  26  28
ENDBRANCH  23  26
ENDBRANCH  20  22
ENDBRANCH   1  20
TORSDOF 9
