REMARK  3 active torsions:
REMARK  status: ('A' for Active; 'I' for Inactive)
REMARK    1  A    between atoms: C_2  and  N_3 
REMARK    2  A    between atoms: C_5  and  C_6 
REMARK       I    between atoms: C_6  and  N_8 
REMARK    3  A    between atoms: C_21  and  N_22 
ROOT
ATOM      1  N   UNL d   1       3.083   1.223   0.780  0.00  0.00    -0.355 N 
ATOM      2  C   UNL d   1       2.754   2.522   0.409  0.00  0.00     0.112 C 
ATOM      3  C   UNL d   1       2.911   3.658   1.113  0.00  0.00     0.100 C 
ATOM      4  C   UNL d   1       3.652   3.506   2.395  0.00  0.00     0.201 C 
ATOM      5  O   UNL d   1       3.870   4.437   3.161  0.00  0.00    -0.286 OA
ATOM      6  C   UNL d   1       4.122   2.145   2.776  0.00  0.00     0.045 C 
ATOM      7  C   UNL d   1       4.817   1.992   3.978  0.00  0.00     0.062 C 
ATOM      8  C   UNL d   1       5.096   0.712   4.438  0.00  0.00     0.143 C 
ATOM      9  F   UNL d   1       5.631   0.573   5.661  0.00  0.00    -0.204 F 
ATOM     10  C   UNL d   1       4.826  -0.431   3.670  0.00  0.00     0.071 C 
ATOM     11  C   UNL d   1       4.279  -0.229   2.398  0.00  0.00     0.063 C 
ATOM     12  C   UNL d   1       3.821   1.032   1.964  0.00  0.00     0.051 C 
ENDROOT
BRANCH   3  13
ATOM     13  C   UNL d   1       2.253   4.958   0.707  0.00  0.00     0.284 C 
ATOM     14  O   UNL d   1       2.381   5.978   1.386  0.00  0.00    -0.265 OA
ATOM     15  N   UNL d   1       1.485   4.942  -0.438  0.00  0.00    -0.183 NA
ATOM     16  C   UNL d   1       0.412   4.226  -0.440  0.00  0.00     0.192 C 
ATOM     17  N   UNL d   1      -0.101   3.358   0.490  0.00  0.00    -0.254 N 
ATOM     18  S   UNL d   1      -0.588   4.093  -1.894  0.00  0.00    -0.034 SA
ATOM     19  N   UNL d   1      -1.040   2.459   0.097  0.00  0.00    -0.170 NA
ATOM     20  H   UNL d   1       0.447   3.112   1.306  0.00  0.00     0.191 HD
ATOM     21  C   UNL d   1      -1.388   2.734  -1.122  0.00  0.00     0.094 C 
ATOM     22  C   UNL d   1      -2.431   1.936  -1.823  0.00  0.00     0.081 C 
ENDBRANCH   3  13
BRANCH   1  23
ATOM     23  C   UNL d   1       2.549   0.064   0.022  0.00  0.00     0.124 C 
ATOM     24  C   UNL d   1       1.028   0.013   0.035  0.00  0.00     0.027 C 
ENDBRANCH   1  23
BRANCH  10  25
ATOM     25  N   UNL d   1       4.955  -1.718   4.161  0.00  0.00    -0.375 N 
ATOM     26  C   UNL d   1       4.265  -2.074   5.401  0.00  0.00     0.150 C 
ATOM     27  C   UNL d   1       5.290  -2.434   6.487  0.00  0.00     0.254 C 
ATOM     28  N   UNL d   1       6.227  -3.541   5.987  0.00  0.00    -0.072 N 
ATOM     29  C   UNL d   1       7.238  -3.901   7.036  0.00  0.00     0.269 C 
ATOM     30  C   UNL d   1       6.899  -3.145   4.662  0.00  0.00     0.254 C 
ATOM     31  H   UNL d   1       5.651  -4.373   5.806  0.00  0.00     0.279 HD
ATOM     32  C   UNL d   1       5.848  -2.729   3.598  0.00  0.00     0.150 C 
ENDBRANCH  10  25
TORSDOF 3
