@<TRIPOS>MOLECULE
*****
 55 59 0 0 0
SMALL
GASTEIGER

@<TRIPOS>ATOM
      1 O           0.8981   -0.0802    0.1918 O.2     1  UNL1       -0.2740
      2 C           2.1184   -0.0299    0.0461 C.2     1  UNL1        0.2321
      3 C           2.8244   -0.1385   -1.3132 C.3     1  UNL1        0.1103
      4 N           1.9025   -0.2593   -2.4359 N.am    1  UNL1       -0.1902
      5 N           1.5525   -1.5084   -2.9987 N.3     1  UNL1       -0.1925
      6 C           1.3520   -1.1214   -4.4067 C.3     1  UNL1        0.2034
      7 C           0.2913   -1.9274   -5.1185 C.ar    1  UNL1        0.0463
      8 C          -1.0788   -1.9473   -4.9227 C.ar    1  UNL1       -0.0466
      9 C          -1.7550   -2.8698   -5.7772 C.ar    1  UNL1       -0.0543
     10 C          -0.8894   -3.5222   -6.6247 C.ar    1  UNL1       -0.0239
     11 S           0.7291   -3.0171   -6.3845 S.2     1  UNL1       -0.0965
     12 O           0.9868    0.2603   -4.4076 O.3     1  UNL1       -0.4242
     13 C           1.4862    0.7727   -3.2407 C.2     1  UNL1        0.4190
     14 O           1.5462    1.9728   -2.9834 O.2     1  UNL1       -0.2248
     15 N           2.8866    0.0875    1.1828 N.am    1  UNL1       -0.3131
     16 C           4.3345    0.1245    1.2427 C.3     1  UNL1        0.0224
     17 C           4.9257    0.1542    2.6796 C.3     1  UNL1        0.0290
     18 C           4.5048   -1.0845    3.4552 C.2     1  UNL1        0.0166
     19 C           4.8155   -2.3499    3.1448 C.ar    1  UNL1        0.0515
     20 C           5.5280   -2.9471    2.0703 C.ar    1  UNL1       -0.0481
     21 C           5.7858   -4.2540    2.0763 C.ar    1  UNL1       -0.0608
     22 C           5.2909   -5.0939    3.1418 C.ar    1  UNL1       -0.0555
     23 C           4.5678   -4.6282    4.1821 C.ar    1  UNL1        0.0098
     24 C           4.2907   -3.1748    4.2419 C.ar    1  UNL1        0.2086
     25 N           3.6703   -2.4703    5.1112 N.2     1  UNL1       -0.2369
     26 C           3.7084   -1.0326    4.7328 C.3     1  UNL1        0.1667
     27 C           6.4613    0.2548    2.6843 C.ar    1  UNL1       -0.0203
     28 C           7.2224   -0.3652    1.6699 C.ar    1  UNL1       -0.0566
     29 C           8.5734   -0.6511    1.8327 C.ar    1  UNL1       -0.0614
     30 C           9.2552   -0.0932    2.8973 C.ar    1  UNL1       -0.0604
     31 C           8.5697    0.7109    3.8072 C.ar    1  UNL1       -0.0431
     32 C           7.1748    0.8152    3.7537 C.ar    1  UNL1        0.0448
     33 CL          6.3824    1.6046    5.0688 Cl      1  UNL1       -0.0832
     34 H           3.4778   -1.0192   -1.3081 H       1  UNL1        0.0577
     35 H           3.4482    0.7528   -1.4535 H       1  UNL1        0.0577
     36 H           0.6059   -1.6845   -2.6380 H       1  UNL1        0.1487
     37 H           2.3121   -1.2192   -4.9321 H       1  UNL1        0.0985
     38 H          -1.5790   -1.3263   -4.1912 H       1  UNL1        0.0627
     39 H          -2.8249   -3.0445   -5.7732 H       1  UNL1        0.0623
     40 H          -1.1384   -4.2675   -7.3723 H       1  UNL1        0.0693
     41 H           2.3301    0.1659    2.0250 H       1  UNL1        0.1488
     42 H           4.6856    0.9890    0.6722 H       1  UNL1        0.0471
     43 H           4.6571   -0.7630    0.6958 H       1  UNL1        0.0471
     44 H           4.5056    1.0415    3.1704 H       1  UNL1        0.0412
     45 H           5.8747   -2.3816    1.2286 H       1  UNL1        0.0626
     46 H           6.3573   -4.6807    1.2545 H       1  UNL1        0.0618
     47 H           5.5284   -6.1493    3.0324 H       1  UNL1        0.0620
     48 H           4.2100   -5.3038    4.9470 H       1  UNL1        0.0683
     49 H           3.2331   -2.8606    5.9447 H       1  UNL1        0.4459
     50 H           4.1979   -0.4773    5.5362 H       1  UNL1        0.1077
     51 H           2.6816   -0.6872    4.5773 H       1  UNL1        0.1077
     52 H           6.7759   -0.7130    0.7444 H       1  UNL1        0.0621
     53 H           9.0849   -1.2939    1.1180 H       1  UNL1        0.0618
     54 H          10.3233   -0.2635    3.0004 H       1  UNL1        0.0618
     55 H           9.1326    1.2346    4.5750 H       1  UNL1        0.0632
@<TRIPOS>UNITY_ATOM_ATTR
25 1
charge 1
@<TRIPOS>BOND
     1     1     2    2
     2     2     3    1
     3     3     4    1
     4     4     5    1
     5     5     6    1
     6     7     8   ar
     7     8     9   ar
     8     9    10   ar
     9    10    11   ar
    10     7    11   ar
    11     6    12    1
    12    12    13    1
    13     4    13   am
    14    13    14    2
    15     2    15   am
    16    15    16    1
    17    16    17    1
    18    17    18    1
    19    18    19    2
    20    19    20   ar
    21    20    21   ar
    22    21    22   ar
    23    22    23   ar
    24    23    24   ar
    25    19    24   ar
    26    24    25    2
    27    25    26    1
    28    18    26    1
    29    17    27    1
    30    27    28   ar
    31    28    29   ar
    32    29    30   ar
    33    30    31   ar
    34    31    32   ar
    35    27    32   ar
    36    32    33    1
    37     6     7    1
    38     3    34    1
    39     3    35    1
    40     5    36    1
    41     6    37    1
    42     8    38    1
    43     9    39    1
    44    10    40    1
    45    15    41    1
    46    16    42    1
    47    16    43    1
    48    17    44    1
    49    20    45    1
    50    21    46    1
    51    22    47    1
    52    23    48    1
    53    25    49    1
    54    26    50    1
    55    26    51    1
    56    28    52    1
    57    29    53    1
    58    30    54    1
    59    31    55    1
