REMARK  3 active torsions:
REMARK  status: ('A' for Active; 'I' for Inactive)
REMARK    1  A    between atoms: C_3  and  C_4 
REMARK       I    between atoms: C_4  and  N_6 
REMARK    2  A    between atoms: N_6  and  N_7 
REMARK       I    between atoms: N_7  and  C_8 
REMARK    3  A    between atoms: C_8  and  C_10 
ROOT
ATOM      1  C   UNL d   1       3.389   1.529   0.033  0.00  0.00     0.294 C 
ATOM      2  O   UNL d   1       3.526   2.759   0.049  0.00  0.00    -0.264 OA
ATOM      3  N   UNL d   1       4.526   0.716   0.042  0.00  0.00    -0.261 N 
ATOM      4  H   UNL d   1       4.502  -0.287  -0.004  0.00  0.00     0.190 HD
ENDROOT
BRANCH   3   5
ATOM      5  N   UNL d   1       5.850   1.205   0.105  0.00  0.00    -0.263 N 
ATOM      6  C   UNL d   1       6.880   0.264   0.058  0.00  0.00     0.270 C 
ATOM      7  O   UNL d   1       6.675  -0.947  -0.011  0.00  0.00    -0.266 OA
ATOM      8  H   UNL d   1       5.980   2.212   0.055  0.00  0.00     0.190 HD
BRANCH   6   9
ATOM      9  C   UNL d   1       8.276   0.783   0.087  0.00  0.00     0.035 A 
ATOM     10  C   UNL d   1       8.618   1.816   0.966  0.00  0.00     0.017 A 
ATOM     11  C   UNL d   1       9.928   2.303   1.006  0.00  0.00     0.003 A 
ATOM     12  C   UNL d   1      10.901   1.766   0.162  0.00  0.00     0.024 A 
ATOM     13  C   UNL d   1      10.566   0.724  -0.702  0.00  0.00     0.035 A 
ATOM     14 CL   UNL d   1      11.775   0.086  -1.751  0.00  0.00    -0.084 Cl
ATOM     15  C   UNL d   1       9.265   0.212  -0.731  0.00  0.00     0.041 A 
ENDBRANCH   6   9
ENDBRANCH   3   5
BRANCH   1  16
ATOM     16  C   UNL d   1       2.071   0.849   0.007  0.00  0.00     0.152 A 
ATOM     17  C   UNL d   1       1.669  -0.490   0.004  0.00  0.00    -0.009 A 
ATOM     18  C   UNL d   1       2.458  -1.743   0.040  0.00  0.00     0.052 C 
ATOM     19  C   UNL d   1       0.235  -0.507  -0.016  0.00  0.00     0.007 A 
ATOM     20  C   UNL d   1      -0.738  -1.532  -0.027  0.00  0.00     0.015 A 
ATOM     21  C   UNL d   1      -0.182   0.812  -0.001  0.00  0.00     0.087 A 
ATOM     22  C   UNL d   1      -2.095  -1.198  -0.003  0.00  0.00     0.001 A 
ATOM     23  C   UNL d   1      -2.489   0.139   0.023  0.00  0.00     0.003 A 
ATOM     24  C   UNL d   1      -1.537   1.179   0.018  0.00  0.00     0.038 A 
ATOM     25  O   UNL d   1       0.917   1.635   0.001  0.00  0.00    -0.304 OA
ENDBRANCH   1  16
TORSDOF 3
