REMARK  7 active torsions:
REMARK  status: ('A' for Active; 'I' for Inactive)
REMARK    1  A    between atoms: C_5  and  N_6 
REMARK       I    between atoms: N_6  and  C_7 
REMARK    2  A    between atoms: C_7  and  C_9 
REMARK    3  A    between atoms: C_9  and  N_10 
REMARK    4  A    between atoms: N_10  and  C_11 
REMARK    5  A    between atoms: C_14  and  C_15 
REMARK       I    between atoms: C_15  and  N_17 
REMARK    6  A    between atoms: N_17  and  C_18 
REMARK    7  A    between atoms: C_18  and  C_19 
ROOT
ATOM      1  C   UNL d   1      -8.128  -1.144  -0.199  0.00  0.00     0.028 A 
ATOM      2  C   UNL d   1      -9.126  -0.510  -0.949  0.00  0.00     0.030 A 
ATOM      3  C   UNL d   1     -10.469  -0.918  -0.871  0.00  0.00     0.019 A 
ATOM      4  C   UNL d   1     -10.841  -2.012  -0.075  0.00  0.00     0.032 A 
ATOM      5  C   UNL d   1      -9.849  -2.629   0.692  0.00  0.00     0.019 A 
ATOM      6  C   UNL d   1      -8.514  -2.202   0.620  0.00  0.00     0.030 A 
ENDROOT
BRANCH   1   7
ATOM      7  N   UNL d   1      -6.822  -0.730  -0.321  0.00  0.00    -0.381 N 
ATOM      8  H   UNL d   1      -6.633   0.271  -0.198  0.00  0.00     0.160 HD
BRANCH   7   9
ATOM      9  C   UNL d   1      -5.639  -1.589  -0.165  0.00  0.00     0.223 C 
BRANCH   9  10
ATOM     10  C   UNL d   1      -4.390  -0.696  -0.091  0.00  0.00     0.239 C 
ATOM     11  N   UNL d   1      -3.151  -1.343  -0.067  0.00  0.00    -0.326 N 
ATOM     12  H   UNL d   1      -3.126  -2.356  -0.111  0.00  0.00     0.169 HD
ATOM     13  O   UNL d   1      -4.563   0.526  -0.047  0.00  0.00    -0.271 OA
BRANCH  11  14
ATOM     14  C   UNL d   1      -1.891  -0.671  -0.019  0.00  0.00     0.035 A 
ATOM     15  C   UNL d   1      -1.810   0.720   0.023  0.00  0.00     0.030 A 
ATOM     16  C   UNL d   1      -0.596   1.393   0.025  0.00  0.00     0.009 A 
ATOM     17  C   UNL d   1       0.604   0.693   0.002  0.00  0.00    -0.056 A 
ATOM     18  C   UNL d   1       1.881   1.484  -0.015  0.00  0.00     0.049 C 
ATOM     19  C   UNL d   1       0.569  -0.716  -0.002  0.00  0.00    -0.054 A 
ATOM     20  C   UNL d   1      -0.683  -1.390  -0.019  0.00  0.00     0.037 A 
ATOM     21  C   UNL d   1       1.860  -1.492   0.020  0.00  0.00     0.049 C 
ENDBRANCH  11  14
ENDBRANCH   9  10
ENDBRANCH   7   9
ENDBRANCH   1   7
BRANCH   4  22
ATOM     22  C   UNL d   1     -12.260  -2.503  -0.119  0.00  0.00     0.251 C 
ATOM     23  O   UNL d   1     -13.083  -1.935  -0.842  0.00  0.00    -0.268 OA
ATOM     24  N   UNL d   1     -12.596  -3.614   0.630  0.00  0.00    -0.351 N 
ATOM     25  H   UNL d   1     -11.921  -4.089   1.208  0.00  0.00     0.163 HD
BRANCH  24  26
ATOM     26  C   UNL d   1     -13.941  -4.157   0.610  0.00  0.00     0.187 C 
BRANCH  26  27
ATOM     27  C   UNL d   1     -13.985  -5.423   1.394  0.00  0.00     0.070 A 
ATOM     28  C   UNL d   1     -13.780  -6.736   1.023  0.00  0.00     0.036 A 
ATOM     29  C   UNL d   1     -13.943  -7.520   2.186  0.00  0.00     0.027 A 
ATOM     30  C   UNL d   1     -14.259  -6.642   3.196  0.00  0.00     0.142 A 
ATOM     31  O   UNL d   1     -14.283  -5.363   2.728  0.00  0.00    -0.325 OA
ENDBRANCH  26  27
ENDBRANCH  24  26
ENDBRANCH   4  22
TORSDOF 7
