@<TRIPOS>MOLECULE
*****
 30 31 0 0 0
SMALL
GASTEIGER

@<TRIPOS>ATOM
      1 C           2.5029    1.2199   -0.0006 C.3     1  UNL1       -0.0396
      2 C           1.2620    0.3829    0.0041 C.ar    1  UNL1       -0.0469
      3 C           1.3353   -1.0024    0.0212 C.ar    1  UNL1       -0.0569
      4 C           0.1670   -1.7671    0.0028 C.ar    1  UNL1       -0.0366
      5 C          -1.1144   -1.1953   -0.0297 C.ar    1  UNL1        0.0756
      6 N          -2.2880   -2.0179   -0.0638 N.am    1  UNL1       -0.2785
      7 C          -2.2711   -3.4123   -0.1033 C.2     1  UNL1        0.2497
      8 O          -1.2798   -4.1325   -0.2065 O.2     1  UNL1       -0.2698
      9 C          -3.5624   -4.1328   -0.0658 C.ar    1  UNL1        0.0554
     10 C          -4.5770   -3.7836   -0.9681 C.ar    1  UNL1       -0.0468
     11 C          -5.7460   -4.5510   -1.0306 C.ar    1  UNL1       -0.0426
     12 C          -5.8984   -5.6662   -0.2057 C.ar    1  UNL1        0.0424
     13 CL         -7.3428   -6.5968   -0.2830 Cl      1  UNL1       -0.0835
     14 C          -4.8911   -6.0322    0.6805 C.ar    1  UNL1       -0.0243
     15 C          -3.7209   -5.2712    0.7503 C.ar    1  UNL1        0.0544
     16 CL         -2.5347   -5.7921    1.9000 Cl      1  UNL1       -0.0827
     17 C          -1.1733    0.2098   -0.0204 C.ar    1  UNL1        0.1382
     18 O          -2.3262    0.9481   -0.0244 O.3     1  UNL1       -0.5049
     19 C          -0.0006    0.9831   -0.0103 C.ar    1  UNL1       -0.0154
     20 H           3.4081    0.6025    0.0030 H       1  UNL1        0.0278
     21 H           2.5262    1.8585    0.8872 H       1  UNL1        0.0278
     22 H           2.5267    1.8436   -0.8994 H       1  UNL1        0.0278
     23 H           2.2915   -1.5206    0.0457 H       1  UNL1        0.0621
     24 H           0.3266   -2.8375    0.0182 H       1  UNL1        0.0637
     25 H          -3.1869   -1.5614   -0.0474 H       1  UNL1        0.1552
     26 H          -4.4490   -2.9567   -1.6622 H       1  UNL1        0.0626
     27 H          -6.5289   -4.2901   -1.7395 H       1  UNL1        0.0632
     28 H          -5.0099   -6.9093    1.3130 H       1  UNL1        0.0647
     29 H          -3.0946    0.3712    0.0398 H       1  UNL1        0.2922
     30 H          -0.0741    2.0686   -0.0144 H       1  UNL1        0.0657
@<TRIPOS>BOND
     1     1     2    1
     2     2     3   ar
     3     3     4   ar
     4     4     5   ar
     5     5     6    1
     6     6     7   am
     7     7     8    2
     8     7     9    1
     9     9    10   ar
    10    10    11   ar
    11    11    12   ar
    12    12    13    1
    13    12    14   ar
    14    14    15   ar
    15     9    15   ar
    16    15    16    1
    17     5    17   ar
    18    17    18    1
    19    17    19   ar
    20     2    19   ar
    21     1    20    1
    22     1    21    1
    23     1    22    1
    24     3    23    1
    25     4    24    1
    26     6    25    1
    27    10    26    1
    28    11    27    1
    29    14    28    1
    30    18    29    1
    31    19    30    1
