REMARK  10 active torsions:
REMARK  status: ('A' for Active; 'I' for Inactive)
REMARK    1  A    between atoms: C_2  and  C_3 
REMARK       I    between atoms: C_3  and  N_5 
REMARK    2  A    between atoms: N_5  and  C_6 
REMARK    3  A    between atoms: C_9  and  C_10 
REMARK       I    between atoms: C_10  and  N_12 
REMARK    4  A    between atoms: N_12  and  N_13 
REMARK    5  A    between atoms: N_13  and  C_14 
REMARK    6  A    between atoms: C_14  and  N_16 
REMARK       I    between atoms: N_16  and  C_17 
REMARK    7  A    between atoms: C_17  and  C_19 
REMARK    8  A    between atoms: C_23  and  O_24 
REMARK    9  A    between atoms: O_24  and  C_25 
REMARK   10  A    between atoms: C_25  and  C_27 
ROOT
ATOM      1  N   UNL d   1       6.321  -8.115  -4.977  0.00  0.00    -0.273 N 
ATOM      2  H   UNL d   1       7.064  -8.606  -4.483  0.00  0.00     0.189 HD
ENDROOT
BRANCH   1   3
ATOM      3  N   UNL d   1       5.925  -6.846  -4.383  0.00  0.00    -0.264 N 
ATOM      4  C   UNL d   1       6.499  -6.336  -3.226  0.00  0.00     0.270 C 
ATOM      5  O   UNL d   1       7.406  -6.935  -2.636  0.00  0.00    -0.266 OA
ATOM      6  H   UNL d   1       5.157  -6.388  -4.871  0.00  0.00     0.190 HD
BRANCH   4   7
ATOM      7  C   UNL d   1       5.961  -5.020  -2.669  0.00  0.00     0.033 A 
ATOM      8  C   UNL d   1       6.488  -4.505  -1.465  0.00  0.00     0.019 A 
ATOM      9  C   UNL d   1       5.943  -3.357  -0.839  0.00  0.00     0.030 A 
ATOM     10  C   UNL d   1       4.870  -2.679  -1.419  0.00  0.00     0.034 A 
ATOM     11  C   UNL d   1       4.376  -3.153  -2.638  0.00  0.00     0.030 A 
ATOM     12  C   UNL d   1       4.917  -4.298  -3.261  0.00  0.00     0.019 A 
BRANCH  10  13
ATOM     13  N   UNL d   1       4.316  -1.530  -0.792  0.00  0.00    -0.327 N 
ATOM     14  C   UNL d   1       2.943  -1.327  -0.715  0.00  0.00     0.221 C 
ATOM     15  O   UNL d   1       2.113  -2.113  -1.170  0.00  0.00    -0.273 OA
ATOM     16  H   UNL d   1       4.917  -0.985  -0.184  0.00  0.00     0.169 HD
BRANCH  14  17
ATOM     17  C   UNL d   1       2.504  -0.068   0.030  0.00  0.00     0.098 C 
ATOM     18  C   UNL d   1       0.978   0.006   0.081  0.00  0.00     0.014 C 
ENDBRANCH  14  17
ENDBRANCH  10  13
ENDBRANCH   4   7
ENDBRANCH   1   3
BRANCH   1  19
ATOM     19  C   UNL d   1       5.677  -8.529  -6.160  0.00  0.00     0.193 C 
ATOM     20  S   UNL d   1       4.460  -7.558  -6.819  0.00  0.00    -0.039 SA
BRANCH  19  21
ATOM     21  N   UNL d   1       6.123  -9.755  -6.709  0.00  0.00    -0.298 N 
ATOM     22  C   UNL d   1       5.685 -10.330  -7.924  0.00  0.00     0.258 C 
ATOM     23  O   UNL d   1       4.767  -9.889  -8.622  0.00  0.00    -0.267 OA
ATOM     24  H   UNL d   1       6.883 -10.226  -6.237  0.00  0.00     0.171 HD
BRANCH  22  25
ATOM     25  C   UNL d   1       6.298 -11.580  -8.461  0.00  0.00     0.035 A 
ATOM     26  C   UNL d   1       6.415 -11.722  -9.855  0.00  0.00     0.017 A 
ATOM     27  C   UNL d   1       6.728 -12.958 -10.431  0.00  0.00     0.004 A 
ATOM     28  C   UNL d   1       6.930 -14.072  -9.616  0.00  0.00     0.037 A 
ATOM     29  C   UNL d   1       6.787 -13.954  -8.230  0.00  0.00     0.070 A 
ATOM     30  C   UNL d   1       6.522 -12.694  -7.659  0.00  0.00     0.053 A 
BRANCH  29  31
ATOM     31  O   UNL d   1       6.844 -15.137  -7.530  0.00  0.00    -0.346 OA
BRANCH  31  32
ATOM     32  C   UNL d   1       6.534 -15.082  -6.127  0.00  0.00     0.124 C 
ATOM     33  C   UNL d   1       5.063 -14.705  -5.879  0.00  0.00     0.040 C 
BRANCH  32  34
ATOM     34  C   UNL d   1       6.800 -16.468  -5.509  0.00  0.00     0.027 C 
ATOM     35  C   UNL d   1       6.574 -16.463  -4.000  0.00  0.00     0.007 C 
ENDBRANCH  32  34
ENDBRANCH  31  32
ENDBRANCH  29  31
ENDBRANCH  22  25
ENDBRANCH  19  21
ENDBRANCH   1  19
TORSDOF 10
