REMARK  3 active torsions:
REMARK  status: ('A' for Active; 'I' for Inactive)
REMARK    1  A    between atoms: C_4  and  N_5 
REMARK       I    between atoms: N_5  and  C_6 
REMARK    2  A    between atoms: C_6  and  C_8 
REMARK    3  A    between atoms: C_11  and  O_12 
ROOT
ATOM      1  N   UNL d   1      -3.346   1.148  -0.024  0.00  0.00    -0.323 N 
ATOM      2  C   UNL d   1      -3.605   2.516  -0.096  0.00  0.00     0.256 C 
ATOM      3  O   UNL d   1      -2.775   3.425  -0.131  0.00  0.00    -0.267 OA
ATOM      4  H   UNL d   1      -4.127   0.504  -0.064  0.00  0.00     0.169 HD
ENDROOT
BRANCH   2   5
ATOM      5  C   UNL d   1      -5.011   2.975  -0.160  0.00  0.00     0.034 A 
ATOM      6  C   UNL d   1      -5.993   2.479   0.700  0.00  0.00     0.020 A 
ATOM      7  C   UNL d   1      -7.278   3.043   0.685  0.00  0.00     0.039 A 
ATOM      8  C   UNL d   1      -7.574   4.094  -0.189  0.00  0.00     0.087 A 
ATOM      9  C   UNL d   1      -6.589   4.597  -1.042  0.00  0.00     0.068 A 
ATOM     10 CL   UNL d   1      -6.923   5.888  -2.138  0.00  0.00    -0.081 Cl
ATOM     11  C   UNL d   1      -5.308   4.050  -1.017  0.00  0.00     0.043 A 
BRANCH   8  12
ATOM     12  O   UNL d   1      -8.826   4.645  -0.212  0.00  0.00    -0.359 OA
ATOM     13  H   UNL d   1      -9.398   4.216   0.444  0.00  0.00     0.217 HD
ENDBRANCH   8  12
ENDBRANCH   2   5
BRANCH   1  14
ATOM     14  C   UNL d   1      -2.040   0.570  -0.000  0.00  0.00     0.035 A 
ATOM     15  C   UNL d   1      -0.886   1.362   0.009  0.00  0.00     0.039 A 
ATOM     16  C   UNL d   1       0.404   0.822   0.004  0.00  0.00    -0.021 A 
ATOM     17  C   UNL d   1       1.589   1.737   0.012  0.00  0.00     0.051 C 
ATOM     18  C   UNL d   1       0.545  -0.557  -0.002  0.00  0.00     0.122 A 
ATOM     19  C   UNL d   1      -0.577  -1.383   0.003  0.00  0.00     0.045 A 
ATOM     20  F   UNL d   1       1.769  -1.103  -0.006  0.00  0.00    -0.206 F 
ATOM     21  C   UNL d   1      -1.870  -0.824   0.007  0.00  0.00     0.032 A 
ENDBRANCH   1  14
TORSDOF 3
