@<TRIPOS>MOLECULE
*****
 53 56 0 0 0
SMALL
GASTEIGER

@<TRIPOS>ATOM
      1 N           0.9247    0.0375    0.0541 N.1     1  UNL1       -0.1907
      2 C           2.1857    0.0375    0.0541 C.1     1  UNL1        0.1044
      3 C           3.7057    0.0375    0.0541 C.2     1  UNL1        0.1142
      4 C           4.3431   -0.0807    1.2372 C.2     1  UNL1       -0.0301
      5 C           3.6789   -0.2445    2.4903 C.ar    1  UNL1        0.0016
      6 C           4.0077    0.4577    3.6172 C.ar    1  UNL1        0.0133
      7 N           3.0870    0.1638    4.6004 N.ar    1  UNL1       -0.3417
      8 C           3.0350    0.7485    5.9509 C.3     1  UNL1        0.0483
      9 C           4.1207    1.7759    6.1975 C.ar    1  UNL1       -0.0272
     10 C           4.1626    2.9625    5.4442 C.ar    1  UNL1       -0.0568
     11 C           5.2760    3.7972    5.4929 C.ar    1  UNL1       -0.0609
     12 C           6.3773    3.4316    6.2621 C.ar    1  UNL1       -0.0501
     13 C           6.3368    2.2794    7.0627 C.ar    1  UNL1        0.0551
     14 C           7.5608    1.8672    7.8406 C.3     1  UNL1        0.4174
     15 F           8.6251    1.6153    7.0274 F       1  UNL1       -0.1659
     16 F           7.9728    2.8258    8.7129 F       1  UNL1       -0.1659
     17 F           7.3821    0.7359    8.5777 F       1  UNL1       -0.1659
     18 C           5.1758    1.4915    7.0737 C.ar    1  UNL1       -0.0452
     19 C           2.1981   -0.7909    4.1233 C.ar    1  UNL1        0.0499
     20 C           1.0905   -1.4277    4.7099 C.ar    1  UNL1       -0.0376
     21 C           0.3640   -2.3466    3.9354 C.ar    1  UNL1       -0.0598
     22 C           0.7348   -2.6493    2.6341 C.ar    1  UNL1       -0.0611
     23 C           1.8657   -2.0621    2.0881 C.ar    1  UNL1       -0.0520
     24 C           2.5862   -1.0903    2.8138 C.ar    1  UNL1        0.0070
     25 C           4.4165    0.2261   -1.2605 C.2     1  UNL1        0.2587
     26 O           3.7398    0.2922   -2.2926 O.2     1  UNL1       -0.2691
     27 N           5.8123    0.2400   -1.2693 N.am    1  UNL1       -0.2756
     28 C           6.5737    0.2836   -2.4823 C.ar    1  UNL1        0.1118
     29 C           6.1734    1.1574   -3.5032 C.ar    1  UNL1       -0.0338
     30 C           6.7699    1.1210   -4.7675 C.ar    1  UNL1       -0.0596
     31 C           7.8586    0.2906   -5.0055 C.ar    1  UNL1       -0.0552
     32 C           8.3711   -0.4861   -3.9674 C.ar    1  UNL1        0.0175
     33 C           7.7101   -0.5215   -2.7192 C.ar    1  UNL1        0.2941
     34 N           8.1732   -1.5155   -1.7389 N.pl3   1  UNL1        0.0815
     35 O           9.1237   -2.2417   -2.0480 O.2     1  UNL1        0.0415
     36 O           7.5788   -1.5728   -0.6455 O.co2   1  UNL1       -0.5760
     37 H           5.4230   -0.0169    1.3050 H       1  UNL1        0.0638
     38 H           4.8012    1.1766    3.7649 H       1  UNL1        0.0815
     39 H           3.1323   -0.0946    6.6462 H       1  UNL1        0.0541
     40 H           2.0479    1.2035    6.0847 H       1  UNL1        0.0541
     41 H           3.3696    3.1830    4.7297 H       1  UNL1        0.0621
     42 H           5.3037    4.7013    4.8898 H       1  UNL1        0.0618
     43 H           7.2801    4.0398    6.2272 H       1  UNL1        0.0623
     44 H           5.1239    0.6189    7.7249 H       1  UNL1        0.0626
     45 H           0.7829   -1.2183    5.7281 H       1  UNL1        0.0638
     46 H          -0.5084   -2.8403    4.3540 H       1  UNL1        0.0618
     47 H           0.1515   -3.3315    2.0220 H       1  UNL1        0.0618
     48 H           2.1393   -2.3128    1.0672 H       1  UNL1        0.0624
     49 H           6.3027   -0.1651   -0.4746 H       1  UNL1        0.1553
     50 H           5.3767    1.8781   -3.3298 H       1  UNL1        0.0638
     51 H           6.3706    1.7404   -5.5682 H       1  UNL1        0.0618
     52 H           8.3030    0.2476   -5.9982 H       1  UNL1        0.0620
     53 H           9.2608   -1.0840   -4.1608 H       1  UNL1        0.0686
@<TRIPOS>UNITY_ATOM_ATTR
34 1
charge 1
36 1
charge -1
@<TRIPOS>BOND
     1     1     2    3
     2     2     3    1
     3     3     4    2
     4     4     5    1
     5     5     6   ar
     6     6     7   ar
     7     7     8    1
     8     8     9    1
     9     9    10   ar
    10    10    11   ar
    11    11    12   ar
    12    12    13   ar
    13    13    14    1
    14    14    15    1
    15    14    16    1
    16    14    17    1
    17    13    18   ar
    18     9    18   ar
    19     7    19   ar
    20    19    20   ar
    21    20    21   ar
    22    21    22   ar
    23    22    23   ar
    24    23    24   ar
    25     5    24   ar
    26    19    24   ar
    27     3    25    1
    28    25    26    2
    29    25    27   am
    30    27    28    1
    31    28    29   ar
    32    29    30   ar
    33    30    31   ar
    34    31    32   ar
    35    32    33   ar
    36    28    33   ar
    37    33    34    1
    38    34    35    2
    39    34    36    1
    40     4    37    1
    41     6    38    1
    42     8    39    1
    43     8    40    1
    44    10    41    1
    45    11    42    1
    46    12    43    1
    47    18    44    1
    48    20    45    1
    49    21    46    1
    50    22    47    1
    51    23    48    1
    52    27    49    1
    53    29    50    1
    54    30    51    1
    55    31    52    1
    56    32    53    1
