@<TRIPOS>MOLECULE
*****
 26 26 0 0 0
SMALL
GASTEIGER

@<TRIPOS>ATOM
      1 C           1.1055   -0.0730    0.0609 C.2     1  UNL1       -0.1004
      2 C           2.4476   -0.0979    0.1043 C.2     1  UNL1       -0.0635
      3 C           3.2195   -0.7425    1.2245 C.3     1  UNL1        0.0913
      4 O           4.6294   -0.6172    1.0069 O.3     1  UNL1       -0.2746
      5 N           5.3670   -1.2165    2.0736 N.am    1  UNL1       -0.1778
      6 C           6.7422   -1.1327    1.9683 C.2     1  UNL1        0.3268
      7 O           7.3000   -0.5849    1.0147 O.2     1  UNL1       -0.2504
      8 N           7.4316   -1.7454    3.0192 N.am    1  UNL1       -0.2679
      9 C           8.8545   -1.7769    3.0667 C.ar    1  UNL1        0.0349
     10 C           9.5999   -0.6374    2.7430 C.ar    1  UNL1       -0.0391
     11 C          10.9984   -0.6590    2.7527 C.ar    1  UNL1       -0.0416
     12 C          11.6687   -1.8332    3.0727 C.ar    1  UNL1        0.0411
     13 CL         13.3894   -1.8712    3.0299 Cl      1  UNL1       -0.0835
     14 C          10.9470   -2.9739    3.4229 C.ar    1  UNL1       -0.0416
     15 C           9.5395   -2.9407    3.4451 C.ar    1  UNL1       -0.0391
     16 H           0.5726    0.4001   -0.7602 H       1  UNL1        0.0532
     17 H           0.5019   -0.5236    0.8435 H       1  UNL1        0.0532
     18 H           3.0089    0.3676   -0.7038 H       1  UNL1        0.0590
     19 H           2.9628   -1.8061    1.2698 H       1  UNL1        0.0628
     20 H           2.9618   -0.2483    2.1669 H       1  UNL1        0.0628
     21 H           4.8653   -1.6494    2.8336 H       1  UNL1        0.1841
     22 H           6.9355   -2.4216    3.5802 H       1  UNL1        0.1564
     23 H           9.0960    0.2931    2.4941 H       1  UNL1        0.0636
     24 H          11.5483    0.2429    2.4989 H       1  UNL1        0.0633
     25 H          11.4786   -3.8929    3.6619 H       1  UNL1        0.0633
     26 H           9.0089   -3.8564    3.6912 H       1  UNL1        0.0636
@<TRIPOS>BOND
     1     1     2    2
     2     2     3    1
     3     3     4    1
     4     4     5    1
     5     5     6   am
     6     6     7    2
     7     6     8   am
     8     8     9    1
     9     9    10   ar
    10    10    11   ar
    11    11    12   ar
    12    12    13    1
    13    12    14   ar
    14    14    15   ar
    15     9    15   ar
    16     1    16    1
    17     1    17    1
    18     2    18    1
    19     3    19    1
    20     3    20    1
    21     5    21    1
    22     8    22    1
    23    10    23    1
    24    11    24    1
    25    14    25    1
    26    15    26    1
