@<TRIPOS>MOLECULE
*****
 43 44 0 0 0
SMALL
GASTEIGER

@<TRIPOS>ATOM
      1 C           0.3538   -2.3735   -0.0067 C.3     1  UNL1       -0.0385
      2 C           1.0382   -1.0371    0.0011 C.ar    1  UNL1       -0.0330
      3 C           2.4480   -1.0065   -0.0011 C.ar    1  UNL1       -0.0160
      4 C           3.1506    0.1936   -0.0004 C.ar    1  UNL1        0.1215
      5 O           4.5177    0.2874    0.0007 O.3     1  UNL1       -0.4828
      6 C           5.3412   -0.9133    0.0168 C.3     1  UNL1        0.1655
      7 C           6.8439   -0.4904    0.0288 C.2     1  UNL1        0.2561
      8 O           7.0954    0.7168    0.0291 O.2     1  UNL1       -0.2717
      9 N           7.8669   -1.4839    0.0387 N.am    1  UNL1       -0.2639
     10 C           9.2735   -1.2379    0.0485 C.2     1  UNL1        0.1532
     11 S           9.9897    0.2925    0.0526 S.2     1  UNL1       -0.0170
     12 N          10.1124   -2.3714    0.0516 N.am    1  UNL1       -0.2443
     13 N          11.5842   -2.1860    0.0786 N.am    1  UNL1       -0.2187
     14 C          12.4449   -3.2751    0.0755 C.2     1  UNL1        0.3202
     15 O          11.9841   -4.4241    0.0501 O.2     1  UNL1       -0.2509
     16 N          13.8067   -2.9640    0.1419 N.am    1  UNL1       -0.2683
     17 C          14.8444   -3.9493    0.0931 C.ar    1  UNL1        0.0348
     18 C          16.0263   -3.8214    0.8436 C.ar    1  UNL1       -0.0404
     19 C          17.0524   -4.7840    0.7387 C.ar    1  UNL1       -0.0600
     20 C          16.9025   -5.8857   -0.1020 C.ar    1  UNL1       -0.0616
     21 C          15.7448   -6.0080   -0.8620 C.ar    1  UNL1       -0.0600
     22 C          14.7292   -5.0495   -0.7618 C.ar    1  UNL1       -0.0404
     23 C           2.4193    1.3932   -0.0026 C.ar    1  UNL1       -0.0189
     24 C           1.0140    1.3841    0.0029 C.ar    1  UNL1       -0.0441
     25 C           0.3263    0.1706    0.0049 C.ar    1  UNL1        0.0210
     26 BR         -1.5741    0.2139    0.0059 Br      1  UNL1       -0.0500
     27 H           1.0841   -3.1897   -0.0042 H       1  UNL1        0.0278
     28 H          -0.2553   -2.4833   -0.9088 H       1  UNL1        0.0278
     29 H          -0.2686   -2.4903    0.8854 H       1  UNL1        0.0278
     30 H           2.9819   -1.9484   -0.0065 H       1  UNL1        0.0657
     31 H           5.1374   -1.4953   -0.8876 H       1  UNL1        0.0795
     32 H           5.1203   -1.4848    0.9241 H       1  UNL1        0.0795
     33 H           7.5671   -2.4501    0.0394 H       1  UNL1        0.1566
     34 H           9.8265   -3.3504    0.0618 H       1  UNL1        0.1718
     35 H          11.8992   -1.2177    0.0610 H       1  UNL1        0.1744
     36 H          14.0931   -2.0213    0.3750 H       1  UNL1        0.1564
     37 H          16.1559   -3.0237    1.5710 H       1  UNL1        0.0636
     38 H          17.9713   -4.6848    1.3155 H       1  UNL1        0.0618
     39 H          17.6778   -6.6470   -0.1656 H       1  UNL1        0.0618
     40 H          15.6262   -6.8447   -1.5454 H       1  UNL1        0.0618
     41 H          13.8550   -5.1568   -1.3961 H       1  UNL1        0.0636
     42 H           2.9322    2.3539   -0.0098 H       1  UNL1        0.0654
     43 H           0.4640    2.3244    0.0040 H       1  UNL1        0.0630
@<TRIPOS>BOND
     1     1     2    1
     2     2     3   ar
     3     3     4   ar
     4     4     5    1
     5     5     6    1
     6     6     7    1
     7     7     8    2
     8     7     9   am
     9     9    10    1
    10    10    11    2
    11    10    12    1
    12    12    13    1
    13    13    14   am
    14    14    15    2
    15    14    16   am
    16    16    17    1
    17    17    18   ar
    18    18    19   ar
    19    19    20   ar
    20    20    21   ar
    21    21    22   ar
    22    17    22   ar
    23     4    23   ar
    24    23    24   ar
    25    24    25   ar
    26     2    25   ar
    27    25    26    1
    28     1    27    1
    29     1    28    1
    30     1    29    1
    31     3    30    1
    32     6    31    1
    33     6    32    1
    34     9    33    1
    35    12    34    1
    36    13    35    1
    37    16    36    1
    38    18    37    1
    39    19    38    1
    40    20    39    1
    41    21    40    1
    42    22    41    1
    43    23    42    1
    44    24    43    1
