REMARK  11 active torsions:
REMARK  status: ('A' for Active; 'I' for Inactive)
REMARK    1  A    between atoms: C_5  and  C_6 
REMARK    2  A    between atoms: C_9  and  O_10 
REMARK    3  A    between atoms: O_10  and  C_11 
REMARK    4  A    between atoms: C_11  and  C_12 
REMARK    5  A    between atoms: C_12  and  O_13 
REMARK    6  A    between atoms: O_13  and  C_14 
REMARK    7  A    between atoms: C_19  and  C_20 
REMARK    8  A    between atoms: N_21  and  N_22 
REMARK    9  A    between atoms: N_22  and  C_23 
REMARK   10  A    between atoms: C_25  and  N_26 
REMARK   11  A    between atoms: C_32  and  N_33 
ROOT
ATOM      1  C   UNL d   1      -2.123   7.175   0.144  0.00  0.00     0.080 A 
ATOM      2  C   UNL d   1      -1.679   8.207  -0.709  0.00  0.00     0.037 A 
ATOM      3  C   UNL d   1      -2.322   9.447  -0.737  0.00  0.00     0.003 A 
ATOM      4  C   UNL d   1      -3.417   9.669   0.089  0.00  0.00     0.001 A 
ATOM      5  C   UNL d   1      -3.858   8.659   0.949  0.00  0.00     0.016 A 
ATOM      6  C   UNL d   1      -3.213   7.412   1.003  0.00  0.00     0.016 A 
ENDROOT
BRANCH   6   7
ATOM      7  C   UNL d   1      -3.676   6.451   2.045  0.00  0.00     0.153 C 
ATOM      8  N   UNL d   1      -4.837   6.560   2.630  0.00  0.00    -0.171 NA
BRANCH   8   9
ATOM      9  N   UNL d   1      -5.143   5.590   3.551  0.00  0.00    -0.105 N 
ATOM     10  H   UNL d   1      -4.481   4.899   3.876  0.00  0.00     0.208 HD
BRANCH   9  11
ATOM     11  C   UNL d   1      -6.241   5.773   4.431  0.00  0.00     0.774 A 
ATOM     12  N   UNL d   1      -7.371   6.278   3.942  0.00  0.00     0.133 NA
ATOM     13  C   UNL d   1      -8.385   6.415   4.791  0.00  0.00     0.756 A 
ATOM     14  N   UNL d   1      -8.301   6.065   6.080  0.00  0.00     0.131 NA
ATOM     15  C   UNL d   1      -7.147   5.556   6.505  0.00  0.00     0.756 A 
ATOM     16  N   UNL d   1      -6.091   5.376   5.704  0.00  0.00     0.133 NA
BRANCH  13  17
ATOM     17  N   UNL d   1      -9.575   6.904   4.327  0.00  0.00    -0.213 N 
ATOM     18  C   UNL d   1     -10.222   6.450   3.114  0.00  0.00     0.141 C 
ATOM     19  C   UNL d   1     -10.761   7.731   2.487  0.00  0.00     0.022 C 
ATOM     20  C   UNL d   1     -11.132   8.577   3.700  0.00  0.00     0.022 C 
ATOM     21  C   UNL d   1     -10.133   8.159   4.798  0.00  0.00     0.141 C 
ENDBRANCH  13  17
BRANCH  15  22
ATOM     22  N   UNL d   1      -7.041   5.212   7.831  0.00  0.00    -0.213 N 
ATOM     23  C   UNL d   1      -6.069   5.769   8.744  0.00  0.00     0.141 C 
ATOM     24  C   UNL d   1      -5.730   4.582   9.641  0.00  0.00     0.022 C 
ATOM     25  C   UNL d   1      -7.071   3.866   9.780  0.00  0.00     0.022 C 
ATOM     26  C   UNL d   1      -7.812   4.150   8.454  0.00  0.00     0.141 C 
ENDBRANCH  15  22
ENDBRANCH   9  11
ENDBRANCH   8   9
ENDBRANCH   6   7
BRANCH   1  27
ATOM     27  O   UNL d   1      -1.337   6.053   0.123  0.00  0.00    -0.348 OA
BRANCH  27  28
ATOM     28  C   UNL d   1      -2.013   4.809  -0.070  0.00  0.00     0.202 C 
BRANCH  28  29
ATOM     29  C   UNL d   1      -0.974   3.689  -0.037  0.00  0.00     0.202 C 
BRANCH  29  30
ATOM     30  O   UNL d   1      -1.680   2.458  -0.031  0.00  0.00    -0.348 OA
BRANCH  30  31
ATOM     31  C   UNL d   1      -1.017   1.270  -0.010  0.00  0.00     0.076 A 
ATOM     32  C   UNL d   1      -1.788   0.086  -0.010  0.00  0.00    -0.021 A 
ATOM     33  C   UNL d   1      -1.101  -1.148  -0.018  0.00  0.00     0.011 A 
ATOM     34  C   UNL d   1       0.294  -1.204  -0.006  0.00  0.00     0.007 A 
ATOM     35  C   UNL d   1       1.038  -0.026   0.001  0.00  0.00    -0.059 A 
ATOM     36  C   UNL d   1       2.534  -0.031  -0.012  0.00  0.00     0.048 C 
ATOM     37  C   UNL d   1       0.375   1.202   0.001  0.00  0.00     0.044 A 
BRANCH  32  38
ATOM     38  C   UNL d   1      -3.322   0.048  -0.019  0.00  0.00     0.013 C 
ATOM     39  C   UNL d   1      -3.866  -0.708   1.202  0.00  0.00     0.015 C 
ATOM     40  C   UNL d   1      -4.027   1.408  -0.073  0.00  0.00     0.015 C 
ENDBRANCH  32  38
ENDBRANCH  30  31
ENDBRANCH  29  30
ENDBRANCH  28  29
ENDBRANCH  27  28
ENDBRANCH   1  27
TORSDOF 11
