@<TRIPOS>MOLECULE
*****
 48 49 0 0 0
SMALL
GASTEIGER

@<TRIPOS>ATOM
      1 C           1.0541   -0.1260    0.1999 C.3     1  UNL1        0.0789
      2 O           2.4835   -0.2285    0.2222 O.3     1  UNL1       -0.4933
      3 C           3.1337    0.7639    0.9265 C.ar    1  UNL1        0.1408
      4 C           2.7009    1.0418    2.2266 C.ar    1  UNL1       -0.0179
      5 C           3.4005    1.9234    3.0379 C.ar    1  UNL1       -0.0553
      6 C           4.5520    2.5499    2.5661 C.ar    1  UNL1       -0.0485
      7 C           5.3047    3.4714    3.4851 C.3     1  UNL1       -0.0396
      8 C           4.9778    2.2943    1.2434 C.ar    1  UNL1       -0.0343
      9 C           4.2850    1.3984    0.3867 C.ar    1  UNL1        0.0702
     10 N           4.7459    1.2355   -0.9215 N.pl3   1  UNL1       -0.3303
     11 C           4.0907    0.4234   -1.9746 C.3     1  UNL1        0.0949
     12 C           2.7407    1.0428   -2.3180 C.3     1  UNL1       -0.0381
     13 C           4.9381    0.4068   -3.2857 C.2     1  UNL1        0.2404
     14 O           5.9776    1.0720   -3.3310 O.2     1  UNL1       -0.2733
     15 N           4.4510   -0.3618   -4.3559 N.am    1  UNL1       -0.2387
     16 C           5.0865   -0.3986   -5.5819 C.2     1  UNL1        0.3062
     17 O           6.1219    0.2197   -5.8371 O.2     1  UNL1       -0.2524
     18 N           4.5086   -1.1922   -6.5503 N.am    1  UNL1       -0.2950
     19 C           5.1468   -1.3358   -7.8742 C.3     1  UNL1        0.0383
     20 C           5.3523   -2.7726   -8.3199 C.ar    1  UNL1       -0.0303
     21 C           6.0107   -3.0611   -9.5334 C.ar    1  UNL1       -0.0571
     22 C           6.2064   -4.3866   -9.9465 C.ar    1  UNL1       -0.0615
     23 C           5.7439   -5.4385   -9.1594 C.ar    1  UNL1       -0.0617
     24 C           5.0971   -5.1680   -7.9589 C.ar    1  UNL1       -0.0615
     25 C           4.9075   -3.8502   -7.5448 C.ar    1  UNL1       -0.0571
     26 H           0.6956   -0.8549   -0.5343 H       1  UNL1        0.0660
     27 H           0.7081    0.8628   -0.1262 H       1  UNL1        0.0660
     28 H           0.6038   -0.3710    1.1625 H       1  UNL1        0.0660
     29 H           1.8340    0.5421    2.6405 H       1  UNL1        0.0655
     30 H           3.0481    2.0906    4.0522 H       1  UNL1        0.0621
     31 H           4.8300    3.5125    4.4745 H       1  UNL1        0.0278
     32 H           5.3163    4.4900    3.0879 H       1  UNL1        0.0278
     33 H           6.3295    3.1187    3.6357 H       1  UNL1        0.0278
     34 H           5.8735    2.8022    0.8844 H       1  UNL1        0.0640
     35 H           5.6030    1.7064   -1.2145 H       1  UNL1        0.1469
     36 H           4.0309   -0.6119   -1.6196 H       1  UNL1        0.0591
     37 H           2.8529    1.9952   -2.8393 H       1  UNL1        0.0252
     38 H           2.1637    1.3146   -1.4433 H       1  UNL1        0.0252
     39 H           2.1335    0.3562   -2.9123 H       1  UNL1        0.0252
     40 H           3.6099   -0.9045   -4.2311 H       1  UNL1        0.1591
     41 H           3.6128   -1.6365   -6.4225 H       1  UNL1        0.1506
     42 H           6.1205   -0.8325   -7.8829 H       1  UNL1        0.0512
     43 H           4.5034   -0.8292   -8.6046 H       1  UNL1        0.0512
     44 H           6.3904   -2.2615  -10.1690 H       1  UNL1        0.0621
     45 H           6.7238   -4.6034  -10.8791 H       1  UNL1        0.0618
     46 H           5.8916   -6.4683   -9.4732 H       1  UNL1        0.0618
     47 H           4.7428   -5.9801   -7.3310 H       1  UNL1        0.0618
     48 H           4.4170   -3.6832   -6.5929 H       1  UNL1        0.0621
@<TRIPOS>BOND
     1     1     2    1
     2     2     3    1
     3     3     4   ar
     4     4     5   ar
     5     5     6   ar
     6     6     7    1
     7     6     8   ar
     8     8     9   ar
     9     3     9   ar
    10     9    10    1
    11    10    11    1
    12    11    12    1
    13    11    13    1
    14    13    14    2
    15    13    15   am
    16    15    16   am
    17    16    17    2
    18    16    18   am
    19    18    19    1
    20    19    20    1
    21    20    21   ar
    22    21    22   ar
    23    22    23   ar
    24    23    24   ar
    25    24    25   ar
    26    20    25   ar
    27     1    26    1
    28     1    27    1
    29     1    28    1
    30     4    29    1
    31     5    30    1
    32     7    31    1
    33     7    32    1
    34     7    33    1
    35     8    34    1
    36    10    35    1
    37    11    36    1
    38    12    37    1
    39    12    38    1
    40    12    39    1
    41    15    40    1
    42    18    41    1
    43    19    42    1
    44    19    43    1
    45    21    44    1
    46    22    45    1
    47    23    46    1
    48    24    47    1
    49    25    48    1
