REMARK  14 active torsions:
REMARK  status: ('A' for Active; 'I' for Inactive)
REMARK    1  A    between atoms: C_2  and  C_3 
REMARK    2  A    between atoms: C_3  and  N_4 
REMARK       I    between atoms: N_4  and  C_5 
REMARK    3  A    between atoms: N_4  and  C_17 
REMARK    4  A    between atoms: C_5  and  C_7 
REMARK    5  A    between atoms: C_7  and  N_8 
REMARK       I    between atoms: N_8  and  C_9 
REMARK    6  A    between atoms: C_9  and  C_11 
REMARK    7  A    between atoms: C_17  and  C_18 
REMARK    8  A    between atoms: C_17  and  C_29 
REMARK       I    between atoms: C_18  and  N_20 
REMARK    9  A    between atoms: N_20  and  C_21 
REMARK   10  A    between atoms: C_21  and  C_24 
REMARK   11  A    between atoms: C_24  and  C_25 
REMARK   12  A    between atoms: C_30  and  O_31 
REMARK   13  A    between atoms: C_33  and  O_34 
REMARK   14  A    between atoms: C_36  and  O_37 
ROOT
ATOM      1  C   UNL d   1       5.261   2.137   1.309  0.00  0.00     0.218 C 
ENDROOT
BRANCH   1   2
ATOM      2  N   UNL d   1       4.526   1.048   0.561  0.00  0.00    -0.333 N 
ATOM      3  C   UNL d   1       5.189   0.385  -0.521  0.00  0.00     0.238 C 
ATOM      4  O   UNL d   1       6.232   0.773  -1.049  0.00  0.00    -0.272 OA
BRANCH   2   5
ATOM      5  C   UNL d   1       3.047   1.149   0.629  0.00  0.00     0.127 C 
BRANCH   5   6
ATOM      6  C   UNL d   1       2.279   0.079  -0.092  0.00  0.00     0.015 C 
ATOM      7  C   UNL d   1       0.787   0.110  -0.043  0.00  0.00     0.006 C 
ENDBRANCH   5   6
ENDBRANCH   2   5
BRANCH   3   8
ATOM      8  C   UNL d   1       4.646  -0.985  -0.941  0.00  0.00     0.225 C 
BRANCH   8   9
ATOM      9  N   UNL d   1       5.569  -1.950  -1.454  0.00  0.00    -0.348 N 
ATOM     10  C   UNL d   1       5.017  -2.999  -2.163  0.00  0.00     0.252 C 
ATOM     11  O   UNL d   1       3.820  -3.168  -2.310  0.00  0.00    -0.268 OA
ATOM     12  H   UNL d   1       6.560  -1.764  -1.387  0.00  0.00     0.163 HD
BRANCH  10  13
ATOM     13  C   UNL d   1       5.970  -3.926  -2.786  0.00  0.00     0.032 A 
ATOM     14  C   UNL d   1       5.697  -4.373  -4.082  0.00  0.00     0.017 A 
ATOM     15  C   UNL d   1       6.508  -5.349  -4.651  0.00  0.00     0.001 A 
ATOM     16  C   UNL d   1       7.616  -5.824  -3.950  0.00  0.00     0.000 A 
ATOM     17  C   UNL d   1       7.892  -5.362  -2.661  0.00  0.00     0.001 A 
ATOM     18  C   UNL d   1       7.061  -4.414  -2.068  0.00  0.00     0.017 A 
ENDBRANCH  10  13
ENDBRANCH   8   9
ENDBRANCH   3   8
ENDBRANCH   1   2
BRANCH   1  19
ATOM     19  C   UNL d   1       4.912   2.216   2.830  0.00  0.00     0.246 C 
ATOM     20  O   UNL d   1       5.809   2.058   3.667  0.00  0.00    -0.271 OA
ATOM     21  N   UNL d   1       3.604   2.464   3.242  0.00  0.00    -0.351 N 
ATOM     22  H   UNL d   1       2.905   2.810   2.599  0.00  0.00     0.163 HD
BRANCH  21  23
ATOM     23  C   UNL d   1       3.292   2.415   4.688  0.00  0.00     0.026 C 
ATOM     24  C   UNL d   1       3.705   1.012   5.184  0.00  0.00     0.038 C 
ATOM     25  C   UNL d   1       4.115   3.535   5.347  0.00  0.00     0.038 C 
BRANCH  23  26
ATOM     26  C   UNL d   1       1.747   2.636   4.950  0.00  0.00     0.038 C 
BRANCH  26  27
ATOM     27  C   UNL d   1       1.220   2.627   6.441  0.00  0.00    -0.049 C 
ATOM     28  C   UNL d   1       1.430   1.278   7.148  0.00  0.00     0.014 C 
ATOM     29  C   UNL d   1       1.825   3.750   7.297  0.00  0.00     0.014 C 
ATOM     30  C   UNL d   1      -0.301   2.868   6.467  0.00  0.00     0.014 C 
ENDBRANCH  26  27
ENDBRANCH  23  26
ENDBRANCH  21  23
ENDBRANCH   1  19
BRANCH   1  31
ATOM     31  C   UNL d   1       6.779   1.964   1.296  0.00  0.00     0.040 C 
ATOM     32  C   UNL d   1       7.392   0.705   1.488  0.00  0.00     0.080 C 
ATOM     33  C   UNL d   1       8.765   0.559   1.418  0.00  0.00     0.073 C 
ATOM     34  C   UNL d   1       9.551   1.689   1.251  0.00  0.00     0.071 C 
ATOM     35  C   UNL d   1       8.991   2.962   1.207  0.00  0.00     0.073 C 
ATOM     36  C   UNL d   1       7.605   3.096   1.217  0.00  0.00     0.080 C 
BRANCH  32  37
ATOM     37  O   UNL d   1       6.705  -0.465   1.702  0.00  0.00    -0.360 OA
ATOM     38  H   UNL d   1       5.754  -0.284   1.639  0.00  0.00     0.217 HD
ENDBRANCH  32  37
BRANCH  34  39
ATOM     39  O   UNL d   1      10.904   1.572   1.126  0.00  0.00    -0.361 OA
ATOM     40  H   UNL d   1      11.108   0.624   1.054  0.00  0.00     0.217 HD
ENDBRANCH  34  39
BRANCH  36  41
ATOM     41  O   UNL d   1       7.028   4.338   1.171  0.00  0.00    -0.360 OA
ATOM     42  H   UNL d   1       7.734   5.008   1.155  0.00  0.00     0.217 HD
ENDBRANCH  36  41
ENDBRANCH   1  31
TORSDOF 14
