REMARK  9 active torsions:
REMARK  status: ('A' for Active; 'I' for Inactive)
REMARK    1  A    between atoms: C_2  and  O_3 
REMARK    2  A    between atoms: O_3  and  C_4 
REMARK    3  A    between atoms: C_4  and  C_6 
REMARK    4  A    between atoms: C_9  and  N_10 
REMARK    5  A    between atoms: N_13  and  C_14 
REMARK    6  A    between atoms: C_18  and  N_19 
REMARK    7  A    between atoms: N_19  and  C_20 
REMARK    8  A    between atoms: C_20  and  N_22 
REMARK       I    between atoms: N_22  and  C_23 
REMARK    9  A    between atoms: C_23  and  C_25 
ROOT
ATOM      1  C   UNL d   1       5.078  -2.717   1.168  0.00  0.00     0.041 A 
ATOM      2  C   UNL d   1       6.220  -2.846   1.923  0.00  0.00     0.020 A 
ATOM      3  C   UNL d   1       6.765  -4.134   2.154  0.00  0.00     0.033 A 
ATOM      4  C   UNL d   1       6.180  -5.351   1.673  0.00  0.00     0.057 A 
ATOM      5  C   UNL d   1       5.005  -5.207   0.867  0.00  0.00     0.062 A 
ATOM      6  C   UNL d   1       4.512  -3.892   0.707  0.00  0.00     0.049 A 
ENDROOT
BRANCH   5   7
ATOM      7  N   UNL d   1       4.299  -6.325   0.223  0.00  0.00    -0.331 N 
ATOM      8  H   UNL d   1       4.733  -7.214   0.386  0.00  0.00     0.168 HD
BRANCH   7   9
ATOM      9  C   UNL d   1       3.156  -6.271  -0.641  0.00  0.00     0.179 C 
ATOM     10  S   UNL d   1       2.301  -4.895  -1.110  0.00  0.00    -0.040 SA
BRANCH   9  11
ATOM     11  N   UNL d   1       2.716  -7.518  -1.133  0.00  0.00    -0.299 N 
ATOM     12  C   UNL d   1       1.611  -7.650  -2.009  0.00  0.00     0.257 C 
ATOM     13  O   UNL d   1       0.864  -6.770  -2.428  0.00  0.00    -0.267 OA
ATOM     14  H   UNL d   1       3.225  -8.360  -0.916  0.00  0.00     0.171 HD
BRANCH  12  15
ATOM     15  C   UNL d   1       1.190  -8.960  -2.485  0.00  0.00     0.033 A 
ATOM     16  C   UNL d   1       0.689  -9.050  -3.799  0.00  0.00     0.017 A 
ATOM     17  C   UNL d   1       0.028 -10.200  -4.209  0.00  0.00     0.002 A 
ATOM     18  C   UNL d   1      -0.083 -11.272  -3.324  0.00  0.00     0.019 A 
ATOM     19  C   UNL d   1       0.391 -11.154  -2.014  0.00  0.00     0.011 A 
ATOM     20 BR   UNL d   1       0.148 -12.564  -0.783  0.00  0.00    -0.051 Br
ATOM     21  C   UNL d   1       1.012  -9.991  -1.576  0.00  0.00     0.036 A 
ENDBRANCH  12  15
ENDBRANCH   9  11
ENDBRANCH   7   9
ENDBRANCH   5   7
BRANCH   4  22
ATOM     22  N   UNL d   1       6.754  -6.564   2.055  0.00  0.00    -0.376 N 
ATOM     23  C   UNL d   1       7.227  -7.578   1.113  0.00  0.00     0.150 C 
ATOM     24  C   UNL d   1       6.552  -8.928   1.479  0.00  0.00     0.254 C 
ATOM     25  N   UNL d   1       6.793  -9.331   2.958  0.00  0.00    -0.068 N 
ATOM     26  C   UNL d   1       6.510  -8.138   3.920  0.00  0.00     0.254 C 
ATOM     27  H   UNL d   1       7.789  -9.571   3.047  0.00  0.00     0.280 HD
ATOM     28  C   UNL d   1       7.199  -6.831   3.439  0.00  0.00     0.150 C 
BRANCH  25  29
ATOM     29  C   UNL d   1       5.994 -10.581   3.317  0.00  0.00     0.230 C 
ATOM     30  C   UNL d   1       6.355 -11.117   4.694  0.00  0.00     0.034 C 
ENDBRANCH  25  29
ENDBRANCH   4  22
BRANCH   1  31
ATOM     31  C   UNL d   1       4.556  -1.407   0.652  0.00  0.00     0.293 C 
ATOM     32  O   UNL d   1       5.334  -0.510   0.325  0.00  0.00    -0.259 OA
BRANCH  31  33
ATOM     33  O   UNL d   1       3.195  -1.340   0.547  0.00  0.00    -0.318 OA
BRANCH  33  34
ATOM     34  C   UNL d   1       2.686  -0.086   0.025  0.00  0.00     0.174 C 
ATOM     35  C   UNL d   1       1.160  -0.062   0.008  0.00  0.00     0.034 C 
ENDBRANCH  33  34
ENDBRANCH  31  33
ENDBRANCH   1  31
TORSDOF 9
