@<TRIPOS>MOLECULE
*****
 49 49 0 0 0
SMALL
GASTEIGER

@<TRIPOS>ATOM
      1 C           1.0805    0.0245    0.5715 C.3     1  UNL1        0.0790
      2 O           2.4668    0.0223    0.2227 O.3     1  UNL1       -0.4913
      3 C           2.9671   -0.8942   -0.6828 C.ar    1  UNL1        0.1659
      4 C           4.1030   -1.6046   -0.2029 C.ar    1  UNL1       -0.0039
      5 C           4.9243   -2.4000   -1.0412 C.ar    1  UNL1        0.0453
      6 C           6.2490   -2.9417   -0.5216 C.2     1  UNL1        0.2604
      7 O           6.5904   -2.7195    0.6482 O.2     1  UNL1       -0.2687
      8 N           7.0705   -3.6384   -1.4005 N.am    1  UNL1       -0.2311
      9 N           8.3582   -4.1395   -1.0091 N.am    1  UNL1       -0.2456
     10 C           9.1293   -4.8555   -1.9242 C.2     1  UNL1        0.1468
     11 S           8.6087   -5.1262   -3.5061 S.2     1  UNL1       -0.0174
     12 N          10.3398   -5.3279   -1.4223 N.am    1  UNL1       -0.3254
     13 C          11.3017   -6.0849   -2.2371 C.3     1  UNL1        0.0109
     14 C          12.6007   -6.4939   -1.5345 C.3     1  UNL1       -0.0351
     15 C          13.5469   -7.2860   -2.4730 C.3     1  UNL1       -0.0453
     16 C          13.9473   -6.4712   -3.7064 C.3     1  UNL1       -0.0626
     17 C          14.8126   -7.7115   -1.7247 C.3     1  UNL1       -0.0626
     18 C           4.5167   -2.5757   -2.3658 C.ar    1  UNL1       -0.0039
     19 C           3.4170   -1.8639   -2.8810 C.ar    1  UNL1        0.1659
     20 O           3.2355   -2.0720   -4.2406 O.3     1  UNL1       -0.4913
     21 C           2.2075   -1.3402   -4.9134 C.3     1  UNL1        0.0790
     22 C           2.6554   -0.9937   -2.0531 C.ar    1  UNL1        0.2035
     23 O           1.7576   -0.2722   -2.7731 O.3     1  UNL1       -0.4885
     24 C           0.7513    0.4780   -2.1827 C.3     1  UNL1        0.0791
     25 H           0.9463    0.4359    1.5743 H       1  UNL1        0.0660
     26 H           0.6088   -0.9585    0.4915 H       1  UNL1        0.0660
     27 H           0.5204    0.7726    0.0103 H       1  UNL1        0.0660
     28 H           4.3741   -1.4947    0.8479 H       1  UNL1        0.0663
     29 H           6.8453   -3.8026   -2.3787 H       1  UNL1        0.1731
     30 H           8.6388   -3.9398   -0.0516 H       1  UNL1        0.1718
     31 H          10.6096   -5.0983   -0.4749 H       1  UNL1        0.1478
     32 H          11.5369   -5.4526   -3.0977 H       1  UNL1        0.0462
     33 H          10.7983   -6.9873   -2.6039 H       1  UNL1        0.0462
     34 H          12.3645   -7.1107   -0.6583 H       1  UNL1        0.0283
     35 H          13.1192   -5.6023   -1.1622 H       1  UNL1        0.0283
     36 H          13.0329   -8.1955   -2.8125 H       1  UNL1        0.0296
     37 H          14.4541   -5.5464   -3.4111 H       1  UNL1        0.0232
     38 H          13.0800   -6.2054   -4.3166 H       1  UNL1        0.0232
     39 H          14.6229   -7.0403   -4.3535 H       1  UNL1        0.0232
     40 H          15.3700   -6.8380   -1.3698 H       1  UNL1        0.0232
     41 H          15.4768   -8.2900   -2.3775 H       1  UNL1        0.0232
     42 H          14.5679   -8.3358   -0.8599 H       1  UNL1        0.0232
     43 H           5.0507   -3.2298   -3.0471 H       1  UNL1        0.0663
     44 H           2.1978   -1.5987   -5.9734 H       1  UNL1        0.0660
     45 H           2.3986   -0.2591   -4.8731 H       1  UNL1        0.0660
     46 H           1.2191   -1.6087   -4.5182 H       1  UNL1        0.0660
     47 H           0.0841    0.9177   -2.9252 H       1  UNL1        0.0660
     48 H           1.2310    1.3112   -1.6673 H       1  UNL1        0.0660
     49 H           0.1224   -0.2064   -1.6097 H       1  UNL1        0.0660
@<TRIPOS>BOND
     1     1     2    1
     2     2     3    1
     3     3     4   ar
     4     4     5   ar
     5     5     6    1
     6     6     7    2
     7     6     8   am
     8     8     9    1
     9     9    10    1
    10    10    11    2
    11    10    12    1
    12    12    13    1
    13    13    14    1
    14    14    15    1
    15    15    16    1
    16    15    17    1
    17     5    18   ar
    18    18    19   ar
    19    19    20    1
    20    20    21    1
    21    19    22   ar
    22     3    22   ar
    23    22    23    1
    24    23    24    1
    25     1    25    1
    26     1    26    1
    27     1    27    1
    28     4    28    1
    29     8    29    1
    30     9    30    1
    31    12    31    1
    32    13    32    1
    33    13    33    1
    34    14    34    1
    35    14    35    1
    36    15    36    1
    37    16    37    1
    38    16    38    1
    39    16    39    1
    40    17    40    1
    41    17    41    1
    42    17    42    1
    43    18    43    1
    44    21    44    1
    45    21    45    1
    46    21    46    1
    47    24    47    1
    48    24    48    1
    49    24    49    1
