@<TRIPOS>MOLECULE
*****
 49 52 0 0 0
SMALL
GASTEIGER

@<TRIPOS>ATOM
      1 C           1.1334   -0.3591   -0.0526 C.3     1  UNL1        0.0790
      2 O           2.5155   -0.0209    0.0960 O.3     1  UNL1       -0.4914
      3 C           3.0288    1.1677   -0.3717 C.ar    1  UNL1        0.1625
      4 C           4.1534    0.9606   -1.1811 C.ar    1  UNL1       -0.0029
      5 C           4.9736    2.0070   -1.6324 C.ar    1  UNL1        0.0507
      6 C           6.0832    1.6832   -2.3962 C.ar    1  UNL1       -0.0324
      7 C           7.0763    2.6406   -2.6338 C.ar    1  UNL1        0.0762
      8 C           8.3944    2.4957   -3.1521 C.ar    1  UNL1        0.0579
      9 N           8.8799    1.2816   -3.4954 N.pl3   1  UNL1       -0.3563
     10 C           9.1092    3.6872   -3.2065 C.ar    1  UNL1        0.1015
     11 C          10.5092    3.8133   -3.6567 C.2     1  UNL1        0.2573
     12 O          11.1336    2.7967   -3.9699 O.2     1  UNL1       -0.2692
     13 N          11.1344    5.0696   -3.6635 N.am    1  UNL1       -0.2745
     14 C          12.4158    5.2056   -4.2241 C.ar    1  UNL1        0.0900
     15 S          13.5573    6.2623   -3.4869 S.2     1  UNL1       -0.0771
     16 C          14.8106    5.8513   -4.6149 C.ar    1  UNL1       -0.0073
     17 C          16.2284    6.3839   -4.5715 C.3     1  UNL1       -0.0331
     18 C          14.3189    4.9952   -5.5857 C.ar    1  UNL1       -0.0213
     19 C          15.0860    4.4992   -6.7649 C.3     1  UNL1       -0.0377
     20 C          12.9552    4.6192   -5.3502 C.ar    1  UNL1        0.0834
     21 C          12.2235    3.7916   -6.2547 C.1     1  UNL1        0.1018
     22 N          11.6255    3.1353   -7.0213 N.1     1  UNL1       -0.1908
     23 S           8.1108    4.9888   -2.6568 S.2     1  UNL1       -0.0133
     24 C           6.7964    3.9461   -2.2830 C.ar    1  UNL1        0.2553
     25 N           5.5982    4.3042   -1.6952 N.ar    1  UNL1       -0.1979
     26 C           4.7237    3.3433   -1.2841 C.ar    1  UNL1        0.2179
     27 C           3.5853    3.5736   -0.4906 C.ar    1  UNL1        0.0556
     28 C           2.7513    2.5018   -0.0071 C.ar    1  UNL1        0.1678
     29 O           1.7961    2.9920    0.8606 O.3     1  UNL1       -0.4912
     30 C           0.8579    2.0541    1.3371 C.3     1  UNL1        0.0790
     31 H           0.9801   -1.4403   -0.0063 H       1  UNL1        0.0660
     32 H           0.6820    0.0611   -0.9559 H       1  UNL1        0.0660
     33 H           0.5702   -0.0912    0.8387 H       1  UNL1        0.0660
     34 H           4.4395   -0.0662   -1.4191 H       1  UNL1        0.0663
     35 H           6.2407    0.6636   -2.7368 H       1  UNL1        0.0634
     36 H           8.3795    0.3978   -3.4323 H       1  UNL1        0.1424
     37 H           9.8343    1.1632   -3.8557 H       1  UNL1        0.1424
     38 H          10.7113    5.8609   -3.2004 H       1  UNL1        0.1557
     39 H          16.4585    7.0293   -3.7216 H       1  UNL1        0.0283
     40 H          16.4496    6.9452   -5.4911 H       1  UNL1        0.0283
     41 H          16.9455    5.5486   -4.5572 H       1  UNL1        0.0283
     42 H          16.1136    4.8668   -6.7833 H       1  UNL1        0.0278
     43 H          14.5892    4.8307   -7.6823 H       1  UNL1        0.0278
     44 H          15.1115    3.4061   -6.7438 H       1  UNL1        0.0278
     45 H           5.4181    5.2948   -1.5381 H       1  UNL1        0.4540
     46 H           3.3191    4.5803   -0.1659 H       1  UNL1        0.0722
     47 H           0.1148    2.4442    2.0350 H       1  UNL1        0.0660
     48 H           1.3924    1.2745    1.8950 H       1  UNL1        0.0660
     49 H           0.2601    1.7456    0.4740 H       1  UNL1        0.0660
@<TRIPOS>UNITY_ATOM_ATTR
25 1
charge 1
@<TRIPOS>BOND
     1     1     2    1
     2     2     3    1
     3     3     4   ar
     4     4     5   ar
     5     5     6   ar
     6     6     7   ar
     7     7     8   ar
     8     8     9    1
     9     8    10   ar
    10    10    11    1
    11    11    12    2
    12    11    13   am
    13    13    14    1
    14    14    15   ar
    15    15    16   ar
    16    16    17    1
    17    16    18   ar
    18    18    19    1
    19    18    20   ar
    20    14    20   ar
    21    20    21    1
    22    21    22    3
    23    10    23   ar
    24    23    24   ar
    25     7    24   ar
    26    24    25   ar
    27    25    26   ar
    28     5    26   ar
    29    26    27   ar
    30    27    28   ar
    31     3    28   ar
    32    28    29    1
    33    29    30    1
    34     1    31    1
    35     1    32    1
    36     1    33    1
    37     4    34    1
    38     6    35    1
    39     9    36    1
    40     9    37    1
    41    13    38    1
    42    17    39    1
    43    17    40    1
    44    17    41    1
    45    19    42    1
    46    19    43    1
    47    19    44    1
    48    25    45    1
    49    27    46    1
    50    30    47    1
    51    30    48    1
    52    30    49    1
