@<TRIPOS>MOLECULE
*****
 35 36 0 0 0
SMALL
GASTEIGER

@<TRIPOS>ATOM
      1 C           1.0735   -0.1181    0.1104 C.3     1  UNL1        0.0125
      2 C           2.5752   -0.0612    0.0114 C.2     1  UNL1        0.2141
      3 O           3.1049    0.4787   -0.9580 O.2     1  UNL1       -0.2758
      4 N           3.2619   -0.6782    1.0472 N.am    1  UNL1       -0.2857
      5 C           4.6730   -0.6496    1.1389 C.ar    1  UNL1        0.0334
      6 C           5.3809   -1.7492    1.6228 C.ar    1  UNL1       -0.0398
      7 C           6.7775   -1.6679    1.7625 C.ar    1  UNL1       -0.0479
      8 C           7.4856   -0.5012    1.4007 C.ar    1  UNL1        0.0372
      9 C           8.9735   -0.4986    1.5280 C.2     1  UNL1        0.2493
     10 O           9.4775   -1.4310    2.1610 O.2     1  UNL1       -0.2698
     11 N           9.7000    0.5339    0.9491 N.am    1  UNL1       -0.2661
     12 C          11.1094    0.5343    0.9138 C.ar    1  UNL1        0.1280
     13 N          11.7181    1.6784    1.3091 N.ar    1  UNL1       -0.2399
     14 C          13.0764    1.6807    1.3331 C.ar    1  UNL1        0.0297
     15 C          13.8629    0.6264    0.9040 C.ar    1  UNL1       -0.0432
     16 C          13.2193   -0.4988    0.4117 C.ar    1  UNL1       -0.0541
     17 C          11.8203   -0.5600    0.4043 C.ar    1  UNL1       -0.0103
     18 C          11.1463   -1.7342   -0.2416 C.3     1  UNL1       -0.0365
     19 C           6.7679    0.5890    0.9192 C.ar    1  UNL1       -0.0479
     20 C           5.3776    0.5086    0.7929 C.ar    1  UNL1       -0.0398
     21 H           0.6547    0.3607   -0.7831 H       1  UNL1        0.0323
     22 H           0.7217    0.4336    0.9852 H       1  UNL1        0.0323
     23 H           0.7212   -1.1514    0.1371 H       1  UNL1        0.0323
     24 H           2.7578   -1.2750    1.6921 H       1  UNL1        0.1548
     25 H           4.8862   -2.6947    1.8348 H       1  UNL1        0.0636
     26 H           7.3191   -2.5305    2.1535 H       1  UNL1        0.0626
     27 H           9.2943    1.4539    0.8686 H       1  UNL1        0.1566
     28 H          13.5422    2.5818    1.7263 H       1  UNL1        0.0830
     29 H          14.9462    0.6788    0.9341 H       1  UNL1        0.0633
     30 H          13.8052   -1.3270    0.0218 H       1  UNL1        0.0622
     31 H          11.8704   -2.4104   -0.7020 H       1  UNL1        0.0279
     32 H          10.4635   -1.3873   -1.0251 H       1  UNL1        0.0279
     33 H          10.5996   -2.3393    0.4786 H       1  UNL1        0.0279
     34 H           7.2448    1.5231    0.6511 H       1  UNL1        0.0626
     35 H           4.8430    1.3899    0.4485 H       1  UNL1        0.0636
@<TRIPOS>BOND
     1     1     2    1
     2     2     3    2
     3     2     4   am
     4     4     5    1
     5     5     6   ar
     6     6     7   ar
     7     7     8   ar
     8     8     9    1
     9     9    10    2
    10     9    11   am
    11    11    12    1
    12    12    13   ar
    13    13    14   ar
    14    14    15   ar
    15    15    16   ar
    16    16    17   ar
    17    12    17   ar
    18    17    18    1
    19     8    19   ar
    20    19    20   ar
    21     5    20   ar
    22     1    21    1
    23     1    22    1
    24     1    23    1
    25     4    24    1
    26     6    25    1
    27     7    26    1
    28    11    27    1
    29    14    28    1
    30    15    29    1
    31    16    30    1
    32    18    31    1
    33    18    32    1
    34    18    33    1
    35    19    34    1
    36    20    35    1
