REMARK  7 active torsions:
REMARK  status: ('A' for Active; 'I' for Inactive)
REMARK    1  A    between atoms: C_6  and  N_7 
REMARK    2  A    between atoms: N_7  and  S_8 
REMARK    3  A    between atoms: S_8  and  C_11 
REMARK    4  A    between atoms: C_14  and  N_15 
REMARK       I    between atoms: N_15  and  C_16 
REMARK    5  A    between atoms: C_16  and  C_18 
REMARK    6  A    between atoms: C_21  and  O_22 
REMARK    7  A    between atoms: O_22  and  C_23 
ROOT
ATOM      1  C   UNL d   1       3.778   4.238  -0.196  0.00  0.00     0.080 A 
ATOM      2  C   UNL d   1       5.093   4.651   0.095  0.00  0.00     0.027 A 
ATOM      3  C   UNL d   1       5.418   6.028   0.171  0.00  0.00     0.031 A 
ATOM      4  C   UNL d   1       4.450   7.002  -0.114  0.00  0.00     0.035 A 
ATOM      5  C   UNL d   1       3.157   6.553  -0.403  0.00  0.00     0.031 A 
ATOM      6  C   UNL d   1       2.818   5.199  -0.457  0.00  0.00     0.027 A 
ENDROOT
BRANCH   4   7
ATOM      7  N   UNL d   1       4.789   8.389  -0.143  0.00  0.00    -0.323 N 
ATOM      8  C   UNL d   1       3.893   9.414  -0.461  0.00  0.00     0.256 C 
ATOM      9  O   UNL d   1       2.702   9.290  -0.733  0.00  0.00    -0.267 OA
ATOM     10  H   UNL d   1       5.751   8.635   0.060  0.00  0.00     0.169 HD
BRANCH   8  11
ATOM     11  C   UNL d   1       4.389  10.806  -0.508  0.00  0.00     0.032 A 
ATOM     12  C   UNL d   1       3.544  11.838  -0.062  0.00  0.00     0.020 A 
ATOM     13  C   UNL d   1       3.869  13.181  -0.297  0.00  0.00     0.038 A 
ATOM     14  C   UNL d   1       5.087  13.509  -0.893  0.00  0.00     0.069 A 
ATOM     15  C   UNL d   1       5.937  12.469  -1.290  0.00  0.00     0.038 A 
ATOM     16  C   UNL d   1       5.577  11.126  -1.149  0.00  0.00     0.020 A 
BRANCH  14  17
ATOM     17  O   UNL d   1       5.338  14.849  -1.055  0.00  0.00    -0.347 OA
BRANCH  17  18
ATOM     18  C   UNL d   1       6.611  15.230  -1.603  0.00  0.00     0.120 C 
ATOM     19  C   UNL d   1       6.689  14.908  -3.098  0.00  0.00     0.040 C 
ATOM     20  C   UNL d   1       6.785  16.746  -1.455  0.00  0.00     0.040 C 
ENDBRANCH  17  18
ENDBRANCH  14  17
ENDBRANCH   8  11
ENDBRANCH   4   7
BRANCH   1  21
ATOM     21  S   UNL d   1       3.347   2.493  -0.134  0.00  0.00     0.276 S 
ATOM     22  O   UNL d   1       3.869   2.032   1.131  0.00  0.00    -0.200 OA
ATOM     23  O   UNL d   1       3.808   1.952  -1.402  0.00  0.00    -0.200 OA
BRANCH  21  24
ATOM     24  N   UNL d   1       1.684   2.405  -0.083  0.00  0.00    -0.109 N 
ATOM     25  H   UNL d   1       1.061   3.196  -0.042  0.00  0.00     0.198 HD
BRANCH  24  26
ATOM     26  C   UNL d   1       1.060   1.154  -0.023  0.00  0.00     0.736 A 
ATOM     27  N   UNL d   1       1.808   0.055  -0.012  0.00  0.00    -0.074 NA
ATOM     28  C   UNL d   1       1.146  -1.113   0.002  0.00  0.00     0.138 A 
ATOM     29  C   UNL d   1      -0.224  -1.212   0.001  0.00  0.00     0.047 A 
ATOM     30  C   UNL d   1      -0.919  -0.017  -0.004  0.00  0.00     0.051 A 
ATOM     31  C   UNL d   1      -2.425  -0.040  -0.006  0.00  0.00     0.071 C 
ATOM     32  N   UNL d   1      -0.287   1.188  -0.016  0.00  0.00    -0.067 NA
ENDBRANCH  24  26
ENDBRANCH  21  24
ENDBRANCH   1  21
TORSDOF 7
