@<TRIPOS>MOLECULE
*****
 44 44 0 0 0
SMALL
GASTEIGER

@<TRIPOS>ATOM
      1 C           1.1741   -0.0803    0.0852 C.3     1  UNL1        0.0015
      2 N           2.6313   -0.1543    0.1242 N.am    1  UNL1       -0.3022
      3 C           3.2229   -1.2719    0.6814 C.2     1  UNL1        0.3057
      4 O           2.5116   -2.1679    1.1332 O.2     1  UNL1       -0.2524
      5 N           4.6058   -1.2878    0.6908 N.am    1  UNL1       -0.2389
      6 C           5.3253   -2.3641    1.2181 C.2     1  UNL1        0.2375
      7 O           4.8047   -3.3552    1.7385 O.2     1  UNL1       -0.2736
      8 C           6.8750   -2.2862    1.1683 C.3     1  UNL1        0.0862
      9 N           7.4633   -3.5576    1.6319 N.pl3   1  UNL1       -0.3354
     10 C           8.8000   -3.7689    1.9123 C.ar    1  UNL1        0.0282
     11 C           9.3619   -5.0395    1.7152 C.ar    1  UNL1       -0.0408
     12 C          10.7088   -5.2980    1.9957 C.ar    1  UNL1       -0.0593
     13 C          11.5288   -4.2677    2.4424 C.ar    1  UNL1       -0.0495
     14 C          10.9920   -2.9908    2.6555 C.ar    1  UNL1        0.0384
     15 C          11.8853   -1.9412    3.2152 C.2     1  UNL1        0.2445
     16 O          13.0641   -2.2304    3.4263 O.2     1  UNL1       -0.2702
     17 N          11.3501   -0.6919    3.4879 N.am    1  UNL1       -0.3066
     18 C          12.1400    0.4049    4.0603 C.3     1  UNL1        0.0265
     19 C          12.6753    0.0094    5.4440 C.3     1  UNL1       -0.0442
     20 C          13.2894    0.7677    3.1105 C.3     1  UNL1       -0.0442
     21 C          11.2525    1.6541    4.2337 C.3     1  UNL1       -0.0442
     22 C           9.6384   -2.7555    2.3753 C.ar    1  UNL1       -0.0287
     23 H           0.8517    0.8534   -0.3836 H       1  UNL1        0.0426
     24 H           0.7735   -0.1300    1.1040 H       1  UNL1        0.0426
     25 H           0.7748   -0.9270   -0.4845 H       1  UNL1        0.0426
     26 H           3.1537    0.6135   -0.2675 H       1  UNL1        0.1499
     27 H           5.0961   -0.5067    0.2858 H       1  UNL1        0.1591
     28 H           7.1985   -1.4400    1.7817 H       1  UNL1        0.0557
     29 H           7.1987   -2.1401    0.1341 H       1  UNL1        0.0557
     30 H           6.7970   -4.2070    2.0619 H       1  UNL1        0.1466
     31 H           8.7551   -5.8429    1.3024 H       1  UNL1        0.0636
     32 H          11.1170   -6.2987    1.8722 H       1  UNL1        0.0618
     33 H          12.5838   -4.4652    2.6328 H       1  UNL1        0.0625
     34 H          10.3722   -0.5090    3.3335 H       1  UNL1        0.1495
     35 H          13.3157   -0.8759    5.4017 H       1  UNL1        0.0250
     36 H          11.8511   -0.2230    6.1292 H       1  UNL1        0.0250
     37 H          13.2682    0.8176    5.8829 H       1  UNL1        0.0250
     38 H          13.9649   -0.0750    2.9403 H       1  UNL1        0.0250
     39 H          13.8906    1.5886    3.5116 H       1  UNL1        0.0250
     40 H          12.9009    1.0697    2.1306 H       1  UNL1        0.0250
     41 H          10.4102    1.4611    4.9085 H       1  UNL1        0.0250
     42 H          10.8350    1.9885    3.2770 H       1  UNL1        0.0250
     43 H          11.8299    2.4868    4.6537 H       1  UNL1        0.0250
     44 H           9.2050   -1.7859    2.5576 H       1  UNL1        0.0643
@<TRIPOS>BOND
     1     1     2    1
     2     2     3   am
     3     3     4    2
     4     3     5   am
     5     5     6   am
     6     6     7    2
     7     6     8    1
     8     8     9    1
     9     9    10    1
    10    10    11   ar
    11    11    12   ar
    12    12    13   ar
    13    13    14   ar
    14    14    15    1
    15    15    16    2
    16    15    17   am
    17    17    18    1
    18    18    19    1
    19    18    20    1
    20    18    21    1
    21    14    22   ar
    22    10    22   ar
    23     1    23    1
    24     1    24    1
    25     1    25    1
    26     2    26    1
    27     5    27    1
    28     8    28    1
    29     8    29    1
    30     9    30    1
    31    11    31    1
    32    12    32    1
    33    13    33    1
    34    17    34    1
    35    19    35    1
    36    19    36    1
    37    19    37    1
    38    20    38    1
    39    20    39    1
    40    20    40    1
    41    21    41    1
    42    21    42    1
    43    21    43    1
    44    22    44    1
