REMARK  6 active torsions:
REMARK  status: ('A' for Active; 'I' for Inactive)
REMARK    1  A    between atoms: C_12  and  N_13 
REMARK       I    between atoms: N_13  and  C_14 
REMARK    2  A    between atoms: C_14  and  C_16 
REMARK    3  A    between atoms: C_16  and  O_17 
REMARK    4  A    between atoms: O_17  and  C_18 
REMARK    5  A    between atoms: C_18  and  C_20 
REMARK    6  A    between atoms: C_25  and  C_26 
ROOT
ATOM      1  C   UNL d   1       7.816  -2.127  -2.856  0.00  0.00     0.281 C 
ENDROOT
BRANCH   1   2
ATOM      2  C   UNL d   1       6.305  -2.035  -3.052  0.00  0.00     0.244 C 
ATOM      3  N   UNL d   1       5.484  -2.562  -2.071  0.00  0.00    -0.329 N 
ATOM      4  H   UNL d   1       5.806  -3.284  -1.444  0.00  0.00     0.165 HD
ATOM      5  O   UNL d   1       5.849  -1.538  -4.078  0.00  0.00    -0.271 OA
BRANCH   3   6
ATOM      6  C   UNL d   1       4.053  -2.377  -2.164  0.00  0.00     0.264 A 
ATOM      7  O   UNL d   1       3.445  -3.278  -1.196  0.00  0.00    -0.353 OA
ATOM      8  C   UNL d   1       2.656  -2.505  -0.246  0.00  0.00     0.152 A 
ATOM      9  C   UNL d   1       2.906  -1.086  -0.614  0.00  0.00    -0.017 A 
ATOM     10  C   UNL d   1       1.185  -2.920  -0.327  0.00  0.00     0.044 C 
ATOM     11  C   UNL d   1       3.668  -1.032  -1.704  0.00  0.00     0.066 A 
ATOM     12  C   UNL d   1       2.399   0.114   0.106  0.00  0.00     0.105 C 
ATOM     13  C   UNL d   1       3.968   0.261  -2.315  0.00  0.00     0.266 C 
ATOM     14  N   UNL d   1       3.649   1.370  -1.586  0.00  0.00    -0.287 N 
ATOM     15  O   UNL d   1       4.473   0.427  -3.420  0.00  0.00    -0.266 OA
ATOM     16  N   UNL d   1       2.878   1.401  -0.423  0.00  0.00    -0.229 NA
ATOM     17  H   UNL d   1       3.855   2.234  -2.082  0.00  0.00     0.184 HD
ATOM     18  H   UNL d   1       3.409   1.890   0.297  0.00  0.00     0.147 HD
ATOM     19  C   UNL d   1       0.879   0.201   0.063  0.00  0.00     0.033 C 
ENDBRANCH   3   6
ENDBRANCH   1   2
BRANCH   1  20
ATOM     20  O   UNL d   1       8.463  -1.182  -3.749  0.00  0.00    -0.307 OA
BRANCH  20  21
ATOM     21  C   UNL d   1       9.814  -1.268  -3.766  0.00  0.00     0.315 C 
ATOM     22  O   UNL d   1      10.450  -2.029  -3.049  0.00  0.00    -0.257 OA
BRANCH  21  23
ATOM     23  C   UNL d   1      10.465  -0.423  -4.820  0.00  0.00     0.163 A 
ATOM     24  N   UNL d   1      10.135   0.902  -4.911  0.00  0.00    -0.251 NA
ATOM     25  C   UNL d   1      10.916   1.642  -5.748  0.00  0.00     0.137 A 
ATOM     26  C   UNL d   1      11.972   1.105  -6.469  0.00  0.00     0.136 A 
ATOM     27  N   UNL d   1      12.283  -0.206  -6.408  0.00  0.00    -0.254 NA
ATOM     28  C   UNL d   1      11.512  -0.966  -5.568  0.00  0.00     0.127 A 
BRANCH  28  29
ATOM     29  C   UNL d   1      11.909  -2.367  -5.474  0.00  0.00     0.130 A 
ATOM     30  N   UNL d   1      13.072  -2.780  -5.019  0.00  0.00    -0.238 NA
ATOM     31  C   UNL d   1      13.071  -4.155  -4.920  0.00  0.00     0.075 A 
ATOM     32  C   UNL d   1      14.137  -4.936  -4.437  0.00  0.00     0.033 A 
ATOM     33  C   UNL d   1      11.904  -4.793  -5.345  0.00  0.00     0.035 A 
ATOM     34  C   UNL d   1      14.012  -6.325  -4.393  0.00  0.00     0.002 A 
ATOM     35  C   UNL d   1      12.835  -6.941  -4.807  0.00  0.00     0.002 A 
ATOM     36  C   UNL d   1      11.757  -6.187  -5.282  0.00  0.00     0.021 A 
ATOM     37  S   UNL d   1      10.803  -3.608  -5.927  0.00  0.00    -0.066 SA
ENDBRANCH  28  29
ENDBRANCH  21  23
ENDBRANCH  20  21
ENDBRANCH   1  20
TORSDOF 6
