@<TRIPOS>MOLECULE
*****
 36 38 0 0 0
SMALL
GASTEIGER

@<TRIPOS>ATOM
      1 C           2.4580   -1.7429    0.0399 C.3     1  UNL1       -0.0354
      2 C           1.6690   -0.4903    0.0035 C.ar    1  UNL1        0.0077
      3 C           2.0711    0.8485    0.0066 C.ar    1  UNL1        0.1948
      4 C           3.3889    1.5290    0.0329 C.2     1  UNL1        0.2957
      5 O           3.5256    2.7585    0.0494 O.2     1  UNL1       -0.2653
      6 N           4.5256    0.7162    0.0418 N.am    1  UNL1       -0.2276
      7 N           5.8504    1.2050    0.1051 N.am    1  UNL1       -0.2300
      8 C           6.8805    0.2637    0.0580 C.2     1  UNL1        0.2602
      9 O           6.6754   -0.9472   -0.0108 O.2     1  UNL1       -0.2687
     10 C           8.2762    0.7829    0.0866 C.ar    1  UNL1        0.0395
     11 C           8.6184    1.8157    0.9664 C.ar    1  UNL1       -0.0495
     12 C           9.9281    2.3027    1.0055 C.ar    1  UNL1       -0.0597
     13 C          10.9011    1.7662    0.1624 C.ar    1  UNL1       -0.0433
     14 C          10.5665    0.7242   -0.7021 C.ar    1  UNL1        0.0417
     15 CL         11.7747    0.0857   -1.7512 Cl      1  UNL1       -0.0835
     16 C           9.2650    0.2121   -0.7312 C.ar    1  UNL1       -0.0312
     17 O           0.9171    1.6348    0.0012 O.2     1  UNL1       -0.4499
     18 C          -0.1824    0.8122   -0.0012 C.ar    1  UNL1        0.1362
     19 C          -1.5373    1.1788    0.0183 C.ar    1  UNL1       -0.0187
     20 C          -2.4885    0.1391    0.0232 C.ar    1  UNL1       -0.0582
     21 C          -2.0952   -1.1980   -0.0030 C.ar    1  UNL1       -0.0610
     22 C          -0.7375   -1.5319   -0.0266 C.ar    1  UNL1       -0.0507
     23 C           0.2346   -0.5073   -0.0164 C.ar    1  UNL1        0.0238
     24 H           3.5277   -1.6216    0.0719 H       1  UNL1        0.0279
     25 H           2.2511   -2.3411   -0.8507 H       1  UNL1        0.0279
     26 H           2.2051   -2.3096    0.9397 H       1  UNL1        0.0279
     27 H           4.5021   -0.2869   -0.0045 H       1  UNL1        0.1732
     28 H           5.9796    2.2121    0.0547 H       1  UNL1        0.1731
     29 H           7.8797    2.2272    1.6489 H       1  UNL1        0.0625
     30 H          10.1913    3.1002    1.6963 H       1  UNL1        0.0618
     31 H          11.9155    2.1595    0.1893 H       1  UNL1        0.0632
     32 H           9.0261   -0.6162   -1.3948 H       1  UNL1        0.0640
     33 H          -1.8531    2.2158    0.0394 H       1  UNL1        0.0654
     34 H          -3.5532    0.3719    0.0500 H       1  UNL1        0.0619
     35 H          -2.8423   -1.9907    0.0009 H       1  UNL1        0.0618
     36 H          -0.4376   -2.5757   -0.0431 H       1  UNL1        0.0625
@<TRIPOS>BOND
     1     1     2    1
     2     2     3   ar
     3     3     4    1
     4     4     5    2
     5     4     6   am
     6     6     7    1
     7     7     8   am
     8     8     9    2
     9     8    10    1
    10    10    11   ar
    11    11    12   ar
    12    12    13   ar
    13    13    14   ar
    14    14    15    1
    15    14    16   ar
    16    10    16   ar
    17     3    17   ar
    18    17    18   ar
    19    18    19   ar
    20    19    20   ar
    21    20    21   ar
    22    21    22   ar
    23    22    23   ar
    24     2    23   ar
    25    18    23   ar
    26     1    24    1
    27     1    25    1
    28     1    26    1
    29     6    27    1
    30     7    28    1
    31    11    29    1
    32    12    30    1
    33    13    31    1
    34    16    32    1
    35    19    33    1
    36    20    34    1
    37    21    35    1
    38    22    36    1
