REMARK  4 active torsions:
REMARK  status: ('A' for Active; 'I' for Inactive)
REMARK    1  A    between atoms: O_2  and  C_3 
REMARK    2  A    between atoms: C_6  and  C_7 
REMARK    3  A    between atoms: C_18  and  N_19 
REMARK    4  A    between atoms: C_30  and  O_31 
ROOT
ATOM      1  C   UNL d   1       5.373   4.734  -0.013  0.00  0.00     0.100 A 
ATOM      2  C   UNL d   1       4.926   5.358   1.315  0.00  0.00     0.024 A 
ATOM      3  C   UNL d   1       4.799   6.696   1.435  0.00  0.00     0.021 A 
ATOM      4  C   UNL d   1       4.275   7.334   2.701  0.00  0.00     0.058 C 
ATOM      5  C   UNL d   1       3.408   6.375   3.513  0.00  0.00     0.014 C 
ATOM      6  C   UNL d   1       4.175   5.101   3.775  0.00  0.00     0.084 C 
ATOM      7  C   UNL d   1       4.551   4.462   2.476  0.00  0.00     0.158 C 
ATOM      8  O   UNL d   1       4.581   3.236   2.433  0.00  0.00    -0.293 OA
ATOM      9  N   UNL d   1       5.118   7.532   0.372  0.00  0.00    -0.344 N 
ATOM     10  C   UNL d   1       5.551   7.104  -0.876  0.00  0.00     0.134 A 
ATOM     11  N   UNL d   1       5.990   7.975  -1.852  0.00  0.00    -0.174 N 
ATOM     12  C   UNL d   1       6.422   7.560  -3.082  0.00  0.00     0.707 C 
ATOM     13  N   UNL d   1       6.468   6.301  -3.395  0.00  0.00    -0.023 NA
ATOM     14  C   UNL d   1       6.164   5.348  -2.437  0.00  0.00     0.294 C 
ATOM     15  O   UNL d   1       6.368   4.148  -2.635  0.00  0.00    -0.265 OA
ATOM     16  C   UNL d   1       5.600   5.773  -1.119  0.00  0.00     0.070 A 
ATOM     17  H   UNL d   1       5.058   8.532   0.527  0.00  0.00     0.167 HD
ATOM     18  H   UNL d   1       5.876   8.964  -1.697  0.00  0.00     0.186 HD
ENDROOT
BRANCH   1  19
ATOM     19  C   UNL d   1       4.481   3.519  -0.292  0.00  0.00    -0.042 A 
ATOM     20  C   UNL d   1       5.089   2.249  -0.216  0.00  0.00     0.011 A 
ATOM     21  C   UNL d   1       4.321   1.093  -0.078  0.00  0.00     0.040 A 
ATOM     22  C   UNL d   1       2.926   1.166  -0.023  0.00  0.00     0.101 A 
ATOM     23  C   UNL d   1       2.311   2.428  -0.065  0.00  0.00     0.099 A 
ATOM     24  C   UNL d   1       3.075   3.594  -0.218  0.00  0.00     0.047 A 
BRANCH  22  25
ATOM     25  O   UNL d   1       2.323  -0.060   0.093  0.00  0.00    -0.353 OA
ATOM     26  C   UNL d   1       0.904  -0.069   0.056  0.00  0.00     0.210 C 
ENDBRANCH  22  25
BRANCH  23  27
ATOM     27  O   UNL d   1       0.957   2.555   0.116  0.00  0.00    -0.358 OA
ATOM     28  H   UNL d   1       0.702   3.488   0.105  0.00  0.00     0.217 HD
ENDBRANCH  23  27
ENDBRANCH   1  19
BRANCH  12  29
ATOM     29  N   UNL d   1       6.714   8.589  -3.970  0.00  0.00    -0.216 N 
ATOM     30  C   UNL d   1       6.163   8.610  -5.333  0.00  0.00     0.141 C 
ATOM     31  C   UNL d   1       7.234   8.405  -6.405  0.00  0.00     0.020 C 
ATOM     32  C   UNL d   1       8.388   9.390  -6.250  0.00  0.00     0.003 C 
ATOM     33  C   UNL d   1       8.924   9.352  -4.821  0.00  0.00     0.020 C 
ATOM     34  C   UNL d   1       7.812   9.546  -3.779  0.00  0.00     0.141 C 
ENDBRANCH  12  29
TORSDOF 4
