@<TRIPOS>MOLECULE
*****
 60 62 0 0 0
SMALL
GASTEIGER

@<TRIPOS>ATOM
      1 O           5.3104   -4.5802    3.2982 O.2     1  UNL1       -0.2508
      2 C           4.8383   -5.5601    2.7344 C.2     1  UNL1        0.3075
      3 C           3.9624   -5.4437    1.5226 C.3     1  UNL1        0.0471
      4 C           3.7090   -4.0012    1.0581 C.3     1  UNL1       -0.0139
      5 C           2.8198   -3.9200   -0.2008 C.3     1  UNL1        0.1241
      6 N           2.1353   -2.6193   -0.3425 N.am    1  UNL1       -0.2679
      7 C           1.3575   -2.4677   -1.4734 C.2     1  UNL1        0.4012
      8 O           1.5832   -3.0936   -2.5135 O.2     1  UNL1       -0.2265
      9 O           0.2795   -1.6700   -1.2838 O.3     1  UNL1       -0.4456
     10 C          -0.6312   -1.6693   -2.4140 C.3     1  UNL1        0.1191
     11 C          -1.9096   -0.9154   -2.1061 C.ar    1  UNL1       -0.0103
     12 C          -1.9188    0.1061   -1.1508 C.ar    1  UNL1       -0.0554
     13 C          -3.1184    0.6915   -0.7471 C.ar    1  UNL1       -0.0614
     14 C          -4.3123    0.3497   -1.3770 C.ar    1  UNL1       -0.0617
     15 C          -4.3104   -0.6005   -2.3956 C.ar    1  UNL1       -0.0614
     16 C          -3.1154   -1.2318   -2.7599 C.ar    1  UNL1       -0.0554
     17 C           1.7174   -5.0224   -0.2124 C.2     1  UNL1        0.3330
     18 O           0.5227   -4.8028   -0.0419 O.2     1  UNL1       -0.2483
     19 O           2.2774   -6.2985   -0.3875 O.3     1  UNL1       -0.4245
     20 C           1.3872   -7.3872   -0.4290 C.ar    1  UNL1        0.1321
     21 C           1.6523   -8.5386    0.3186 C.ar    1  UNL1       -0.0128
     22 C           0.8397   -9.6687    0.1844 C.ar    1  UNL1        0.0191
     23 C          -0.2788   -9.6038   -0.6532 C.ar    1  UNL1        0.2734
     24 N          -1.2170  -10.7291   -0.7102 N.pl3   1  UNL1        0.0796
     25 O          -0.9624  -11.7266   -0.0204 O.2     1  UNL1        0.0414
     26 O          -2.2177  -10.6065   -1.4300 O.co2   1  UNL1       -0.5760
     27 C          -0.5375   -8.4522   -1.4064 C.ar    1  UNL1        0.0191
     28 C           0.3100   -7.3534   -1.3051 C.ar    1  UNL1       -0.0128
     29 O           5.0752   -6.8139    3.1871 O.3     1  UNL1       -0.4599
     30 C           4.5007   -7.9940    2.5833 C.3     1  UNL1        0.1175
     31 C           4.9051   -9.2282    3.3506 C.ar    1  UNL1       -0.0103
     32 C           4.1212  -10.3933    3.3105 C.ar    1  UNL1       -0.0554
     33 C           4.4258  -11.4746    4.1410 C.ar    1  UNL1       -0.0614
     34 C           5.5678  -11.4417    4.9386 C.ar    1  UNL1       -0.0617
     35 C           6.3880  -10.3174    4.9327 C.ar    1  UNL1       -0.0614
     36 C           6.0592   -9.2197    4.1425 C.ar    1  UNL1       -0.0554
     37 H           3.0022   -5.8828    1.8110 H       1  UNL1        0.0378
     38 H           4.4325   -6.0017    0.7051 H       1  UNL1        0.0378
     39 H           4.6731   -3.5162    0.8497 H       1  UNL1        0.0294
     40 H           3.2642   -3.4332    1.8843 H       1  UNL1        0.0294
     41 H           3.4458   -4.0321   -1.0952 H       1  UNL1        0.0615
     42 H           1.8793   -2.0758    0.4755 H       1  UNL1        0.1528
     43 H          -0.9017   -2.7051   -2.6663 H       1  UNL1        0.0749
     44 H          -0.1326   -1.1996   -3.2684 H       1  UNL1        0.0749
     45 H          -0.9884    0.4268   -0.6897 H       1  UNL1        0.0621
     46 H          -3.1193    1.3978    0.0779 H       1  UNL1        0.0618
     47 H          -5.2405    0.8261   -1.0726 H       1  UNL1        0.0618
     48 H          -5.2452   -0.8700   -2.8825 H       1  UNL1        0.0618
     49 H          -3.1436   -1.9872   -3.5433 H       1  UNL1        0.0621
     50 H           2.4752   -8.5880    1.0116 H       1  UNL1        0.0656
     51 H           1.0855  -10.5797    0.7291 H       1  UNL1        0.0686
     52 H          -1.3886   -8.3870   -2.0776 H       1  UNL1        0.0686
     53 H           0.1125   -6.4622   -1.8933 H       1  UNL1        0.0656
     54 H           4.8301   -8.0870    1.5424 H       1  UNL1        0.0749
     55 H           3.4146   -7.9019    2.6590 H       1  UNL1        0.0749
     56 H           3.2535  -10.4676    2.6592 H       1  UNL1        0.0621
     57 H           3.7642  -12.3368    4.1836 H       1  UNL1        0.0618
     58 H           5.8210  -12.2922    5.5654 H       1  UNL1        0.0618
     59 H           7.2715  -10.2771    5.5632 H       1  UNL1        0.0618
     60 H           6.6973   -8.3389    4.1701 H       1  UNL1        0.0621
@<TRIPOS>UNITY_ATOM_ATTR
24 1
charge 1
26 1
charge -1
@<TRIPOS>BOND
     1     1     2    2
     2     2     3    1
     3     3     4    1
     4     6     7   am
     5     7     8    2
     6     7     9    1
     7     9    10    1
     8    10    11    1
     9    11    12   ar
    10    12    13   ar
    11    13    14   ar
    12    14    15   ar
    13    15    16   ar
    14    11    16   ar
    15     5    17    1
    16    17    18    2
    17    17    19    1
    18    19    20    1
    19    20    21   ar
    20    21    22   ar
    21    22    23   ar
    22    23    24    1
    23    24    25    2
    24    24    26    1
    25    23    27   ar
    26    27    28   ar
    27    20    28   ar
    28     2    29    1
    29    29    30    1
    30    30    31    1
    31    31    32   ar
    32    32    33   ar
    33    33    34   ar
    34    34    35   ar
    35    35    36   ar
    36    31    36   ar
    37     5     6    1
    38     5     4    1
    39     3    37    1
    40     3    38    1
    41     4    39    1
    42     4    40    1
    43     5    41    1
    44     6    42    1
    45    10    43    1
    46    10    44    1
    47    12    45    1
    48    13    46    1
    49    14    47    1
    50    15    48    1
    51    16    49    1
    52    21    50    1
    53    22    51    1
    54    27    52    1
    55    28    53    1
    56    30    54    1
    57    30    55    1
    58    32    56    1
    59    33    57    1
    60    34    58    1
    61    35    59    1
    62    36    60    1
