@<TRIPOS>MOLECULE
*****
 54 55 0 0 0
SMALL
GASTEIGER

@<TRIPOS>ATOM
      1 C           1.1149   -0.0055    0.0354 C.3     1  UNL1       -0.0307
      2 C           2.6319   -0.0158    0.0266 C.3     1  UNL1        0.0868
      3 O           3.0437    0.7662   -1.0982 O.3     1  UNL1       -0.4915
      4 C           4.3987    0.8931   -1.2499 C.ar    1  UNL1        0.1326
      5 C           5.2659   -0.2129   -1.1652 C.ar    1  UNL1       -0.0181
      6 C           6.6371   -0.0777   -1.4087 C.ar    1  UNL1       -0.0443
      7 C           7.1507    1.1639   -1.7522 C.ar    1  UNL1        0.0188
      8 BR          9.0004    1.3463   -2.1048 Br      1  UNL1       -0.0503
      9 C           6.3019    2.2665   -1.8456 C.ar    1  UNL1       -0.0321
     10 C           4.9100    2.1495   -1.5996 C.ar    1  UNL1        0.0797
     11 C           4.0964    3.4101   -1.7140 C.2     1  UNL1        0.2531
     12 O           4.7348    4.4250   -1.9993 O.2     1  UNL1       -0.2697
     13 N           2.7049    3.4015   -1.4920 N.am    1  UNL1       -0.2626
     14 C           1.8223    4.4995   -1.5358 C.2     1  UNL1        0.1533
     15 S           2.2524    6.0920   -1.8915 S.2     1  UNL1       -0.0170
     16 N           0.4895    4.1783   -1.2387 N.am    1  UNL1       -0.2454
     17 N          -0.4634    5.2209   -1.0218 N.am    1  UNL1       -0.2323
     18 C          -1.7814    4.9136   -0.6378 C.2     1  UNL1        0.2667
     19 O          -2.1736    3.7397   -0.5352 O.2     1  UNL1       -0.2705
     20 C          -2.7095    6.1531   -0.5541 C.3     1  UNL1        0.1666
     21 O          -4.1350    6.0581   -0.6579 O.3     1  UNL1       -0.4824
     22 C          -5.0168    7.1224   -0.8384 C.ar    1  UNL1        0.1246
     23 C          -6.0717    7.1133    0.1038 C.ar    1  UNL1       -0.0196
     24 C          -7.2044    7.9449   -0.0107 C.ar    1  UNL1       -0.0583
     25 C          -7.3028    8.8560   -1.0474 C.ar    1  UNL1       -0.0613
     26 C          -6.2989    8.8802   -2.0006 C.ar    1  UNL1       -0.0549
     27 C          -5.1562    8.0258   -1.9352 C.ar    1  UNL1       -0.0031
     28 C          -4.2364    8.2500   -3.1325 C.3     1  UNL1       -0.0181
     29 C          -3.5637    9.6292   -3.0120 C.3     1  UNL1       -0.0585
     30 C          -3.1084    7.2941   -3.1442 C.3     1  UNL1       -0.0585
     31 H           0.7259   -0.5801    0.8793 H       1  UNL1        0.0262
     32 H           0.7265   -0.4337   -0.8954 H       1  UNL1        0.0262
     33 H           0.7343    1.0195    0.0948 H       1  UNL1        0.0262
     34 H           2.9736   -1.0519   -0.0517 H       1  UNL1        0.0694
     35 H           3.0136    0.4356    0.9497 H       1  UNL1        0.0694
     36 H           4.8960   -1.2091   -0.9417 H       1  UNL1        0.0655
     37 H           7.2895   -0.9464   -1.3443 H       1  UNL1        0.0630
     38 H           6.7291    3.2320   -2.1183 H       1  UNL1        0.0637
     39 H           2.3068    2.4953   -1.2757 H       1  UNL1        0.1569
     40 H           0.1329    3.2457   -1.0438 H       1  UNL1        0.1718
     41 H          -0.1899    6.1344   -1.4047 H       1  UNL1        0.1729
     42 H          -2.3144    6.4224   -1.4908 H       1  UNL1        0.0795
     43 H          -2.3751    6.9498    0.1195 H       1  UNL1        0.0795
     44 H          -6.0345    6.4277    0.9481 H       1  UNL1        0.0654
     45 H          -8.0248    7.8662    0.6990 H       1  UNL1        0.0619
     46 H          -8.1492    9.5343   -1.1299 H       1  UNL1        0.0618
     47 H          -6.4092    9.5737   -2.8369 H       1  UNL1        0.0622
     48 H          -4.7835    8.1264   -4.0743 H       1  UNL1        0.0345
     49 H          -3.1729    9.7799   -1.9932 H       1  UNL1        0.0235
     50 H          -4.2461   10.4483   -3.2292 H       1  UNL1        0.0235
     51 H          -2.7052    9.6889   -3.6913 H       1  UNL1        0.0235
     52 H          -2.5386    7.7325   -2.3203 H       1  UNL1        0.0235
     53 H          -2.3729    7.3018   -3.9406 H       1  UNL1        0.0235
     54 H          -3.4800    6.2675   -3.0240 H       1  UNL1        0.0235
@<TRIPOS>BOND
     1     1     2    1
     2     2     3    1
     3     3     4    1
     4     4     5   ar
     5     5     6   ar
     6     6     7   ar
     7     7     8    1
     8     7     9   ar
     9     9    10   ar
    10     4    10   ar
    11    10    11    1
    12    11    12    2
    13    11    13   am
    14    13    14    1
    15    14    15    2
    16    14    16    1
    17    16    17    1
    18    17    18   am
    19    18    19    2
    20    18    20    1
    21    20    21    1
    22    21    22    1
    23    22    23   ar
    24    23    24   ar
    25    24    25   ar
    26    25    26   ar
    27    26    27   ar
    28    22    27   ar
    29    27    28    1
    30    28    29    1
    31    28    30    1
    32     1    31    1
    33     1    32    1
    34     1    33    1
    35     2    34    1
    36     2    35    1
    37     5    36    1
    38     6    37    1
    39     9    38    1
    40    13    39    1
    41    16    40    1
    42    17    41    1
    43    20    42    1
    44    20    43    1
    45    23    44    1
    46    24    45    1
    47    25    46    1
    48    26    47    1
    49    28    48    1
    50    29    49    1
    51    29    50    1
    52    29    51    1
    53    30    52    1
    54    30    53    1
    55    30    54    1
