@<TRIPOS>MOLECULE
*****
 30 31 0 0 0
SMALL
GASTEIGER

@<TRIPOS>ATOM
      1 C           2.5004    1.2156   -0.0006 C.3     1  UNL1       -0.0396
      2 C           1.2601    0.3764    0.0054 C.ar    1  UNL1       -0.0469
      3 C           1.3319   -1.0102    0.0218 C.ar    1  UNL1       -0.0569
      4 C           0.1630   -1.7771    0.0030 C.ar    1  UNL1       -0.0366
      5 C          -1.1172   -1.2040   -0.0256 C.ar    1  UNL1        0.0756
      6 N          -2.2918   -2.0229   -0.0703 N.am    1  UNL1       -0.2785
      7 C          -2.2950   -3.4160   -0.0717 C.2     1  UNL1        0.2511
      8 O          -1.3169   -4.1613   -0.0173 O.2     1  UNL1       -0.2698
      9 C          -3.5911   -4.1204   -0.0993 C.ar    1  UNL1        0.0732
     10 C          -3.7333   -5.2663    0.7028 C.ar    1  UNL1       -0.0328
     11 C          -4.9020   -6.0220    0.6386 C.ar    1  UNL1        0.0188
     12 BR         -5.0860   -7.5579    1.7250 Br      1  UNL1       -0.0503
     13 C          -5.9295   -5.6561   -0.2294 C.ar    1  UNL1       -0.0450
     14 C          -5.7767   -4.5315   -1.0465 C.ar    1  UNL1       -0.0247
     15 C          -4.6092   -3.7690   -0.9782 C.ar    1  UNL1        0.1355
     16 F          -4.4776   -2.7129   -1.7921 F       1  UNL1       -0.2047
     17 C          -1.1746    0.2020   -0.0176 C.ar    1  UNL1        0.1382
     18 O          -2.3273    0.9411   -0.0154 O.3     1  UNL1       -0.5049
     19 C          -0.0022    0.9763   -0.0085 C.ar    1  UNL1       -0.0154
     20 H           3.4067    0.6000    0.0029 H       1  UNL1        0.0278
     21 H           2.5239    1.8553    0.8867 H       1  UNL1        0.0278
     22 H           2.5238    1.8400   -0.8992 H       1  UNL1        0.0278
     23 H           2.2892   -1.5264    0.0430 H       1  UNL1        0.0621
     24 H           0.3170   -2.8485    0.0044 H       1  UNL1        0.0637
     25 H          -3.1893   -1.5637   -0.1201 H       1  UNL1        0.1552
     26 H          -2.9193   -5.5707    1.3597 H       1  UNL1        0.0637
     27 H          -6.8433   -6.2441   -0.2828 H       1  UNL1        0.0629
     28 H          -6.5592   -4.2548   -1.7472 H       1  UNL1        0.0647
     29 H          -3.0964    0.3616    0.0210 H       1  UNL1        0.2922
     30 H          -0.0767    2.0619   -0.0141 H       1  UNL1        0.0657
@<TRIPOS>BOND
     1     1     2    1
     2     2     3   ar
     3     3     4   ar
     4     4     5   ar
     5     5     6    1
     6     6     7   am
     7     7     8    2
     8     7     9    1
     9     9    10   ar
    10    10    11   ar
    11    11    12    1
    12    11    13   ar
    13    13    14   ar
    14    14    15   ar
    15     9    15   ar
    16    15    16    1
    17     5    17   ar
    18    17    18    1
    19    17    19   ar
    20     2    19   ar
    21     1    20    1
    22     1    21    1
    23     1    22    1
    24     3    23    1
    25     4    24    1
    26     6    25    1
    27    10    26    1
    28    13    27    1
    29    14    28    1
    30    18    29    1
    31    19    30    1
