REMARK  9 active torsions:
REMARK  status: ('A' for Active; 'I' for Inactive)
REMARK    1  A    between atoms: C_2  and  C_3 
REMARK    2  A    between atoms: C_3  and  C_4 
REMARK    3  A    between atoms: C_4  and  N_5 
REMARK       I    between atoms: N_5  and  C_6 
REMARK       I    between atoms: C_6  and  N_8 
REMARK    4  A    between atoms: N_8  and  N_9 
REMARK       I    between atoms: N_9  and  C_10 
REMARK    5  A    between atoms: C_10  and  C_12 
REMARK    6  A    between atoms: C_13  and  C_14 
REMARK    7  A    between atoms: C_17  and  O_18 
REMARK    8  A    between atoms: O_18  and  C_19 
REMARK    9  A    between atoms: C_21  and  O_22 
ROOT
ATOM      1  N   UNL d   1       8.397   2.332  -4.123  0.00  0.00    -0.263 N 
ATOM      2  C   UNL d   1       8.796   3.022  -5.261  0.00  0.00     0.259 C 
ATOM      3  O   UNL d   1       7.993   3.485  -6.074  0.00  0.00    -0.267 OA
ATOM      4  H   UNL d   1       9.035   1.938  -3.433  0.00  0.00     0.190 HD
ENDROOT
BRANCH   2   5
ATOM      5  C   UNL d   1      10.284   3.168  -5.455  0.00  0.00     0.076 C 
ATOM      6  C   UNL d   1      10.815   3.832  -6.509  0.00  0.00     0.017 C 
BRANCH   6   7
ATOM      7  C   UNL d   1      12.268   3.951  -6.799  0.00  0.00    -0.033 A 
ATOM      8  C   UNL d   1      12.845   5.118  -7.315  0.00  0.00     0.014 A 
ATOM      9  C   UNL d   1      14.208   5.149  -7.684  0.00  0.00     0.040 A 
ATOM     10  C   UNL d   1      15.038   4.034  -7.493  0.00  0.00     0.102 A 
ATOM     11  C   UNL d   1      14.456   2.851  -7.006  0.00  0.00     0.102 A 
ATOM     12  C   UNL d   1      13.091   2.828  -6.670  0.00  0.00     0.051 A 
BRANCH  10  13
ATOM     13  O   UNL d   1      16.366   4.242  -7.810  0.00  0.00    -0.349 OA
BRANCH  13  14
ATOM     14  C   UNL d   1      17.279   3.181  -7.501  0.00  0.00     0.171 C 
ATOM     15  C   UNL d   1      18.713   3.579  -7.787  0.00  0.00     0.034 C 
ENDBRANCH  13  14
ENDBRANCH  10  13
BRANCH  11  16
ATOM     16  O   UNL d   1      15.245   1.739  -6.900  0.00  0.00    -0.353 OA
ATOM     17  C   UNL d   1      14.665   0.530  -6.451  0.00  0.00     0.210 C 
ENDBRANCH  11  16
ENDBRANCH   6   7
ENDBRANCH   2   5
BRANCH   1  18
ATOM     18  N   UNL d   1       6.994   2.158  -3.835  0.00  0.00    -0.249 N 
ATOM     19  C   UNL d   1       6.604   1.484  -2.684  0.00  0.00     0.334 C 
ATOM     20  N   UNL d   1       5.235   1.376  -2.501  0.00  0.00    -0.342 N 
ATOM     21  O   UNL d   1       7.423   1.017  -1.892  0.00  0.00    -0.246 OA
ATOM     22  H   UNL d   1       4.604   1.778  -3.179  0.00  0.00     0.164 HD
ATOM     23  H   UNL d   1       6.349   2.561  -4.506  0.00  0.00     0.192 HD
BRANCH  20  24
ATOM     24  C   UNL d   1       4.668   0.688  -1.332  0.00  0.00     0.124 C 
BRANCH  24  25
ATOM     25  C   UNL d   1       3.130   0.665  -1.292  0.00  0.00     0.019 C 
BRANCH  25  26
ATOM     26  C   UNL d   1       2.587  -0.067  -0.052  0.00  0.00    -0.003 C 
ATOM     27  C   UNL d   1       1.063  -0.081  -0.027  0.00  0.00     0.005 C 
ENDBRANCH  25  26
ENDBRANCH  24  25
ENDBRANCH  20  24
ENDBRANCH   1  18
TORSDOF 9
