@<TRIPOS>MOLECULE
*****
 69 71 0 0 0
SMALL
GASTEIGER

@<TRIPOS>ATOM
      1 C           7.5421   10.8034   -1.0664 C.3     1  UNL1       -0.0652
      2 C           6.5984    9.6294   -1.2488 C.3     1  UNL1       -0.0545
      3 C           7.3637    8.3704   -1.6590 C.3     1  UNL1       -0.0376
      4 C           6.4031    7.2083   -1.8331 C.3     1  UNL1        0.0116
      5 N           7.0571    5.9636   -2.1602 N.am    1  UNL1       -0.3135
      6 C           6.2335    4.8891   -2.4681 C.2     1  UNL1        0.2382
      7 O           5.0295    5.0109   -2.4443 O.2     1  UNL1       -0.2734
      8 C           6.8938    3.4751   -2.7534 C.3     1  UNL1        0.1308
      9 C           6.1726    2.5684   -1.7545 C.ar    1  UNL1        0.0232
     10 C           4.9565    1.9128   -1.9867 C.ar    1  UNL1       -0.0528
     11 C           4.5187    0.9033   -1.1133 C.ar    1  UNL1       -0.0612
     12 C           5.3432    0.4817   -0.0833 C.ar    1  UNL1       -0.0583
     13 C           6.3656    1.3319    0.2976 C.ar    1  UNL1       -0.0198
     14 C           6.6345    2.4892   -0.4523 C.ar    1  UNL1        0.1223
     15 O           7.5633    3.4197   -0.0556 O.3     1  UNL1       -0.5064
     16 N           8.4537    3.3282   -2.8273 N.am    1  UNL1       -0.2829
     17 C           9.3022    2.3187   -2.0372 C.3     1  UNL1        0.0156
     18 C           8.7581    1.0123   -1.4747 C.3     1  UNL1       -0.0400
     19 C           9.5714    0.0654   -0.6192 C.3     1  UNL1       -0.0639
     20 C           9.0498    4.2032   -3.7944 C.2     1  UNL1        0.2574
     21 O           8.3183    4.9316   -4.4808 O.2     1  UNL1       -0.2716
     22 C          10.6481    4.2685   -3.9594 C.3     1  UNL1        0.1924
     23 O          11.2457    4.6743   -2.7066 O.3     1  UNL1       -0.3711
     24 C          11.2026    2.9013   -4.4412 C.ar    1  UNL1       -0.0027
     25 C          10.3606    1.7883   -4.6399 C.ar    1  UNL1       -0.0550
     26 C          10.8834    0.5051   -4.5952 C.ar    1  UNL1       -0.0614
     27 C          12.2043    0.3268   -4.9376 C.ar    1  UNL1       -0.0617
     28 C          13.0236    1.4382   -5.0774 C.ar    1  UNL1       -0.0614
     29 C          12.5692    2.6848   -4.6551 C.ar    1  UNL1       -0.0550
     30 C          11.0638    5.4565   -4.8576 C.ar    1  UNL1       -0.0027
     31 C          11.9462    5.3217   -5.9435 C.ar    1  UNL1       -0.0550
     32 C          12.4488    6.4187   -6.6268 C.ar    1  UNL1       -0.0614
     33 C          11.9241    7.6729   -6.3693 C.ar    1  UNL1       -0.0617
     34 C          10.9975    7.8428   -5.3441 C.ar    1  UNL1       -0.0614
     35 C          10.6206    6.7576   -4.5541 C.ar    1  UNL1       -0.0550
     36 H           6.9861   11.6978   -0.7701 H       1  UNL1        0.0230
     37 H           8.0725   11.0223   -1.9984 H       1  UNL1        0.0230
     38 H           8.2828   10.5874   -0.2902 H       1  UNL1        0.0230
     39 H           5.8491    9.8802   -2.0098 H       1  UNL1        0.0263
     40 H           6.0562    9.4506   -0.3122 H       1  UNL1        0.0263
     41 H           8.1141    8.1237   -0.8994 H       1  UNL1        0.0280
     42 H           7.9021    8.5500   -2.5973 H       1  UNL1        0.0280
     43 H           5.6704    7.4384   -2.6159 H       1  UNL1        0.0462
     44 H           5.8482    7.0326   -0.9041 H       1  UNL1        0.0462
     45 H           8.0290    5.9408   -2.4180 H       1  UNL1        0.1487
     46 H           6.5655    3.2309   -3.7825 H       1  UNL1        0.0649
     47 H           4.2964    2.2406   -2.7881 H       1  UNL1        0.0622
     48 H           3.5367    0.4534   -1.2203 H       1  UNL1        0.0618
     49 H           5.1534   -0.4327    0.4719 H       1  UNL1        0.0619
     50 H           7.0458    1.0055    1.0820 H       1  UNL1        0.0654
     51 H           8.4158    3.0115    0.1617 H       1  UNL1        0.2921
     52 H           9.7987    2.9100   -1.2712 H       1  UNL1        0.0465
     53 H          10.1549    1.9577   -2.5676 H       1  UNL1        0.0465
     54 H           8.0183    0.5099   -2.1036 H       1  UNL1        0.0278
     55 H           8.3113    1.3688   -0.6006 H       1  UNL1        0.0278
     56 H          10.3010   -0.5040   -1.1771 H       1  UNL1        0.0230
     57 H           8.8622   -0.6208   -0.1227 H       1  UNL1        0.0230
     58 H          10.0422    0.6209    0.2059 H       1  UNL1        0.0230
     59 H          11.1174    4.0064   -2.0274 H       1  UNL1        0.2116
     60 H           9.2777    1.8605   -4.5663 H       1  UNL1        0.0621
     61 H          10.2550   -0.3273   -4.2875 H       1  UNL1        0.0618
     62 H          12.5774   -0.6743   -5.1131 H       1  UNL1        0.0618
     63 H          14.0270    1.3352   -5.4733 H       1  UNL1        0.0618
     64 H          13.2792    3.5087   -4.5995 H       1  UNL1        0.0621
     65 H          12.2777    4.3564   -6.3046 H       1  UNL1        0.0621
     66 H          13.2190    6.2678   -7.3770 H       1  UNL1        0.0618
     67 H          12.2203    8.5100   -6.9903 H       1  UNL1        0.0618
     68 H          10.5637    8.8195   -5.1560 H       1  UNL1        0.0618
     69 H           9.9430    6.9282   -3.7201 H       1  UNL1        0.0621
@<TRIPOS>BOND
     1     1     2    1
     2     2     3    1
     3     3     4    1
     4     4     5    1
     5     5     6   am
     6     6     7    2
     7     9    10   ar
     8    10    11   ar
     9    11    12   ar
    10    12    13   ar
    11    13    14   ar
    12     9    14   ar
    13    14    15    1
    14     8    16    1
    15    16    17    1
    16    17    18    1
    17    18    19    1
    18    16    20   am
    19    20    21    2
    20    20    22    1
    21    22    23    1
    22    22    24    1
    23    24    25   ar
    24    25    26   ar
    25    26    27   ar
    26    27    28   ar
    27    28    29   ar
    28    24    29   ar
    29    22    30    1
    30    30    31   ar
    31    31    32   ar
    32    32    33   ar
    33    33    34   ar
    34    34    35   ar
    35    30    35   ar
    36     8     9    1
    37     8     6    1
    38     1    36    1
    39     1    37    1
    40     1    38    1
    41     2    39    1
    42     2    40    1
    43     3    41    1
    44     3    42    1
    45     4    43    1
    46     4    44    1
    47     5    45    1
    48     8    46    1
    49    10    47    1
    50    11    48    1
    51    12    49    1
    52    13    50    1
    53    15    51    1
    54    17    52    1
    55    17    53    1
    56    18    54    1
    57    18    55    1
    58    19    56    1
    59    19    57    1
    60    19    58    1
    61    23    59    1
    62    25    60    1
    63    26    61    1
    64    27    62    1
    65    28    63    1
    66    29    64    1
    67    31    65    1
    68    32    66    1
    69    33    67    1
    70    34    68    1
    71    35    69    1
