REMARK  6 active torsions:
REMARK  status: ('A' for Active; 'I' for Inactive)
REMARK       I    between atoms: C_2  and  N_3 
REMARK    1  A    between atoms: C_2  and  C_15 
REMARK    2  A    between atoms: N_3  and  C_4 
REMARK    3  A    between atoms: C_4  and  C_5 
REMARK    4  A    between atoms: C_5  and  C_6 
REMARK       I    between atoms: C_15  and  N_17 
REMARK    5  A    between atoms: N_17  and  C_18 
REMARK    6  A    between atoms: C_21  and  N_22 
ROOT
ATOM      1  O   UNL d   1       1.122   0.002   0.046  0.00  0.00    -0.262 OA
ATOM      2  C   UNL d   1       2.352   0.006   0.059  0.00  0.00     0.309 C 
ATOM      3  N   UNL d   1       3.079   0.907  -0.708  0.00  0.00    -0.353 N 
ATOM      4  H   UNL d   1       4.084   0.903  -0.732  0.00  0.00     0.162 HD
ENDROOT
BRANCH   2   5
ATOM      5  C   UNL d   1       3.100  -1.011   0.967  0.00  0.00     0.314 C 
ATOM      6  O   UNL d   1       2.421  -1.665   1.756  0.00  0.00    -0.262 OA
ATOM      7  N   UNL d   1       4.497  -1.070   0.913  0.00  0.00    -0.317 N 
ATOM      8  H   UNL d   1       4.991  -0.272   0.545  0.00  0.00     0.169 HD
BRANCH   7   9
ATOM      9  C   UNL d   1       5.256  -2.002   1.693  0.00  0.00     0.057 A 
ATOM     10  C   UNL d   1       6.428  -1.537   2.321  0.00  0.00     0.034 A 
ATOM     11  C   UNL d   1       7.231  -2.397   3.096  0.00  0.00     0.038 A 
ATOM     12  C   UNL d   1       6.876  -3.743   3.234  0.00  0.00     0.104 A 
ATOM     13  C   UNL d   1       5.730  -4.231   2.603  0.00  0.00     0.062 A 
ATOM     14  C   UNL d   1       4.932  -3.372   1.832  0.00  0.00     0.063 A 
ATOM     15 CL   UNL d   1       3.681  -4.152   0.923  0.00  0.00    -0.082 Cl
BRANCH  12  16
ATOM     16  N   UNL d   1       7.720  -4.662   4.014  0.00  0.00    -0.116 N 
ATOM     17  O   UNL d   1       8.731  -4.194   4.556  0.00  0.00    -0.532 OA
ATOM     18  O   UNL d   1       7.375  -5.851   4.076  0.00  0.00    -0.532 OA
ENDBRANCH  12  16
ENDBRANCH   7   9
ENDBRANCH   2   5
BRANCH   3  19
ATOM     19  C   UNL d   1       2.357   1.870  -1.542  0.00  0.00     0.128 C 
BRANCH  19  20
ATOM     20  C   UNL d   1       3.301   2.767  -2.333  0.00  0.00     0.060 C 
BRANCH  20  21
ATOM     21  C   UNL d   1       2.608   3.792  -3.171  0.00  0.00    -0.029 A 
ATOM     22  C   UNL d   1       1.704   3.585  -4.196  0.00  0.00     0.096 A 
ATOM     23  N   UNL d   1       1.364   4.806  -4.725  0.00  0.00    -0.365 N 
ATOM     24  C   UNL d   1       2.066   5.808  -4.094  0.00  0.00     0.042 A 
ATOM     25  H   UNL d   1       0.722   4.948  -5.493  0.00  0.00     0.165 HD
ATOM     26  C   UNL d   1       2.103   7.189  -4.329  0.00  0.00     0.030 A 
ATOM     27  C   UNL d   1       2.828   5.201  -3.096  0.00  0.00    -0.002 A 
ATOM     28  C   UNL d   1       2.956   7.958  -3.527  0.00  0.00     0.002 A 
ATOM     29  C   UNL d   1       3.711   7.379  -2.511  0.00  0.00     0.001 A 
ATOM     30  C   UNL d   1       3.644   6.005  -2.279  0.00  0.00     0.014 A 
ENDBRANCH  20  21
ENDBRANCH  19  20
ENDBRANCH   3  19
TORSDOF 6
