REMARK  9 active torsions:
REMARK  status: ('A' for Active; 'I' for Inactive)
REMARK    1  A    between atoms: C_2  and  C_11 
REMARK    2  A    between atoms: C_2  and  O_3 
REMARK    3  A    between atoms: O_3  and  C_4 
REMARK       I    between atoms: C_11  and  N_13 
REMARK    4  A    between atoms: N_13  and  C_14 
REMARK    5  A    between atoms: C_17  and  N_18 
REMARK    6  A    between atoms: N_18  and  C_19 
REMARK    7  A    between atoms: C_19  and  N_21 
REMARK       I    between atoms: N_21  and  C_22 
REMARK    8  A    between atoms: C_22  and  C_24 
REMARK    9  A    between atoms: C_29  and  N_30 
ROOT
ATOM      1  C   UNL d   1       4.882  -1.442   2.560  0.00  0.00     0.034 A 
ATOM      2  C   UNL d   1       6.091  -1.090   3.182  0.00  0.00     0.032 A 
ATOM      3  C   UNL d   1       6.690  -1.934   4.181  0.00  0.00     0.032 A 
ATOM      4  C   UNL d   1       6.074  -3.138   4.559  0.00  0.00     0.034 A 
ATOM      5  C   UNL d   1       4.924  -3.436   3.844  0.00  0.00     0.032 A 
ATOM      6  C   UNL d   1       4.299  -2.617   2.932  0.00  0.00     0.032 A 
ENDROOT
BRANCH   4   7
ATOM      7  N   UNL d   1       6.564  -4.037   5.596  0.00  0.00    -0.333 N 
ATOM      8  H   UNL d   1       7.394  -3.708   6.081  0.00  0.00     0.168 HD
BRANCH   7   9
ATOM      9  C   UNL d   1       5.894  -5.206   6.097  0.00  0.00     0.179 C 
ATOM     10  S   UNL d   1       4.347  -5.753   5.680  0.00  0.00    -0.040 SA
BRANCH   9  11
ATOM     11  N   UNL d   1       6.644  -5.959   7.024  0.00  0.00    -0.299 N 
ATOM     12  C   UNL d   1       6.125  -7.085   7.699  0.00  0.00     0.260 C 
ATOM     13  O   UNL d   1       5.128  -7.727   7.376  0.00  0.00    -0.267 OA
ATOM     14  H   UNL d   1       7.393  -5.463   7.489  0.00  0.00     0.171 HD
BRANCH  12  15
ATOM     15  C   UNL d   1       6.753  -7.690   8.887  0.00  0.00     0.065 A 
ATOM     16  C   UNL d   1       6.615  -9.110   8.917  0.00  0.00     0.020 A 
ATOM     17  C   UNL d   1       6.818  -9.847  10.079  0.00  0.00     0.001 A 
ATOM     18  C   UNL d   1       7.247  -9.193  11.220  0.00  0.00     0.002 A 
ATOM     19  C   UNL d   1       7.415  -7.804  11.210  0.00  0.00     0.037 A 
ATOM     20  C   UNL d   1       7.156  -7.039  10.051  0.00  0.00     0.118 A 
BRANCH  20  21
ATOM     21  N   UNL d   1       7.320  -5.587  10.173  0.00  0.00    -0.115 N 
ATOM     22  O   UNL d   1       7.710  -5.138  11.249  0.00  0.00    -0.532 OA
ATOM     23  O   UNL d   1       7.135  -4.876   9.170  0.00  0.00    -0.532 OA
ENDBRANCH  20  21
ENDBRANCH  12  15
ENDBRANCH   9  11
ENDBRANCH   7   9
ENDBRANCH   4   7
BRANCH   1  24
ATOM     24  N   UNL d   1       4.299  -0.735   1.487  0.00  0.00    -0.325 N 
ATOM     25  C   UNL d   1       2.911  -0.711   1.244  0.00  0.00     0.251 C 
ATOM     26  O   UNL d   1       2.078  -1.209   2.003  0.00  0.00    -0.270 OA
ATOM     27  H   UNL d   1       4.939  -0.255   0.872  0.00  0.00     0.169 HD
BRANCH  25  28
ATOM     28  C   UNL d   1       2.467   0.059  -0.027  0.00  0.00     0.217 C 
ATOM     29  C   UNL d   1       3.067   1.463   0.093  0.00  0.00     0.050 C 
BRANCH  28  30
ATOM     30  O   UNL d   1       1.024   0.079  -0.056  0.00  0.00    -0.335 OA
BRANCH  30  31
ATOM     31  C   UNL d   1       0.349   0.737  -1.050  0.00  0.00     0.091 A 
ATOM     32  C   UNL d   1       0.980   1.372  -2.122  0.00  0.00     0.038 A 
ATOM     33  C   UNL d   1       0.271   2.147  -3.036  0.00  0.00     0.003 A 
ATOM     34  C   UNL d   1      -1.113   2.182  -2.982  0.00  0.00     0.002 A 
ATOM     35  C   UNL d   1      -1.779   1.489  -1.971  0.00  0.00     0.026 A 
ATOM     36  C   UNL d   1      -1.053   0.796  -0.990  0.00  0.00     0.067 A 
ATOM     37 CL   UNL d   1      -1.951   0.014   0.264  0.00  0.00    -0.081 Cl
ENDBRANCH  30  31
ENDBRANCH  28  30
ENDBRANCH  25  28
ENDBRANCH   1  24
TORSDOF 9
