@<TRIPOS>MOLECULE
*****
 54 57 0 0 0
SMALL
GASTEIGER

@<TRIPOS>ATOM
      1 C           1.0992   -0.0216   -0.0485 C.3     1  UNL1        0.0788
      2 O           2.5222   -0.0221    0.0913 O.3     1  UNL1       -0.4950
      3 C           3.1610   -1.1606   -0.3198 C.ar    1  UNL1        0.1221
      4 C           4.3084   -1.5340    0.3513 C.ar    1  UNL1       -0.0164
      5 C           5.0554   -2.6212   -0.1191 C.ar    1  UNL1       -0.0147
      6 C           4.6384   -3.3943   -1.2336 C.ar    1  UNL1        0.1414
      7 O           5.4781   -4.4620   -1.4410 O.3     1  UNL1       -0.4933
      8 C           5.1348   -5.4332   -2.4101 C.3     1  UNL1        0.0789
      9 C           3.4807   -3.0021   -1.9426 C.ar    1  UNL1        0.0791
     10 N           3.0019   -3.6326   -3.1421 N.am    1  UNL1       -0.2818
     11 C           1.8922   -3.2619   -3.8944 C.2     1  UNL1        0.2276
     12 O           1.1616   -2.3104   -3.6266 O.2     1  UNL1       -0.2746
     13 C           1.6164   -4.1324   -5.1378 C.3     1  UNL1        0.0779
     14 S           0.0870   -3.4803   -5.9110 S.3     1  UNL1       -0.0783
     15 C          -0.1357   -4.4154   -7.3627 C.ar    1  UNL1        0.1724
     16 N           0.0857   -5.6942   -7.2864 N.ar    1  UNL1       -0.2209
     17 C          -0.1439   -6.3780   -8.4787 C.ar    1  UNL1        0.1043
     18 C           0.0173   -7.7518   -8.7567 C.ar    1  UNL1        0.0257
     19 C           0.3311   -8.8930   -7.9199 C.ar    1  UNL1       -0.0144
     20 C           1.3197   -9.8091   -8.3041 C.ar    1  UNL1       -0.0539
     21 C           1.4542  -11.0225   -7.6265 C.ar    1  UNL1       -0.0612
     22 C           0.6628  -11.2886   -6.5103 C.ar    1  UNL1       -0.0617
     23 C          -0.2888  -10.3586   -6.0929 C.ar    1  UNL1       -0.0612
     24 C          -0.4572   -9.1649   -6.7975 C.ar    1  UNL1       -0.0539
     25 C          -0.3145   -7.9081  -10.0962 C.ar    1  UNL1        0.0121
     26 N          -0.6535   -6.6803  -10.6094 N.ar    1  UNL1       -0.3546
     27 C          -0.5542   -5.7451   -9.6173 C.ar    1  UNL1        0.1310
     28 C          -0.8049   -4.3498   -9.6943 C.ar    1  UNL1        0.2785
     29 O          -1.1592   -3.8018  -10.7403 O.2     1  UNL1       -0.2653
     30 N          -0.5896   -3.6979   -8.4849 N.ar    1  UNL1       -0.2892
     31 C          -0.8505   -2.2583   -8.4624 C.3     1  UNL1        0.0172
     32 C           2.7803   -1.8882   -1.4418 C.ar    1  UNL1        0.0049
     33 H           0.7363    0.9735    0.2259 H       1  UNL1        0.0660
     34 H           0.6636   -0.7494    0.6421 H       1  UNL1        0.0660
     35 H           0.7436   -0.2014   -1.0683 H       1  UNL1        0.0660
     36 H           4.6152   -0.9863    1.2383 H       1  UNL1        0.0655
     37 H           5.9867   -2.8621    0.3936 H       1  UNL1        0.0656
     38 H           5.8142   -6.2867   -2.3477 H       1  UNL1        0.0660
     39 H           5.2762   -5.0080   -3.4085 H       1  UNL1        0.0660
     40 H           4.1226   -5.8213   -2.2460 H       1  UNL1        0.0660
     41 H           3.5301   -4.3915   -3.5255 H       1  UNL1        0.1549
     42 H           1.4808   -5.1727   -4.8269 H       1  UNL1        0.0475
     43 H           2.4691   -4.0564   -5.8220 H       1  UNL1        0.0475
     44 H           1.9722   -9.5936   -9.1469 H       1  UNL1        0.0624
     45 H           2.1574  -11.7699   -7.9844 H       1  UNL1        0.0618
     46 H           0.7847  -12.2228   -5.9685 H       1  UNL1        0.0618
     47 H          -0.9251  -10.5760   -5.2396 H       1  UNL1        0.0618
     48 H          -1.2317   -8.4655   -6.4919 H       1  UNL1        0.0624
     49 H          -0.3579   -8.7939  -10.7172 H       1  UNL1        0.0814
     50 H          -0.9351   -6.4901  -11.5645 H       1  UNL1        0.1656
     51 H          -1.1611   -1.8741   -9.4384 H       1  UNL1        0.0457
     52 H           0.0581   -1.7260   -8.1645 H       1  UNL1        0.0457
     53 H          -1.6491   -2.0403   -7.7451 H       1  UNL1        0.0457
     54 H           1.9106   -1.5247   -1.9534 H       1  UNL1        0.0674
@<TRIPOS>BOND
     1     1     2    1
     2     2     3    1
     3     3     4   ar
     4     4     5   ar
     5     5     6   ar
     6     6     7    1
     7     7     8    1
     8     6     9   ar
     9     9    10    1
    10    10    11   am
    11    11    12    2
    12    11    13    1
    13    13    14    1
    14    14    15    1
    15    15    16   ar
    16    16    17   ar
    17    17    18   ar
    18    18    19    1
    19    19    20   ar
    20    20    21   ar
    21    21    22   ar
    22    22    23   ar
    23    23    24   ar
    24    19    24   ar
    25    18    25   ar
    26    25    26   ar
    27    26    27   ar
    28    17    27   ar
    29    27    28   ar
    30    28    29    2
    31    28    30   ar
    32    15    30   ar
    33    30    31    1
    34     9    32   ar
    35     3    32   ar
    36     1    33    1
    37     1    34    1
    38     1    35    1
    39     4    36    1
    40     5    37    1
    41     8    38    1
    42     8    39    1
    43     8    40    1
    44    10    41    1
    45    13    42    1
    46    13    43    1
    47    20    44    1
    48    21    45    1
    49    22    46    1
    50    23    47    1
    51    24    48    1
    52    25    49    1
    53    26    50    1
    54    31    51    1
    55    31    52    1
    56    31    53    1
    57    32    54    1
