@<TRIPOS>MOLECULE
*****
 44 44 0 0 0
SMALL
GASTEIGER

@<TRIPOS>ATOM
      1 C           1.0395    0.1287   -0.0732 C.3     1  UNL1       -0.0636
      2 C           2.5690    0.0710   -0.0322 C.3     1  UNL1       -0.0376
      3 C           3.1050   -0.8066    1.1224 C.3     1  UNL1        0.0200
      4 C           2.5596   -2.2338    0.9842 C.3     1  UNL1       -0.0466
      5 N           4.5803   -0.8242    1.1812 N.am    1  UNL1       -0.3127
      6 C           5.2438   -1.4822    2.2086 C.2     1  UNL1        0.2147
      7 O           4.6392   -2.0447    3.1189 O.2     1  UNL1       -0.2758
      8 C           6.7696   -1.4797    2.1484 C.3     1  UNL1        0.0395
      9 C           7.3542   -2.3159    3.3049 C.3     1  UNL1        0.0214
     10 N           8.8198   -2.3609    3.3592 N.am    1  UNL1       -0.2973
     11 C           9.4734   -3.0742    4.3551 C.2     1  UNL1        0.3226
     12 O           8.8613   -3.6963    5.2231 O.2     1  UNL1       -0.2507
     13 N          10.8480   -3.0132    4.2635 N.am    1  UNL1       -0.1781
     14 O          11.5836   -3.7236    5.2525 O.3     1  UNL1       -0.2740
     15 C          13.0016   -3.5924    5.0564 C.3     1  UNL1        0.0983
     16 C          13.7207   -4.3585    6.1467 C.ar    1  UNL1       -0.0197
     17 C          13.6501   -5.7587    6.1892 C.ar    1  UNL1       -0.0563
     18 C          14.1108   -6.4587    7.3072 C.ar    1  UNL1       -0.0614
     19 C          14.7388   -5.7800    8.3491 C.ar    1  UNL1       -0.0617
     20 C          14.8917   -4.3970    8.2812 C.ar    1  UNL1       -0.0614
     21 C          14.3827   -3.6887    7.1879 C.ar    1  UNL1       -0.0563
     22 H           0.6933    0.7619   -0.8954 H       1  UNL1        0.0230
     23 H           0.6393    0.5294    0.8638 H       1  UNL1        0.0230
     24 H           0.5954   -0.8579   -0.2371 H       1  UNL1        0.0230
     25 H           2.9539    1.0940    0.0608 H       1  UNL1        0.0280
     26 H           2.9337   -0.3123   -0.9934 H       1  UNL1        0.0280
     27 H           2.7577   -0.3797    2.0726 H       1  UNL1        0.0495
     28 H           2.8918   -2.6778    0.0403 H       1  UNL1        0.0247
     29 H           1.4678   -2.2598    1.0183 H       1  UNL1        0.0247
     30 H           2.8927   -2.8863    1.7928 H       1  UNL1        0.0247
     31 H           5.1043   -0.3115    0.4832 H       1  UNL1        0.1490
     32 H           7.1208   -0.4447    2.2170 H       1  UNL1        0.0374
     33 H           7.0940   -1.8917    1.1862 H       1  UNL1        0.0374
     34 H           6.9963   -3.3516    3.2375 H       1  UNL1        0.0467
     35 H           7.0024   -1.9239    4.2675 H       1  UNL1        0.0467
     36 H           9.3601   -1.8650    2.6699 H       1  UNL1        0.1503
     37 H          11.3494   -2.4996    3.5578 H       1  UNL1        0.1841
     38 H          13.2766   -2.5320    5.0974 H       1  UNL1        0.0634
     39 H          13.2838   -3.9911    4.0751 H       1  UNL1        0.0634
     40 H          13.1913   -6.3087    5.3707 H       1  UNL1        0.0621
     41 H          13.9437   -7.5303    7.3813 H       1  UNL1        0.0618
     42 H          15.0980   -6.3279    9.2166 H       1  UNL1        0.0618
     43 H          15.3692   -3.8654    9.1007 H       1  UNL1        0.0618
     44 H          14.4805   -2.6060    7.1745 H       1  UNL1        0.0621
@<TRIPOS>BOND
     1     1     2    1
     2     2     3    1
     3     3     4    1
     4     3     5    1
     5     5     6   am
     6     6     7    2
     7     6     8    1
     8     8     9    1
     9     9    10    1
    10    10    11   am
    11    11    12    2
    12    11    13   am
    13    13    14    1
    14    14    15    1
    15    15    16    1
    16    16    17   ar
    17    17    18   ar
    18    18    19   ar
    19    19    20   ar
    20    20    21   ar
    21    16    21   ar
    22     1    22    1
    23     1    23    1
    24     1    24    1
    25     2    25    1
    26     2    26    1
    27     3    27    1
    28     4    28    1
    29     4    29    1
    30     4    30    1
    31     5    31    1
    32     8    32    1
    33     8    33    1
    34     9    34    1
    35     9    35    1
    36    10    36    1
    37    13    37    1
    38    15    38    1
    39    15    39    1
    40    17    40    1
    41    18    41    1
    42    19    42    1
    43    20    43    1
    44    21    44    1
