REMARK  14 active torsions:
REMARK  status: ('A' for Active; 'I' for Inactive)
REMARK    1  A    between atoms: C_2  and  N_3 
REMARK    2  A    between atoms: N_3  and  C_4 
REMARK    3  A    between atoms: N_3  and  C_6 
REMARK    4  A    between atoms: C_6  and  C_7 
REMARK    5  A    between atoms: C_7  and  N_8 
REMARK       I    between atoms: N_8  and  C_9 
REMARK    6  A    between atoms: C_9  and  C_11 
REMARK    7  A    between atoms: C_14  and  N_15 
REMARK    8  A    between atoms: N_15  and  C_16 
REMARK    9  A    between atoms: C_16  and  N_18 
REMARK       I    between atoms: N_18  and  C_19 
REMARK   10  A    between atoms: C_19  and  C_21 
REMARK   11  A    between atoms: C_26  and  O_27 
REMARK   12  A    between atoms: O_27  and  C_28 
REMARK   13  A    between atoms: C_28  and  C_29 
REMARK   14  A    between atoms: C_29  and  C_30 
ROOT
ATOM      1  C   UNL d   1      13.598   1.615  -3.148  0.00  0.00     0.179 C 
ATOM      2  S   UNL d   1      12.921   0.081  -2.909  0.00  0.00    -0.040 SA
ENDROOT
BRANCH   1   3
ATOM      3  N   UNL d   1      12.902   2.885  -3.157  0.00  0.00    -0.333 N 
ATOM      4  H   UNL d   1      13.433   3.720  -2.909  0.00  0.00     0.168 HD
BRANCH   3   5
ATOM      5  C   UNL d   1      11.447   3.095  -3.047  0.00  0.00     0.034 A 
ATOM      6  C   UNL d   1      10.823   4.348  -2.853  0.00  0.00     0.030 A 
ATOM      7  C   UNL d   1       9.421   4.431  -2.547  0.00  0.00     0.019 A 
ATOM      8  C   UNL d   1       8.626   3.277  -2.484  0.00  0.00     0.032 A 
ATOM      9  C   UNL d   1       9.225   2.061  -2.686  0.00  0.00     0.019 A 
ATOM     10  C   UNL d   1      10.571   2.015  -2.999  0.00  0.00     0.030 A 
BRANCH   8  11
ATOM     11  C   UNL d   1       7.158   3.286  -2.372  0.00  0.00     0.251 C 
ATOM     12  N   UNL d   1       6.554   2.240  -1.692  0.00  0.00    -0.355 N 
ATOM     13  H   UNL d   1       7.127   1.585  -1.167  0.00  0.00     0.162 HD
ATOM     14  O   UNL d   1       6.504   4.177  -2.932  0.00  0.00    -0.268 OA
BRANCH  12  15
ATOM     15  C   UNL d   1       5.111   2.184  -1.653  0.00  0.00     0.150 C 
BRANCH  15  16
ATOM     16  C   UNL d   1       4.539   1.065  -0.774  0.00  0.00     0.254 C 
BRANCH  16  17
ATOM     17  N   UNL d   1       2.996   1.074  -0.711  0.00  0.00    -0.070 N 
ATOM     18  H   UNL d   1       2.657   0.949  -1.677  0.00  0.00     0.279 HD
BRANCH  17  19
ATOM     19  C   UNL d   1       2.547  -0.136   0.106  0.00  0.00     0.230 C 
ATOM     20  C   UNL d   1       1.050  -0.367   0.085  0.00  0.00     0.034 C 
ENDBRANCH  17  19
BRANCH  17  21
ATOM     21  C   UNL d   1       2.503   2.418  -0.192  0.00  0.00     0.230 C 
ATOM     22  C   UNL d   1       1.007   2.615  -0.276  0.00  0.00     0.034 C 
ENDBRANCH  17  21
ENDBRANCH  16  17
ENDBRANCH  15  16
ENDBRANCH  12  15
ENDBRANCH   8  11
ENDBRANCH   3   5
ENDBRANCH   1   3
BRANCH   1  23
ATOM     23  N   UNL d   1      15.001   1.688  -3.343  0.00  0.00    -0.299 N 
ATOM     24  C   UNL d   1      15.900   0.612  -3.078  0.00  0.00     0.260 C 
ATOM     25  O   UNL d   1      15.589  -0.575  -2.971  0.00  0.00    -0.267 OA
ATOM     26  H   UNL d   1      15.409   2.587  -3.555  0.00  0.00     0.171 HD
BRANCH  24  27
ATOM     27  C   UNL d   1      17.359   0.798  -2.914  0.00  0.00     0.065 A 
ATOM     28  C   UNL d   1      18.101  -0.116  -3.708  0.00  0.00     0.020 A 
ATOM     29  C   UNL d   1      19.465  -0.308  -3.521  0.00  0.00     0.001 A 
ATOM     30  C   UNL d   1      20.130   0.463  -2.581  0.00  0.00     0.003 A 
ATOM     31  C   UNL d   1      19.411   1.343  -1.763  0.00  0.00     0.038 A 
ATOM     32  C   UNL d   1      18.018   1.495  -1.878  0.00  0.00     0.084 A 
BRANCH  32  33
ATOM     33  O   UNL d   1      17.510   2.294  -0.868  0.00  0.00    -0.350 OA
BRANCH  33  34
ATOM     34  C   UNL d   1      16.112   2.484  -0.917  0.00  0.00     0.180 C 
BRANCH  34  35
ATOM     35  C   UNL d   1      15.513   3.510   0.019  0.00  0.00     0.065 C 
BRANCH  35  36
ATOM     36  C   UNL d   1      14.002   3.591  -0.104  0.00  0.00    -0.056 C 
ATOM     37  C   UNL d   1      13.366   4.835  -0.213  0.00  0.00     0.007 C 
ATOM     38  C   UNL d   1      11.981   4.925  -0.075  0.00  0.00     0.001 C 
ATOM     39  C   UNL d   1      11.212   3.767   0.060  0.00  0.00     0.000 C 
ATOM     40  C   UNL d   1      11.819   2.519   0.011  0.00  0.00     0.001 C 
ATOM     41  C   UNL d   1      13.206   2.434  -0.038  0.00  0.00     0.007 C 
ENDBRANCH  35  36
ENDBRANCH  34  35
ENDBRANCH  33  34
ENDBRANCH  32  33
ENDBRANCH  24  27
ENDBRANCH   1  23
TORSDOF 14
