REMARK  10 active torsions:
REMARK  status: ('A' for Active; 'I' for Inactive)
REMARK    1  A    between atoms: C_2  and  O_3 
REMARK    2  A    between atoms: O_3  and  C_4 
REMARK    3  A    between atoms: C_9  and  N_10 
REMARK       I    between atoms: N_10  and  C_11 
REMARK    4  A    between atoms: N_10  and  C_22 
REMARK    5  A    between atoms: C_11  and  C_13 
REMARK    6  A    between atoms: C_16  and  C_17 
REMARK       I    between atoms: C_17  and  N_18 
REMARK    7  A    between atoms: C_20  and  N_21 
REMARK    8  A    between atoms: C_22  and  C_23 
REMARK    9  A    between atoms: C_22  and  C_31 
REMARK       I    between atoms: C_23  and  N_25 
REMARK   10  A    between atoms: N_25  and  C_26 
ROOT
ATOM      1  N   UNL d   1       4.940   0.856   1.574  0.00  0.00    -0.290 N 
ATOM      2  C   UNL d   1       5.838   1.884   2.031  0.00  0.00     0.269 C 
ATOM      3  O   UNL d   1       5.423   2.957   2.501  0.00  0.00    -0.266 OA
ENDROOT
BRANCH   1   4
ATOM      4  C   UNL d   1       5.273  -0.511   1.093  0.00  0.00     0.072 C 
ATOM      5  C   UNL d   1       6.471  -1.042   1.616  0.00  0.00     0.033 C 
ATOM      6  C   UNL d   1       7.075  -2.220   1.200  0.00  0.00     0.002 C 
ATOM      7  C   UNL d   1       6.306  -3.136   0.539  0.00  0.00     0.003 C 
ATOM      8  C   UNL d   1       5.037  -2.756   0.110  0.00  0.00     0.039 C 
ATOM      9  C   UNL d   1       4.528  -1.432   0.259  0.00  0.00     0.095 C 
BRANCH   9  10
ATOM     10  O   UNL d   1       3.196  -1.485  -0.206  0.00  0.00    -0.349 OA
BRANCH  10  11
ATOM     11  C   UNL d   1       2.393  -0.392  -0.639  0.00  0.00     0.171 C 
ATOM     12  C   UNL d   1       0.882  -0.310  -0.426  0.00  0.00     0.034 C 
ENDBRANCH  10  11
ENDBRANCH   9  10
ENDBRANCH   1   4
BRANCH   1  13
ATOM     13  C   UNL d   1       3.544   1.222   1.523  0.00  0.00     0.242 C 
BRANCH  13  14
ATOM     14  C   UNL d   1       2.511   0.183   2.404  0.00  0.00     0.247 C 
ATOM     15  O   UNL d   1       1.562   0.598   3.076  0.00  0.00    -0.271 OA
ATOM     16  N   UNL d   1       2.569  -1.200   2.295  0.00  0.00    -0.354 N 
ATOM     17  H   UNL d   1       3.057  -1.611   1.532  0.00  0.00     0.162 HD
BRANCH  16  18
ATOM     18  C   UNL d   1       1.638  -2.170   2.854  0.00  0.00     0.084 C 
ATOM     19  C   UNL d   1       0.165  -2.031   2.471  0.00  0.00     0.025 C 
ATOM     20  C   UNL d   1      -0.444  -3.332   2.971  0.00  0.00     0.002 C 
ATOM     21  C   UNL d   1       0.650  -4.383   2.770  0.00  0.00     0.002 C 
ATOM     22  C   UNL d   1       1.901  -3.606   2.355  0.00  0.00     0.025 C 
ENDBRANCH  16  18
ENDBRANCH  13  14
BRANCH  13  23
ATOM     23  C   UNL d   1       3.032   2.634   1.678  0.00  0.00     0.085 C 
ATOM     24  C   UNL d   1       2.078   3.208   2.486  0.00  0.00     0.037 C 
ATOM     25  C   UNL d   1       2.188   4.595   2.329  0.00  0.00     0.027 C 
ATOM     26  C   UNL d   1       3.083   4.794   1.309  0.00  0.00     0.142 C 
ATOM     27  O   UNL d   1       3.524   3.601   0.824  0.00  0.00    -0.324 OA
ENDBRANCH  13  23
ENDBRANCH   1  13
BRANCH   2  28
ATOM     28  C   UNL d   1       7.264   1.717   2.006  0.00  0.00     0.115 C 
ATOM     29  S   UNL d   1       8.138   2.074   3.442  0.00  0.00     0.019 SA
ATOM     30  N   UNL d   1       9.555   1.343   2.970  0.00  0.00    -0.203 NA
ATOM     31  C   UNL d   1       9.411   0.914   1.706  0.00  0.00     0.155 C 
ATOM     32  C   UNL d   1       8.143   1.210   1.078  0.00  0.00     0.065 C 
BRANCH  31  33
ATOM     33  C   UNL d   1      10.434   0.093   1.053  0.00  0.00     0.270 C 
ATOM     34  N   UNL d   1      11.642  -0.017   1.664  0.00  0.00    -0.365 N 
ATOM     35  H   UNL d   1      11.835   0.451   2.541  0.00  0.00     0.159 HD
ATOM     36  H   UNL d   1      12.365  -0.515   1.167  0.00  0.00     0.159 HD
ATOM     37  O   UNL d   1      10.228  -0.519  -0.004  0.00  0.00    -0.266 OA
ENDBRANCH  31  33
BRANCH  32  38
ATOM     38  N   UNL d   1       7.807   0.794  -0.175  0.00  0.00    -0.299 NA
ATOM     39  H   UNL d   1       8.365   0.009  -0.539  0.00  0.00     0.124 HD
ATOM     40  H   UNL d   1       6.830   0.630  -0.407  0.00  0.00     0.124 HD
ENDBRANCH  32  38
ENDBRANCH   2  28
TORSDOF 10
