REMARK  9 active torsions:
REMARK  status: ('A' for Active; 'I' for Inactive)
REMARK    1  A    between atoms: C_2  and  O_3 
REMARK    2  A    between atoms: O_3  and  C_4 
REMARK    3  A    between atoms: C_4  and  C_6 
REMARK    4  A    between atoms: C_9  and  N_10 
REMARK    5  A    between atoms: N_13  and  C_14 
REMARK    6  A    between atoms: C_18  and  N_19 
REMARK    7  A    between atoms: N_19  and  C_20 
REMARK    8  A    between atoms: C_20  and  N_22 
REMARK       I    between atoms: N_22  and  C_23 
REMARK    9  A    between atoms: C_23  and  C_25 
ROOT
ATOM      1  C   UNL d   1       4.927   0.201   3.055  0.00  0.00     0.041 A 
ATOM      2  C   UNL d   1       6.021   0.907   3.495  0.00  0.00     0.020 A 
ATOM      3  C   UNL d   1       6.489   0.713   4.822  0.00  0.00     0.033 A 
ATOM      4  C   UNL d   1       5.878  -0.174   5.772  0.00  0.00     0.057 A 
ATOM      5  C   UNL d   1       4.772  -0.937   5.287  0.00  0.00     0.062 A 
ATOM      6  C   UNL d   1       4.351  -0.662   3.968  0.00  0.00     0.049 A 
ENDROOT
BRANCH   5   7
ATOM      7  N   UNL d   1       4.062  -1.960   6.057  0.00  0.00    -0.331 N 
ATOM      8  H   UNL d   1       4.482  -2.136   6.944  0.00  0.00     0.168 HD
BRANCH   7   9
ATOM      9  C   UNL d   1       2.987  -2.811   5.647  0.00  0.00     0.179 C 
ATOM     10  S   UNL d   1       2.229  -2.822   4.139  0.00  0.00    -0.040 SA
BRANCH   9  11
ATOM     11  N   UNL d   1       2.524  -3.711   6.637  0.00  0.00    -0.299 N 
ATOM     12  C   UNL d   1       1.474  -4.627   6.392  0.00  0.00     0.257 C 
ATOM     13  O   UNL d   1       0.823  -4.749   5.357  0.00  0.00    -0.267 OA
ATOM     14  H   UNL d   1       2.970  -3.756   7.537  0.00  0.00     0.171 HD
BRANCH  12  15
ATOM     15  C   UNL d   1       0.959  -5.528   7.420  0.00  0.00     0.032 A 
ATOM     16  C   UNL d   1       0.392  -6.742   6.965  0.00  0.00     0.018 A 
ATOM     17  C   UNL d   1      -0.465  -7.468   7.782  0.00  0.00     0.025 A 
ATOM     18  C   UNL d   1      -0.684  -7.024   9.080  0.00  0.00     0.034 A 
ATOM     19 CL   UNL d   1      -1.642  -7.970  10.147  0.00  0.00    -0.084 Cl
ATOM     20  C   UNL d   1      -0.116  -5.828   9.537  0.00  0.00     0.025 A 
ATOM     21  C   UNL d   1       0.700  -5.064   8.702  0.00  0.00     0.018 A 
ENDBRANCH  12  15
ENDBRANCH   9  11
ENDBRANCH   7   9
ENDBRANCH   5   7
BRANCH   4  22
ATOM     22  N   UNL d   1       6.388  -0.177   7.071  0.00  0.00    -0.376 N 
ATOM     23  C   UNL d   1       6.851  -1.350   7.808  0.00  0.00     0.150 C 
ATOM     24  C   UNL d   1       5.917  -1.622   9.017  0.00  0.00     0.254 C 
ATOM     25  N   UNL d   1       5.698  -0.378   9.906  0.00  0.00    -0.068 N 
ATOM     26  C   UNL d   1       5.399   0.892   9.051  0.00  0.00     0.254 C 
ATOM     27  H   UNL d   1       6.578  -0.213  10.413  0.00  0.00     0.280 HD
ATOM     28  C   UNL d   1       6.407   1.056   7.884  0.00  0.00     0.150 C 
BRANCH  25  29
ATOM     29  C   UNL d   1       4.614  -0.650  10.947  0.00  0.00     0.230 C 
ATOM     30  C   UNL d   1       4.518   0.465  11.974  0.00  0.00     0.034 C 
ENDBRANCH  25  29
ENDBRANCH   4  22
BRANCH   1  31
ATOM     31  C   UNL d   1       4.443   0.153   1.633  0.00  0.00     0.293 C 
ATOM     32  O   UNL d   1       5.232   0.145   0.691  0.00  0.00    -0.259 OA
BRANCH  31  33
ATOM     33  O   UNL d   1       3.082   0.075   1.525  0.00  0.00    -0.318 OA
BRANCH  33  34
ATOM     34  C   UNL d   1       2.573   0.003   0.170  0.00  0.00     0.174 C 
ATOM     35  C   UNL d   1       1.046  -0.007   0.146  0.00  0.00     0.034 C 
ENDBRANCH  33  34
ENDBRANCH  31  33
ENDBRANCH   1  31
TORSDOF 9
