REMARK  4 active torsions:
REMARK  status: ('A' for Active; 'I' for Inactive)
REMARK    1  A    between atoms: C_6  and  N_7 
REMARK    2  A    between atoms: N_7  and  N_8 
REMARK       I    between atoms: N_8  and  C_9 
REMARK    3  A    between atoms: C_9  and  C_11 
REMARK    4  A    between atoms: C_20  and  O_21 
ROOT
ATOM      1  N   UNL d   1      -1.113   3.698   0.154  0.00  0.00    -0.187 NA
ATOM      2  C   UNL d   1      -1.837   4.901   0.090  0.00  0.00     0.247 C 
ATOM      3  O   UNL d   1      -1.427   5.821  -0.581  0.00  0.00    -0.273 OA
ATOM      4  H   UNL d   1      -0.211   3.809  -0.297  0.00  0.00     0.150 HD
ENDROOT
BRANCH   2   5
ATOM      5  C   UNL d   1      -3.051   5.083   0.985  0.00  0.00     0.061 A 
ATOM      6  C   UNL d   1      -3.694   6.323   0.944  0.00  0.00     0.031 A 
ATOM      7  C   UNL d   1      -4.744   6.669   1.826  0.00  0.00    -0.028 A 
ATOM      8  C   UNL d   1      -5.296   7.930   1.677  0.00  0.00    -0.005 C 
ATOM      9  C   UNL d   1      -5.255   5.806   2.814  0.00  0.00    -0.024 A 
ATOM     10  C   UNL d   1      -6.450   8.282   2.363  0.00  0.00     0.043 C 
ATOM     11  C   UNL d   1      -6.746   7.743   3.579  0.00  0.00    -0.016 C 
ATOM     12  C   UNL d   1      -6.310   6.402   3.701  0.00  0.00     0.009 C 
ATOM     13  C   UNL d   1      -4.616   4.495   2.792  0.00  0.00     0.049 A 
ATOM     14  C   UNL d   1      -3.521   4.173   1.929  0.00  0.00     0.081 A 
BRANCH  14  15
ATOM     15  O   UNL d   1      -2.865   2.977   2.046  0.00  0.00    -0.360 OA
ATOM     16  H   UNL d   1      -3.232   2.364   2.695  0.00  0.00     0.217 HD
ENDBRANCH  14  15
ENDBRANCH   2   5
BRANCH   1  17
ATOM     17  N   UNL d   1      -1.782   2.510  -0.315  0.00  0.00    -0.220 NA
ATOM     18  H   UNL d   1      -2.723   2.452   0.082  0.00  0.00     0.147 HD
BRANCH  17  19
ATOM     19  C   UNL d   1      -1.085   1.291  -0.055  0.00  0.00     0.023 A 
ATOM     20  C   UNL d   1      -1.794   0.075  -0.034  0.00  0.00     0.025 A 
ATOM     21  C   UNL d   1      -1.125  -1.157   0.013  0.00  0.00     0.002 A 
ATOM     22  C   UNL d   1       0.267  -1.198   0.024  0.00  0.00     0.007 A 
ATOM     23  C   UNL d   1       0.994  -0.008   0.017  0.00  0.00    -0.060 A 
ATOM     24  C   UNL d   1       2.493  -0.008  -0.006  0.00  0.00     0.048 C 
ATOM     25  C   UNL d   1       0.313   1.220  -0.015  0.00  0.00     0.031 A 
ENDBRANCH  17  19
ENDBRANCH   1  17
TORSDOF 4
