@<TRIPOS>MOLECULE
*****
 29 30 0 0 0
SMALL
GASTEIGER

@<TRIPOS>ATOM
      1 O           1.0615   -0.2265   -0.0666 O.2     1  UNL1       -0.2685
      2 C           2.2930   -0.1593   -0.0106 C.2     1  UNL1        0.2636
      3 N           3.0618   -1.0991    0.6634 N.am    1  UNL1       -0.2323
      4 N           2.3969   -2.1989    1.2177 N.pl3   1  UNL1       -0.2615
      5 C           3.1065   -3.1600    1.9460 C.ar    1  UNL1        0.0797
      6 C           4.1878   -2.8123    2.7670 C.ar    1  UNL1       -0.0339
      7 C           4.9381   -3.7926    3.4262 C.ar    1  UNL1       -0.0245
      8 C           4.6265   -5.1356    3.2518 C.ar    1  UNL1        0.1262
      9 F           5.3659   -6.0687    3.8660 F       1  UNL1       -0.2054
     10 C           3.5631   -5.5186    2.4501 C.ar    1  UNL1        0.0107
     11 C           2.8062   -4.5315    1.8168 C.ar    1  UNL1        0.1483
     12 F           1.7875   -4.9231    1.0346 F       1  UNL1       -0.2034
     13 C           3.0199    0.9602   -0.6842 C.ar    1  UNL1        0.0795
     14 C           4.0693    0.7236   -1.5879 C.ar    1  UNL1       -0.0460
     15 C           4.6680    1.7957   -2.2712 C.ar    1  UNL1       -0.0608
     16 C           4.2300    3.1035   -2.0559 C.ar    1  UNL1       -0.0583
     17 C           3.1926    3.3480   -1.1563 C.ar    1  UNL1       -0.0194
     18 C           2.5942    2.2811   -0.4768 C.ar    1  UNL1        0.1290
     19 O           1.6060    2.5371    0.4328 O.3     1  UNL1       -0.5060
     20 H           4.0738   -1.1229    0.6225 H       1  UNL1        0.1730
     21 H           1.3775   -2.2336    1.1398 H       1  UNL1        0.1701
     22 H           4.4247   -1.7652    2.9343 H       1  UNL1        0.0638
     23 H           5.7639   -3.5136    4.0734 H       1  UNL1        0.0647
     24 H           3.3341   -6.5692    2.3107 H       1  UNL1        0.0675
     25 H           4.4060   -0.2865   -1.8042 H       1  UNL1        0.0626
     26 H           5.4671    1.6151   -2.9890 H       1  UNL1        0.0618
     27 H           4.6936    3.9315   -2.5906 H       1  UNL1        0.0619
     28 H           2.8658    4.3718   -0.9949 H       1  UNL1        0.0654
     29 H           1.3196    3.4609    0.3666 H       1  UNL1        0.2922
@<TRIPOS>BOND
     1     1     2    2
     2     2     3   am
     3     3     4    1
     4     4     5    1
     5     5     6   ar
     6     6     7   ar
     7     7     8   ar
     8     8     9    1
     9     8    10   ar
    10    10    11   ar
    11     5    11   ar
    12    11    12    1
    13     2    13    1
    14    13    14   ar
    15    14    15   ar
    16    15    16   ar
    17    16    17   ar
    18    17    18   ar
    19    13    18   ar
    20    18    19    1
    21     3    20    1
    22     4    21    1
    23     6    22    1
    24     7    23    1
    25    10    24    1
    26    14    25    1
    27    15    26    1
    28    16    27    1
    29    17    28    1
    30    19    29    1
