REMARK  3 active torsions:
REMARK  status: ('A' for Active; 'I' for Inactive)
REMARK       I    between atoms: C_2  and  N_3 
REMARK    1  A    between atoms: C_2  and  C_14 
REMARK    2  A    between atoms: N_3  and  N_4 
REMARK       I    between atoms: N_4  and  C_5 
REMARK    3  A    between atoms: C_5  and  C_7 
ROOT
ATOM      1  O   UNL d   1       0.985  -0.111   0.123  0.00  0.00    -0.266 OA
ATOM      2  C   UNL d   1       2.215  -0.136   0.053  0.00  0.00     0.270 C 
ATOM      3  N   UNL d   1       2.941  -1.312  -0.087  0.00  0.00    -0.263 N 
ATOM      4  H   UNL d   1       3.957  -1.365  -0.034  0.00  0.00     0.190 HD
ENDROOT
BRANCH   3   5
ATOM      5  N   UNL d   1       2.253  -2.558  -0.146  0.00  0.00    -0.263 N 
ATOM      6  C   UNL d   1       2.976  -3.743  -0.188  0.00  0.00     0.273 C 
ATOM      7  O   UNL d   1       4.207  -3.775  -0.126  0.00  0.00    -0.266 OA
ATOM      8  H   UNL d   1       1.234  -2.514  -0.162  0.00  0.00     0.190 HD
BRANCH   6   9
ATOM      9  C   UNL d   1       2.212  -5.022  -0.275  0.00  0.00     0.072 A 
ATOM     10  C   UNL d   1       2.616  -6.138   0.480  0.00  0.00     0.020 A 
ATOM     11  C   UNL d   1       1.911  -7.350   0.398  0.00  0.00     0.001 A 
ATOM     12  C   UNL d   1       0.819  -7.468  -0.461  0.00  0.00     0.003 A 
ATOM     13  C   UNL d   1       0.437  -6.377  -1.241  0.00  0.00     0.043 A 
ATOM     14  C   UNL d   1       1.130  -5.165  -1.142  0.00  0.00     0.132 A 
ATOM     15  F   UNL d   1       0.742  -4.148  -1.923  0.00  0.00    -0.205 F 
ENDBRANCH   6   9
ENDBRANCH   3   5
BRANCH   2  16
ATOM     16  C   UNL d   1       2.985   1.146   0.144  0.00  0.00     0.035 A 
ATOM     17  C   UNL d   1       2.569   2.140   1.049  0.00  0.00     0.017 A 
ATOM     18  C   UNL d   1       3.256   3.359   1.144  0.00  0.00     0.003 A 
ATOM     19  C   UNL d   1       4.343   3.610   0.310  0.00  0.00     0.024 A 
ATOM     20  C   UNL d   1       4.735   2.641  -0.614  0.00  0.00     0.035 A 
ATOM     21 CL   UNL d   1       6.051   2.977  -1.674  0.00  0.00    -0.084 Cl
ATOM     22  C   UNL d   1       4.071   1.410  -0.699  0.00  0.00     0.041 A 
ENDBRANCH   2  16
TORSDOF 3
