REMARK  5 active torsions:
REMARK  status: ('A' for Active; 'I' for Inactive)
REMARK    1  A    between atoms: O_2  and  C_3 
REMARK    2  A    between atoms: C_3  and  C_5 
REMARK    3  A    between atoms: C_13  and  N_14 
REMARK       I    between atoms: N_14  and  C_15 
REMARK       I    between atoms: C_15  and  N_17 
REMARK    4  A    between atoms: N_17  and  C_18 
REMARK    5  A    between atoms: C_22  and  C_21 
ROOT
ATOM      1  N   UNL d   1       1.865  -5.282 -12.208  0.00  0.00    -0.325 N 
ATOM      2  C   UNL d   1       2.973  -4.704 -11.604  0.00  0.00     0.321 C 
ATOM      3  O   UNL d   1       3.341  -3.565 -11.880  0.00  0.00    -0.247 OA
ATOM      4  N   UNL d   1       3.661  -5.494 -10.686  0.00  0.00    -0.309 N 
ATOM      5  H   UNL d   1       1.579  -6.236 -12.052  0.00  0.00     0.165 HD
ATOM      6  H   UNL d   1       3.506  -6.492 -10.753  0.00  0.00     0.170 HD
ENDROOT
BRANCH   4   7
ATOM      7  C   UNL d   1       4.825  -4.979  -9.979  0.00  0.00     0.036 C 
ATOM      8  C   UNL d   1       5.989  -5.704  -9.777  0.00  0.00     0.030 C 
ATOM      9  C   UNL d   1       7.125  -5.134  -9.034  0.00  0.00     0.011 C 
ATOM     10  C   UNL d   1       7.261  -3.741  -8.579  0.00  0.00    -0.036 C 
ATOM     11  C   UNL d   1       6.005  -3.116  -8.691  0.00  0.00     0.011 C 
ATOM     12  C   UNL d   1       4.844  -3.713  -9.374  0.00  0.00     0.030 C 
BRANCH  10  13
ATOM     13  C   UNL d   1       8.621  -3.043  -7.721  0.00  0.00     0.117 C 
ATOM     14  C   UNL d   1      10.189  -2.249  -8.038  0.00  0.00     0.011 C 
ATOM     15  C   UNL d   1      11.009  -2.940  -8.866  0.00  0.00    -0.015 C 
ATOM     16  C   UNL d   1      12.231  -3.181  -9.638  0.00  0.00     0.036 C 
ATOM     17  C   UNL d   1      10.136  -4.090  -8.803  0.00  0.00     0.019 C 
ATOM     18  C   UNL d   1      11.986  -3.804 -10.827  0.00  0.00     0.035 C 
ATOM     19 CL   UNL d   1      13.090  -3.876 -12.146  0.00  0.00    -0.084 Cl
ATOM     20  C   UNL d   1      10.652  -4.286 -11.133  0.00  0.00     0.026 C 
ATOM     21  C   UNL d   1       9.726  -4.386 -10.177  0.00  0.00     0.026 C 
ATOM     22  N   UNL d   1       9.475  -4.243  -7.704  0.00  0.00    -0.280 NA
ATOM     23  H   UNL d   1       9.930  -4.058  -6.793  0.00  0.00     0.128 HD
ENDBRANCH  10  13
ENDBRANCH   4   7
BRANCH   1  24
ATOM     24  C   UNL d   1       1.117  -4.524 -13.208  0.00  0.00     0.189 A 
ATOM     25  S   UNL d   1       0.435  -3.037 -12.381  0.00  0.00    -0.129 SA
ATOM     26  C   UNL d   1      -1.277  -3.473 -12.641  0.00  0.00     0.079 A 
ATOM     27  C   UNL d   1      -1.949  -2.278 -13.303  0.00  0.00     0.020 C 
ATOM     28  C   UNL d   1      -1.290  -4.692 -13.524  0.00  0.00    -0.051 A 
ATOM     29  C   UNL d   1      -3.368  -2.669 -13.682  0.00  0.00     0.002 C 
ATOM     30  C   UNL d   1      -3.335  -3.830 -14.677  0.00  0.00     0.004 C 
ATOM     31  C   UNL d   1      -2.643  -5.065 -14.081  0.00  0.00     0.036 C 
ATOM     32  C   UNL d   1      -0.081  -5.247 -13.772  0.00  0.00     0.053 A 
BRANCH  32  33
ATOM     33  C   UNL d   1       0.097  -6.368 -14.712  0.00  0.00     0.292 C 
ATOM     34  O   UNL d   1      -0.519  -6.487 -15.789  0.00  0.00    -0.260 OA
BRANCH  33  35
ATOM     35  O   UNL d   1       0.977  -7.271 -14.229  0.00  0.00    -0.323 OA
ATOM     36  C   UNL d   1       1.148  -8.432 -15.058  0.00  0.00     0.213 C 
ENDBRANCH  33  35
ENDBRANCH  32  33
ENDBRANCH   1  24
TORSDOF 5
