REMARK  4 active torsions:
REMARK  status: ('A' for Active; 'I' for Inactive)
REMARK    1  A    between atoms: C_7  and  C_8 
REMARK    2  A    between atoms: C_9  and  C_10 
REMARK       I    between atoms: C_10  and  N_12 
REMARK    3  A    between atoms: N_12  and  N_13 
REMARK       I    between atoms: N_13  and  C_14 
REMARK    4  A    between atoms: C_14  and  C_16 
ROOT
ATOM      1  C   UNL d   1       3.182   4.056  -0.006  0.00  0.00     0.259 C 
ATOM      2  O   UNL d   1       2.605   5.140  -0.004  0.00  0.00    -0.267 OA
ATOM      3  N   UNL d   1       4.569   3.915  -0.005  0.00  0.00    -0.264 N 
ATOM      4  H   UNL d   1       5.069   3.026  -0.002  0.00  0.00     0.190 HD
ENDROOT
BRANCH   1   5
ATOM      5  C   UNL d   1       2.453   2.758  -0.004  0.00  0.00     0.076 C 
ATOM      6  C   UNL d   1       1.118   2.551  -0.001  0.00  0.00     0.017 C 
BRANCH   6   7
ATOM      7  C   UNL d   1       0.392   1.229   0.002  0.00  0.00    -0.030 A 
ATOM      8  C   UNL d   1      -1.025   1.236  -0.001  0.00  0.00     0.012 A 
ATOM      9  C   UNL d   1      -1.776   0.044  -0.006  0.00  0.00     0.001 A 
ATOM     10  C   UNL d   1      -1.136  -1.187   0.000  0.00  0.00     0.001 A 
ATOM     11  C   UNL d   1       0.250  -1.226   0.005  0.00  0.00     0.007 A 
ATOM     12  C   UNL d   1       1.016  -0.043   0.002  0.00  0.00    -0.052 A 
ATOM     13  C   UNL d   1       2.502  -0.233  -0.010  0.00  0.00     0.049 C 
ENDBRANCH   6   7
ENDBRANCH   1   5
BRANCH   3  14
ATOM     14  N   UNL d   1       5.367   5.083   0.025  0.00  0.00    -0.261 N 
ATOM     15  C   UNL d   1       6.759   5.021  -0.039  0.00  0.00     0.293 C 
ATOM     16  O   UNL d   1       7.351   3.938  -0.117  0.00  0.00    -0.264 OA
ATOM     17  H   UNL d   1       4.858   5.963  -0.017  0.00  0.00     0.190 HD
BRANCH  15  18
ATOM     18  C   UNL d   1       7.424   6.317   0.024  0.00  0.00     0.144 A 
ATOM     19  C   UNL d   1       7.160   7.439   0.793  0.00  0.00     0.045 A 
ATOM     20  C   UNL d   1       8.128   8.418   0.461  0.00  0.00     0.027 A 
ATOM     21  C   UNL d   1       8.931   7.848  -0.496  0.00  0.00     0.143 A 
ATOM     22  O   UNL d   1       8.530   6.571  -0.755  0.00  0.00    -0.317 OA
ENDBRANCH  15  18
ENDBRANCH   3  14
TORSDOF 4
