@<TRIPOS>MOLECULE
*****
 52 53 0 0 0
SMALL
GASTEIGER

@<TRIPOS>ATOM
      1 C           1.0422    0.0245   -0.0432 C.3     1  UNL1       -0.0653
      2 C           2.5556    0.0618   -0.0220 C.3     1  UNL1       -0.0559
      3 C           3.0870    0.9364   -1.1490 C.3     1  UNL1       -0.0532
      4 C           4.5874    1.1371   -0.9980 C.3     1  UNL1       -0.0500
      5 C           5.1481    1.9037   -2.1809 C.3     1  UNL1       -0.0186
      6 C           6.6502    2.1305   -2.0314 C.3     1  UNL1        0.0896
      7 O           7.0690    2.6152   -3.3112 O.3     1  UNL1       -0.4912
      8 C           8.4074    2.6023   -3.5691 C.ar    1  UNL1        0.1326
      9 C           8.9602    3.8436   -3.9581 C.ar    1  UNL1       -0.0192
     10 C          10.2986    3.9611   -4.3545 C.ar    1  UNL1       -0.0583
     11 C          11.1245    2.8517   -4.2971 C.ar    1  UNL1       -0.0608
     12 C          10.5777    1.6208   -3.9314 C.ar    1  UNL1       -0.0461
     13 C           9.2023    1.4565   -3.6106 C.ar    1  UNL1        0.0786
     14 C           8.7763    0.0531   -3.3072 C.2     1  UNL1        0.2531
     15 O           9.7214   -0.7115   -3.0526 O.2     1  UNL1       -0.2697
     16 N           7.4271   -0.3563   -3.2945 N.am    1  UNL1       -0.2635
     17 C           6.9438   -1.5704   -2.7447 C.2     1  UNL1        0.1412
     18 S           7.9126   -2.9502   -2.6266 S.2     1  UNL1       -0.0182
     19 N           5.5843   -1.5459   -2.3516 N.am    1  UNL1       -0.2937
     20 C           4.9267   -2.5511   -1.5471 C.ar    1  UNL1        0.0750
     21 C           3.6062   -2.9269   -1.8419 C.ar    1  UNL1       -0.0305
     22 C           2.9984   -4.0047   -1.1649 C.ar    1  UNL1        0.0176
     23 C           3.7411   -4.7533   -0.2403 C.ar    1  UNL1        0.2767
     24 N           3.1957   -5.9943    0.3262 N.pl3   1  UNL1        0.0797
     25 O           2.0537   -6.3306   -0.0141 O.2     1  UNL1        0.0414
     26 O           3.9210   -6.6443    1.0944 O.co2   1  UNL1       -0.5760
     27 C           5.0131   -4.3321    0.1395 C.ar    1  UNL1        0.0588
     28 C           5.5480   -3.1924   -0.4590 C.ar    1  UNL1        0.1444
     29 O           6.6598   -2.6438    0.1238 O.3     1  UNL1       -0.5047
     30 H           0.6694   -0.5899    0.7804 H       1  UNL1        0.0230
     31 H           0.6738   -0.3962   -0.9843 H       1  UNL1        0.0230
     32 H           0.6364    1.0347    0.0661 H       1  UNL1        0.0230
     33 H           2.9429   -0.9558   -0.1131 H       1  UNL1        0.0263
     34 H           2.9058    0.4444    0.9421 H       1  UNL1        0.0263
     35 H           2.6055    1.9200   -1.1214 H       1  UNL1        0.0265
     36 H           2.8361    0.4835   -2.1185 H       1  UNL1        0.0265
     37 H           5.0836    0.1755   -0.8741 H       1  UNL1        0.0266
     38 H           4.8115    1.6779   -0.0758 H       1  UNL1        0.0266
     39 H           4.6531    2.8760   -2.2758 H       1  UNL1        0.0298
     40 H           4.9200    1.3814   -3.1240 H       1  UNL1        0.0298
     41 H           7.1310    1.2013   -1.7241 H       1  UNL1        0.0696
     42 H           6.8856    2.8441   -1.2396 H       1  UNL1        0.0696
     43 H           8.3443    4.7413   -3.9587 H       1  UNL1        0.0654
     44 H          10.6967    4.9101   -4.7092 H       1  UNL1        0.0619
     45 H          12.1819    2.9301   -4.5448 H       1  UNL1        0.0618
     46 H          11.2497    0.7611   -3.9134 H       1  UNL1        0.0626
     47 H           6.7573    0.3366   -3.6049 H       1  UNL1        0.1568
     48 H           4.9577   -0.8695   -2.7695 H       1  UNL1        0.1539
     49 H           3.0396   -2.4291   -2.6250 H       1  UNL1        0.0639
     50 H           1.9649   -4.2686   -1.3877 H       1  UNL1        0.0686
     51 H           5.5788   -4.8590    0.9034 H       1  UNL1        0.0723
     52 H           7.3005   -3.3641    0.2666 H       1  UNL1        0.2922
@<TRIPOS>UNITY_ATOM_ATTR
24 1
charge 1
26 1
charge -1
@<TRIPOS>BOND
     1     1     2    1
     2     2     3    1
     3     3     4    1
     4     4     5    1
     5     5     6    1
     6     6     7    1
     7     7     8    1
     8     8     9   ar
     9     9    10   ar
    10    10    11   ar
    11    11    12   ar
    12    12    13   ar
    13     8    13   ar
    14    13    14    1
    15    14    15    2
    16    14    16   am
    17    16    17    1
    18    17    18    2
    19    17    19    1
    20    19    20    1
    21    20    21   ar
    22    21    22   ar
    23    22    23   ar
    24    23    24    1
    25    24    25    2
    26    24    26    1
    27    23    27   ar
    28    27    28   ar
    29    20    28   ar
    30    28    29    1
    31     1    30    1
    32     1    31    1
    33     1    32    1
    34     2    33    1
    35     2    34    1
    36     3    35    1
    37     3    36    1
    38     4    37    1
    39     4    38    1
    40     5    39    1
    41     5    40    1
    42     6    41    1
    43     6    42    1
    44     9    43    1
    45    10    44    1
    46    11    45    1
    47    12    46    1
    48    16    47    1
    49    19    48    1
    50    21    49    1
    51    22    50    1
    52    27    51    1
    53    29    52    1
