@<TRIPOS>MOLECULE
*****
 57 60 0 0 0
SMALL
GASTEIGER

@<TRIPOS>ATOM
      1 C           1.2059    0.0633   -0.0080 C.3     1  UNL1       -0.0377
      2 C           2.7261   -0.0120   -0.0173 C.ar    1  UNL1       -0.0168
      3 C           3.4911   -1.2179   -0.0127 C.ar    1  UNL1        0.0807
      4 C           3.1931   -2.6835    0.0031 C.2     1  UNL1        0.2643
      5 O           2.0610   -3.1660   -0.0094 O.2     1  UNL1       -0.2683
      6 N           4.3331   -3.5464    0.0417 N.am    1  UNL1       -0.2491
      7 N           4.2361   -4.9598   -0.0559 N.3     1  UNL1       -0.2541
      8 S           5.1620   -0.8609   -0.0463 S.2     1  UNL1       -0.0653
      9 C           4.9352    0.7841   -0.0923 C.ar    1  UNL1        0.0979
     10 C           3.6313    1.2015   -0.0495 C.ar    1  UNL1        0.0742
     11 C           3.4285    2.6913   -0.0659 C.ar    1  UNL1        0.2654
     12 O           2.3112    3.1983   -0.0095 O.2     1  UNL1       -0.2668
     13 N           4.6265    3.4619   -0.1027 N.ar    1  UNL1       -0.2559
     14 C           4.5921    4.9612   -0.0561 C.3     1  UNL1        0.0560
     15 C           5.9453    5.7240   -0.1151 C.ar    1  UNL1       -0.0275
     16 C           6.3919    6.4962    0.9819 C.ar    1  UNL1       -0.0569
     17 C           7.7056    6.9970    1.0398 C.ar    1  UNL1       -0.0614
     18 C           8.6053    6.7300    0.0122 C.ar    1  UNL1       -0.0617
     19 C           8.1809    5.9907   -1.0882 C.ar    1  UNL1       -0.0614
     20 C           6.8587    5.5144   -1.1656 C.ar    1  UNL1       -0.0569
     21 C           5.8161    2.8850    0.2856 C.ar    1  UNL1        0.3335
     22 O           6.6192    3.4769    1.0159 O.2     1  UNL1       -0.2462
     23 N           6.0645    1.5853   -0.0934 N.ar    1  UNL1       -0.2784
     24 C           7.4457    1.0618   -0.0081 C.3     1  UNL1        0.1048
     25 C           8.6247    2.0487   -0.1143 C.2     1  UNL1        0.2332
     26 O           8.5476    3.2390   -0.3823 O.2     1  UNL1       -0.2738
     27 N           9.8774    1.5326    0.0359 N.am    1  UNL1       -0.3097
     28 C          10.9614    2.4968   -0.0056 C.3     1  UNL1        0.0369
     29 C          12.3279    1.8999   -0.0098 C.ar    1  UNL1       -0.0303
     30 C          13.4410    2.7526   -0.0141 C.ar    1  UNL1       -0.0571
     31 C          14.7226    2.2110   -0.0178 C.ar    1  UNL1       -0.0615
     32 C          14.8953    0.8264   -0.0171 C.ar    1  UNL1       -0.0617
     33 C          13.7966   -0.0206   -0.0185 C.ar    1  UNL1       -0.0615
     34 C          12.5245    0.5159   -0.0190 C.ar    1  UNL1       -0.0571
     35 H           0.7361   -0.9277   -0.0085 H       1  UNL1        0.0278
     36 H           0.8254    0.5923   -0.8910 H       1  UNL1        0.0278
     37 H           0.8284    0.5923    0.8760 H       1  UNL1        0.0278
     38 H           5.2663   -3.1400   -0.0313 H       1  UNL1        0.1690
     39 H           3.2402   -5.2059   -0.0332 H       1  UNL1        0.1405
     40 H           4.6377   -5.3855    0.7857 H       1  UNL1        0.1405
     41 H           4.0553    5.2607    0.8524 H       1  UNL1        0.0544
     42 H           3.9949    5.3057   -0.9085 H       1  UNL1        0.0544
     43 H           5.7580    6.6394    1.8538 H       1  UNL1        0.0621
     44 H           8.0481    7.5418    1.9172 H       1  UNL1        0.0618
     45 H           9.6430    7.0457    0.0917 H       1  UNL1        0.0618
     46 H           8.9113    5.6764   -1.8323 H       1  UNL1        0.0618
     47 H           6.6127    4.8359   -1.9777 H       1  UNL1        0.0621
     48 H           7.5644    0.3955   -0.8749 H       1  UNL1        0.0589
     49 H           7.5483    0.4583    0.9026 H       1  UNL1        0.0589
     50 H          10.0155    0.5362    0.0144 H       1  UNL1        0.1491
     51 H          10.8444    3.1476    0.8722 H       1  UNL1        0.0512
     52 H          10.8489    3.1288   -0.8990 H       1  UNL1        0.0512
     53 H          13.3146    3.8360   -0.0136 H       1  UNL1        0.0621
     54 H          15.5884    2.8661   -0.0194 H       1  UNL1        0.0618
     55 H          15.8907    0.3988   -0.0158 H       1  UNL1        0.0618
     56 H          13.9064   -1.0995   -0.0183 H       1  UNL1        0.0618
     57 H          11.7033   -0.1867   -0.0245 H       1  UNL1        0.0621
@<TRIPOS>BOND
     1     1     2    1
     2     2     3   ar
     3     3     4    1
     4     4     5    2
     5     4     6   am
     6     6     7    1
     7     3     8   ar
     8     8     9   ar
     9     9    10   ar
    10     2    10   ar
    11    10    11   ar
    12    11    12    2
    13    11    13   ar
    14    13    14    1
    15    14    15    1
    16    15    16   ar
    17    16    17   ar
    18    17    18   ar
    19    18    19   ar
    20    19    20   ar
    21    15    20   ar
    22    13    21   ar
    23    21    22    2
    24    21    23   ar
    25     9    23   ar
    26    23    24    1
    27    24    25    1
    28    25    26    2
    29    25    27   am
    30    27    28    1
    31    28    29    1
    32    29    30   ar
    33    30    31   ar
    34    31    32   ar
    35    32    33   ar
    36    33    34   ar
    37    29    34   ar
    38     1    35    1
    39     1    36    1
    40     1    37    1
    41     6    38    1
    42     7    39    1
    43     7    40    1
    44    14    41    1
    45    14    42    1
    46    16    43    1
    47    17    44    1
    48    18    45    1
    49    19    46    1
    50    20    47    1
    51    24    48    1
    52    24    49    1
    53    27    50    1
    54    28    51    1
    55    28    52    1
    56    30    53    1
    57    31    54    1
    58    32    55    1
    59    33    56    1
    60    34    57    1
