REMARK  6 active torsions:
REMARK  status: ('A' for Active; 'I' for Inactive)
REMARK    1  A    between atoms: C_2  and  C_3 
REMARK    2  A    between atoms: C_3  and  C_4 
REMARK    3  A    between atoms: C_4  and  N_5 
REMARK    4  A    between atoms: C_4  and  C_9 
REMARK       I    between atoms: N_5  and  C_6 
REMARK       I    between atoms: C_6  and  N_7 
REMARK       I    between atoms: C_9  and  N_11 
REMARK    5  A    between atoms: N_11  and  N_12 
REMARK       I    between atoms: N_12  and  C_13 
REMARK    6  A    between atoms: C_13  and  C_15 
ROOT
ATOM      1  C   UNL d   1       5.184  -2.850  -0.057  0.00  0.00     0.259 C 
ATOM      2  O   UNL d   1       4.429  -3.825  -0.147  0.00  0.00    -0.269 OA
ATOM      3  N   UNL d   1       6.559  -3.045  -0.063  0.00  0.00    -0.265 N 
ATOM      4  H   UNL d   1       7.247  -2.294  -0.068  0.00  0.00     0.190 HD
ENDROOT
BRANCH   1   5
ATOM      5  C   UNL d   1       4.638  -1.359  -0.049  0.00  0.00     0.180 C 
BRANCH   5   6
ATOM      6  C   UNL d   1       3.070  -1.435  -0.057  0.00  0.00     0.035 C 
BRANCH   6   7
ATOM      7  C   UNL d   1       2.366  -0.084  -0.083  0.00  0.00    -0.002 C 
ATOM      8  C   UNL d   1       0.862  -0.058  -0.065  0.00  0.00     0.005 C 
ENDBRANCH   6   7
ENDBRANCH   5   6
BRANCH   5   9
ATOM      9  N   UNL d   1       5.184  -0.559   1.074  0.00  0.00    -0.330 N 
ATOM     10  C   UNL d   1       5.004   0.743   1.413  0.00  0.00     0.314 C 
ATOM     11  N   UNL d   1       4.555   1.606   0.484  0.00  0.00    -0.352 N 
ATOM     12  O   UNL d   1       5.218   1.133   2.561  0.00  0.00    -0.248 OA
ATOM     13  H   UNL d   1       4.269   1.295  -0.426  0.00  0.00     0.160 HD
ATOM     14  H   UNL d   1       4.033   2.397   0.852  0.00  0.00     0.160 HD
ATOM     15  H   UNL d   1       5.546  -1.078   1.865  0.00  0.00     0.165 HD
ENDBRANCH   5   9
ENDBRANCH   1   5
BRANCH   3  16
ATOM     16  N   UNL d   1       7.063  -4.390  -0.177  0.00  0.00    -0.263 N 
ATOM     17  C   UNL d   1       8.433  -4.624  -0.123  0.00  0.00     0.271 C 
ATOM     18  O   UNL d   1       9.259  -3.720  -0.035  0.00  0.00    -0.266 OA
ATOM     19  H   UNL d   1       6.362  -5.130  -0.137  0.00  0.00     0.190 HD
BRANCH  17  20
ATOM     20  C   UNL d   1       8.897  -6.045  -0.161  0.00  0.00     0.051 A 
ATOM     21  C   UNL d   1       8.357  -6.999  -1.028  0.00  0.00     0.022 A 
ATOM     22  C   UNL d   1       8.874  -8.303  -1.037  0.00  0.00     0.045 A 
ATOM     23  C   UNL d   1       9.911  -8.609  -0.172  0.00  0.00     0.125 A 
ATOM     24 CL   UNL d   1      10.571 -10.192  -0.108  0.00  0.00    -0.062 Cl
ATOM     25  N   UNL d   1      10.472  -7.717   0.668  0.00  0.00    -0.248 NA
ATOM     26  C   UNL d   1       9.963  -6.452   0.642  0.00  0.00     0.135 A 
ENDBRANCH  17  20
ENDBRANCH   3  16
TORSDOF 6
