@<TRIPOS>MOLECULE
*****
 70 74 0 0 0
SMALL
GASTEIGER

@<TRIPOS>ATOM
      1 C           0.9172    0.0034   -0.1256 C.3     1  UNL1       -0.0121
      2 N           2.3837   -0.0427   -0.0654 N.3     1  UNL1       -0.2933
      3 C           2.8418   -1.3289    0.4741 C.3     1  UNL1        0.0392
      4 C           2.4034   -1.5581    1.9249 C.3     1  UNL1       -0.0193
      5 N           2.9536   -2.8517    2.4781 N.4     1  UNL1        0.2318
      6 C           4.4545   -2.9150    2.4788 C.3     1  UNL1       -0.0433
      7 C           2.4004   -3.0780    3.8591 C.3     1  UNL1       -0.0433
      8 C           2.9297    0.1890   -1.4261 C.3     1  UNL1        0.0570
      9 C           4.4197    0.0739   -1.4744 C.ar    1  UNL1        0.1197
     10 C           5.2149   -0.9921   -1.8482 C.ar    1  UNL1       -0.0188
     11 C           6.5408   -0.5919   -1.6381 C.ar    1  UNL1       -0.0156
     12 C           6.4834    0.6943   -1.1417 C.ar    1  UNL1        0.1355
     13 C           7.5561    1.6139   -0.8392 C.ar    1  UNL1        0.0235
     14 C           8.5168    1.7643   -1.8181 C.ar    1  UNL1       -0.0501
     15 C           9.7179    2.3696   -1.5093 C.ar    1  UNL1       -0.0458
     16 C           9.9761    3.0394   -0.2962 C.ar    1  UNL1        0.0675
     17 C          11.1584    3.7993   -0.0106 C.ar    1  UNL1        0.0505
     18 N          12.1956    4.0366   -0.9497 N.pl3   1  UNL1       -0.3137
     19 C          12.1721    3.8315   -2.3471 C.ar    1  UNL1        0.0316
     20 C          13.0485    2.9175   -2.9484 C.ar    1  UNL1       -0.0371
     21 C          12.8360    2.4988   -4.2753 C.ar    1  UNL1       -0.0175
     22 C          11.7112    2.9367   -4.9870 C.ar    1  UNL1        0.1305
     23 O          11.4843    2.3445   -6.2173 O.3     1  UNL1       -0.4380
     24 C          10.3600    2.7154   -6.9376 C.ar    1  UNL1        0.2204
     25 C          10.1653    4.0385   -7.3221 C.ar    1  UNL1        0.0004
     26 C           8.9751    4.3842   -7.9526 C.ar    1  UNL1       -0.0553
     27 C           8.0618    3.3870   -8.2671 C.ar    1  UNL1       -0.0434
     28 C           8.3738    2.0814   -7.9186 C.ar    1  UNL1        0.0314
     29 N           9.4905    1.7238   -7.2388 N.ar    1  UNL1       -0.2210
     30 C          10.8660    3.8732   -4.3865 C.ar    1  UNL1       -0.0175
     31 C          11.1388    4.3789   -3.1155 C.ar    1  UNL1       -0.0371
     32 C          11.3011    4.3198    1.2811 C.ar    1  UNL1        0.0238
     33 C          10.3097    4.1001    2.2272 C.ar    1  UNL1        0.1718
     34 N           9.2020    3.4135    1.9132 N.ar    1  UNL1       -0.2105
     35 C           8.9773    2.8904    0.6870 C.ar    1  UNL1        0.2157
     36 C           7.7886    2.1658    0.4285 C.ar    1  UNL1        0.0210
     37 O           5.1929    1.1105   -1.0165 O.2     1  UNL1       -0.4584
     38 H           0.4836   -0.0596    0.8777 H       1  UNL1        0.0391
     39 H           0.5128   -0.8217   -0.7233 H       1  UNL1        0.0391
     40 H           0.5689    0.9530   -0.5398 H       1  UNL1        0.0391
     41 H           3.9326   -1.3160    0.4871 H       1  UNL1        0.0479
     42 H           2.5313   -2.1697   -0.1601 H       1  UNL1        0.0479
     43 H           1.3156   -1.6439    1.9945 H       1  UNL1        0.0827
     44 H           2.7510   -0.7456    2.5733 H       1  UNL1        0.0827
     45 H           2.6040   -3.6178    1.8845 H       1  UNL1        0.2028
     46 H           4.8323   -2.0749    3.0673 H       1  UNL1        0.0777
     47 H           4.8154   -2.8653    1.4492 H       1  UNL1        0.0777
     48 H           4.7557   -3.8730    2.9054 H       1  UNL1        0.0777
     49 H           2.7486   -2.2633    4.5005 H       1  UNL1        0.0777
     50 H           2.7607   -4.0448    4.2138 H       1  UNL1        0.0777
     51 H           1.3091   -3.0800    3.7921 H       1  UNL1        0.0777
     52 H           2.6235    1.1730   -1.7981 H       1  UNL1        0.0506
     53 H           2.5173   -0.5621   -2.1146 H       1  UNL1        0.0506
     54 H           4.8650   -1.9481   -2.2102 H       1  UNL1        0.0652
     55 H           7.4434   -1.1545   -1.8374 H       1  UNL1        0.0655
     56 H           8.3945    1.3497   -2.8214 H       1  UNL1        0.0625
     57 H          10.4630    2.2542   -2.2773 H       1  UNL1        0.0626
     58 H          13.0156    4.5544   -0.6456 H       1  UNL1        0.1522
     59 H          13.8237    2.4287   -2.3606 H       1  UNL1        0.0637
     60 H          13.5148    1.7739   -4.7230 H       1  UNL1        0.0655
     61 H          10.8989    4.7984   -7.0771 H       1  UNL1        0.0671
     62 H           8.7676    5.4221   -8.1973 H       1  UNL1        0.0620
     63 H           7.1370    3.6216   -8.7842 H       1  UNL1        0.0633
     64 H           7.7053    1.2660   -8.1845 H       1  UNL1        0.0831
     65 H           9.9294    4.1774   -4.8410 H       1  UNL1        0.0655
     66 H          10.4155    5.0531   -2.6641 H       1  UNL1        0.0637
     67 H          12.1851    4.8904    1.5605 H       1  UNL1        0.0696
     68 H          10.3806    4.4665    3.2487 H       1  UNL1        0.1376
     69 H           8.4997    3.2736    2.6349 H       1  UNL1        0.4529
     70 H           7.0604    1.9825    1.2114 H       1  UNL1        0.0691
@<TRIPOS>UNITY_ATOM_ATTR
5 1
charge 1
34 1
charge 1
@<TRIPOS>BOND
     1     1     2    1
     2     2     3    1
     3     3     4    1
     4     4     5    1
     5     5     6    1
     6     5     7    1
     7     2     8    1
     8     8     9    1
     9     9    10   ar
    10    10    11   ar
    11    11    12   ar
    12    12    13    1
    13    13    14   ar
    14    14    15   ar
    15    15    16   ar
    16    16    17   ar
    17    17    18    1
    18    18    19    1
    19    19    20   ar
    20    20    21   ar
    21    21    22   ar
    22    22    23    1
    23    23    24    1
    24    24    25   ar
    25    25    26   ar
    26    26    27   ar
    27    27    28   ar
    28    28    29   ar
    29    24    29   ar
    30    22    30   ar
    31    30    31   ar
    32    19    31   ar
    33    17    32   ar
    34    32    33   ar
    35    33    34   ar
    36    34    35   ar
    37    16    35   ar
    38    35    36   ar
    39    13    36   ar
    40    12    37   ar
    41     9    37   ar
    42     1    38    1
    43     1    39    1
    44     1    40    1
    45     3    41    1
    46     3    42    1
    47     4    43    1
    48     4    44    1
    49     5    45    1
    50     6    46    1
    51     6    47    1
    52     6    48    1
    53     7    49    1
    54     7    50    1
    55     7    51    1
    56     8    52    1
    57     8    53    1
    58    10    54    1
    59    11    55    1
    60    14    56    1
    61    15    57    1
    62    18    58    1
    63    20    59    1
    64    21    60    1
    65    25    61    1
    66    26    62    1
    67    27    63    1
    68    28    64    1
    69    30    65    1
    70    31    66    1
    71    32    67    1
    72    33    68    1
    73    34    69    1
    74    36    70    1
