@<TRIPOS>MOLECULE
*****
 49 49 0 0 0
SMALL
GASTEIGER

@<TRIPOS>ATOM
      1 C           1.0946   -0.1337    0.0147 C.3     1  UNL1        0.0790
      2 O           2.5198   -0.1117    0.0283 O.3     1  UNL1       -0.4914
      3 C           3.1160    1.1261    0.0255 C.ar    1  UNL1        0.1616
      4 C           4.5281    1.0940    0.0085 C.ar    1  UNL1       -0.0116
      5 C           5.2972    2.2787   -0.0136 C.ar    1  UNL1       -0.0266
      6 C           6.8155    2.2053   -0.0346 C.3     1  UNL1        0.0369
      7 N           7.4998    3.4957   -0.0603 N.am    1  UNL1       -0.3112
      8 C           8.8679    3.5984   -0.0813 C.2     1  UNL1        0.2133
      9 O           9.6047    2.6142   -0.0797 O.2     1  UNL1       -0.2758
     10 C           9.3911    5.0335   -0.1067 C.3     1  UNL1        0.0254
     11 C          10.9241    5.0448   -0.1290 C.3     1  UNL1       -0.0291
     12 C          11.5140    6.4497   -0.1550 C.3     1  UNL1        0.0120
     13 N          12.9701    6.4419   -0.1759 N.am    1  UNL1       -0.3149
     14 C          13.6775    7.6282   -0.2009 C.2     1  UNL1        0.2184
     15 O          13.0975    8.7135   -0.2061 O.2     1  UNL1       -0.2752
     16 C          15.2207    7.5180   -0.2219 C.3     1  UNL1        0.0386
     17 C          15.7308    6.7970    1.0330 C.3     1  UNL1       -0.0518
     18 C          15.6946    6.7658   -1.4725 C.3     1  UNL1       -0.0518
     19 C          15.8301    8.9338   -0.2483 C.3     1  UNL1       -0.0518
     20 C           4.6007    3.4936   -0.0158 C.ar    1  UNL1       -0.0534
     21 C           3.2091    3.5411    0.0138 C.ar    1  UNL1       -0.0162
     22 C           2.4680    2.3673    0.0368 C.ar    1  UNL1        0.1585
     23 O           1.1058    2.4780    0.0716 O.3     1  UNL1       -0.5033
     24 H           0.7597   -1.1740    0.0034 H       1  UNL1        0.0660
     25 H           0.7006    0.3377   -0.8934 H       1  UNL1        0.0660
     26 H           0.6874    0.3199    0.9255 H       1  UNL1        0.0660
     27 H           5.0229    0.1215    0.0117 H       1  UNL1        0.0658
     28 H           7.1431    1.6438   -0.9186 H       1  UNL1        0.0512
     29 H           7.1684    1.6659    0.8535 H       1  UNL1        0.0512
     30 H           6.9721    4.3518   -0.0619 H       1  UNL1        0.1490
     31 H           9.0216    5.5656    0.7791 H       1  UNL1        0.0359
     32 H           8.9959    5.5435   -0.9944 H       1  UNL1        0.0359
     33 H          11.2758    4.4866   -1.0057 H       1  UNL1        0.0285
     34 H          11.3012    4.5086    0.7509 H       1  UNL1        0.0285
     35 H          11.1959    7.0166    0.7275 H       1  UNL1        0.0462
     36 H          11.1703    6.9945   -1.0418 H       1  UNL1        0.0462
     37 H          13.4603    5.5565   -0.1720 H       1  UNL1        0.1487
     38 H          15.3551    5.7708    1.0950 H       1  UNL1        0.0239
     39 H          15.4171    7.3206    1.9427 H       1  UNL1        0.0239
     40 H          16.8266    6.7463    1.0381 H       1  UNL1        0.0239
     41 H          15.3177    5.7385   -1.4981 H       1  UNL1        0.0239
     42 H          16.7899    6.7145   -1.5080 H       1  UNL1        0.0239
     43 H          15.3546    7.2666   -2.3856 H       1  UNL1        0.0239
     44 H          15.5280    9.5124    0.6325 H       1  UNL1        0.0239
     45 H          15.5025    9.4904   -1.1342 H       1  UNL1        0.0239
     46 H          16.9255    8.8992   -0.2637 H       1  UNL1        0.0239
     47 H           5.1065    4.4492   -0.0391 H       1  UNL1        0.0622
     48 H           2.7255    4.5123    0.0165 H       1  UNL1        0.0655
     49 H           0.8460    3.4118    0.0964 H       1  UNL1        0.2923
@<TRIPOS>BOND
     1     1     2    1
     2     2     3    1
     3     3     4   ar
     4     4     5   ar
     5     5     6    1
     6     6     7    1
     7     7     8   am
     8     8     9    2
     9     8    10    1
    10    10    11    1
    11    11    12    1
    12    12    13    1
    13    13    14   am
    14    14    15    2
    15    14    16    1
    16    16    17    1
    17    16    18    1
    18    16    19    1
    19     5    20   ar
    20    20    21   ar
    21    21    22   ar
    22     3    22   ar
    23    22    23    1
    24     1    24    1
    25     1    25    1
    26     1    26    1
    27     4    27    1
    28     6    28    1
    29     6    29    1
    30     7    30    1
    31    10    31    1
    32    10    32    1
    33    11    33    1
    34    11    34    1
    35    12    35    1
    36    12    36    1
    37    13    37    1
    38    17    38    1
    39    17    39    1
    40    17    40    1
    41    18    41    1
    42    18    42    1
    43    18    43    1
    44    19    44    1
    45    19    45    1
    46    19    46    1
    47    20    47    1
    48    21    48    1
    49    23    49    1
