@<TRIPOS>MOLECULE
*****
 50 52 0 0 0
SMALL
GASTEIGER

@<TRIPOS>ATOM
      1 C           2.4985   -0.0598   -0.0129 C.3     1  UNL1       -0.0390
      2 C           0.9960    0.0110    0.0018 C.ar    1  UNL1       -0.0382
      3 C           0.2337   -1.1769    0.0038 C.ar    1  UNL1       -0.0564
      4 C          -1.1771   -1.1492   -0.0023 C.ar    1  UNL1       -0.0402
      5 C          -1.8509    0.0727   -0.0089 C.ar    1  UNL1        0.0345
      6 N          -3.2734    0.1454   -0.0354 N.am    1  UNL1       -0.2777
      7 C          -4.0069    1.3345   -0.0599 C.2     1  UNL1        0.3031
      8 O          -3.5877    2.4906   -0.0479 O.2     1  UNL1       -0.2648
      9 C          -5.5343    1.2116   -0.1153 C.2     1  UNL1        0.2993
     10 O          -6.0787    0.1147   -0.1087 O.2     1  UNL1       -0.2652
     11 N          -6.1599    2.4489   -0.1667 N.am    1  UNL1       -0.3067
     12 C          -7.5890    2.5740   -0.1280 C.3     1  UNL1        0.0222
     13 C          -8.2166    4.0073   -0.0826 C.3     1  UNL1        0.0175
     14 C          -9.3874    3.8946    0.9143 C.ar    1  UNL1       -0.0026
     15 C         -10.4333    2.9874    0.8559 C.ar    1  UNL1       -0.0510
     16 C         -11.2330    2.9876    2.0324 C.ar    1  UNL1       -0.0545
     17 C         -10.8015    3.9128    2.9515 C.ar    1  UNL1       -0.0240
     18 S          -9.4088    4.7279    2.4237 S.2     1  UNL1       -0.1010
     19 C          -7.2957    5.2121    0.2257 C.3     1  UNL1       -0.0414
     20 C          -8.0815    6.4293   -0.2894 C.3     1  UNL1       -0.0522
     21 C          -8.8552    5.9259   -1.5035 C.3     1  UNL1       -0.0522
     22 C          -8.6751    4.4084   -1.5093 C.3     1  UNL1       -0.0414
     23 C          -1.0750    1.2341    0.0042 C.ar    1  UNL1       -0.0281
     24 C           0.3247    1.2434    0.0044 C.ar    1  UNL1        0.0411
     25 C           1.0503    2.5645    0.0004 C.2     1  UNL1        0.2418
     26 N           0.3213    3.7252   -0.0074 N.am    1  UNL1       -0.3253
     27 O           2.2729    2.6578    0.0015 O.2     1  UNL1       -0.2704
     28 H           2.8653   -1.0895   -0.0030 H       1  UNL1        0.0278
     29 H           2.9090    0.4389    0.8720 H       1  UNL1        0.0278
     30 H           2.8852    0.4156   -0.9214 H       1  UNL1        0.0278
     31 H           0.7452   -2.1402    0.0057 H       1  UNL1        0.0621
     32 H          -1.7112   -2.0970   -0.0041 H       1  UNL1        0.0636
     33 H          -3.8080   -0.7206   -0.0513 H       1  UNL1        0.1553
     34 H          -5.5512    3.2604   -0.0864 H       1  UNL1        0.1492
     35 H          -7.9081    1.9780    0.7369 H       1  UNL1        0.0471
     36 H          -7.9780    2.0304   -1.0010 H       1  UNL1        0.0471
     37 H         -10.5670    2.2958    0.0323 H       1  UNL1        0.0626
     38 H         -12.0721    2.3274    2.2031 H       1  UNL1        0.0623
     39 H         -11.2160    4.1321    3.9249 H       1  UNL1        0.0693
     40 H          -6.3556    5.1605   -0.3333 H       1  UNL1        0.0274
     41 H          -7.0251    5.3218    1.2797 H       1  UNL1        0.0274
     42 H          -7.4205    7.2649   -0.5373 H       1  UNL1        0.0266
     43 H          -8.7902    6.8023    0.4592 H       1  UNL1        0.0266
     44 H          -8.4685    6.3698   -2.4281 H       1  UNL1        0.0266
     45 H          -9.9158    6.1925   -1.4353 H       1  UNL1        0.0266
     46 H          -7.8776    4.1727   -2.2301 H       1  UNL1        0.0274
     47 H          -9.5769    3.8936   -1.8547 H       1  UNL1        0.0274
     48 H          -1.5699    2.1836    0.0133 H       1  UNL1        0.0644
     49 H          -0.6837    3.8069   -0.0131 H       1  UNL1        0.1453
     50 H           0.8488    4.5873   -0.0122 H       1  UNL1        0.1453
@<TRIPOS>BOND
     1     1     2    1
     2     2     3   ar
     3     3     4   ar
     4     4     5   ar
     5     5     6    1
     6     6     7   am
     7     7     8    2
     8     7     9    1
     9     9    10    2
    10     9    11   am
    11    11    12    1
    12    12    13    1
    13    13    14    1
    14    14    15   ar
    15    15    16   ar
    16    16    17   ar
    17    17    18   ar
    18    14    18   ar
    19    13    19    1
    20    19    20    1
    21    20    21    1
    22    21    22    1
    23    13    22    1
    24     5    23   ar
    25    23    24   ar
    26     2    24   ar
    27    24    25    1
    28    25    26   am
    29    25    27    2
    30     1    28    1
    31     1    29    1
    32     1    30    1
    33     3    31    1
    34     4    32    1
    35     6    33    1
    36    11    34    1
    37    12    35    1
    38    12    36    1
    39    15    37    1
    40    16    38    1
    41    17    39    1
    42    19    40    1
    43    19    41    1
    44    20    42    1
    45    20    43    1
    46    21    44    1
    47    21    45    1
    48    22    46    1
    49    22    47    1
    50    23    48    1
    51    26    49    1
    52    26    50    1
