REMARK  7 active torsions:
REMARK  status: ('A' for Active; 'I' for Inactive)
REMARK    1  A    between atoms: C_2  and  C_3 
REMARK       I    between atoms: C_2  and  N_24 
REMARK    2  A    between atoms: C_3  and  O_4 
REMARK    3  A    between atoms: O_4  and  C_5 
REMARK    4  A    between atoms: C_5  and  C_7 
REMARK    5  A    between atoms: C_9  and  C_10 
REMARK    6  A    between atoms: N_17  and  C_18 
REMARK    7  A    between atoms: N_24  and  C_25 
ROOT
ATOM      1  C   UNL d   1       2.700  -2.172  -2.982  0.00  0.00     0.312 C 
ATOM      2  O   UNL d   1       3.905  -2.352  -3.143  0.00  0.00    -0.258 OA
ENDROOT
BRANCH   1   3
ATOM      3  O   UNL d   1       2.196  -1.345  -2.008  0.00  0.00    -0.307 OA
BRANCH   3   4
ATOM      4  C   UNL d   1       3.216  -0.709  -1.183  0.00  0.00     0.282 C 
BRANCH   4   5
ATOM      5  C   UNL d   1       2.714   0.226  -0.092  0.00  0.00     0.246 C 
ATOM      6  O   UNL d   1       1.492   0.247   0.154  0.00  0.00    -0.271 OA
ATOM      7  N   UNL d   1       3.540   0.966   0.749  0.00  0.00    -0.332 N 
ATOM      8  H   UNL d   1       2.872   1.190   1.501  0.00  0.00     0.168 HD
BRANCH   7   9
ATOM      9  C   UNL d   1       4.886   1.435   1.160  0.00  0.00     0.003 C 
ATOM     10  C   UNL d   1       4.917   1.161   2.482  0.00  0.00     0.052 C 
ATOM     11  C   UNL d   1       6.102   0.607   2.875  0.00  0.00     0.054 C 
ATOM     12  C   UNL d   1       6.865   1.650   3.081  0.00  0.00     0.023 C 
ATOM     13  N   UNL d   1       6.849   2.291   4.285  0.00  0.00    -0.318 N 
ATOM     14  C   UNL d   1       7.439   2.200   1.990  0.00  0.00     0.095 C 
ATOM     15  C   UNL d   1       7.899   3.111   4.276  0.00  0.00     0.299 C 
ATOM     16  H   UNL d   1       6.360   1.907   5.077  0.00  0.00     0.169 HD
ATOM     17  O   UNL d   1       8.489   3.445   5.343  0.00  0.00    -0.254 OA
ATOM     18  N   UNL d   1       8.204   3.326   2.848  0.00  0.00    -0.226 NA
ATOM     19  H   UNL d   1       9.228   3.440   2.831  0.00  0.00     0.133 HD
ATOM     20  C   UNL d   1       6.295   1.917   0.836  0.00  0.00     0.075 C 
ENDBRANCH   7   9
ENDBRANCH   4   5
ENDBRANCH   3   4
ENDBRANCH   1   3
BRANCH   1  21
ATOM     21  C   UNL d   1       1.665  -2.785  -3.784  0.00  0.00     0.136 A 
ATOM     22  C   UNL d   1       0.539  -2.224  -4.365  0.00  0.00     0.072 A 
ATOM     23  C   UNL d   1      -0.091  -3.248  -5.116  0.00  0.00     0.090 A 
ATOM     24  N   UNL d   1       0.647  -4.367  -5.090  0.00  0.00    -0.166 NA
ATOM     25  N   UNL d   1       1.709  -4.078  -4.283  0.00  0.00    -0.227 N 
BRANCH  23  26
ATOM     26  C   UNL d   1      -1.321  -3.134  -5.907  0.00  0.00    -0.006 A 
ATOM     27  C   UNL d   1      -2.449  -3.919  -5.630  0.00  0.00     0.014 A 
ATOM     28  C   UNL d   1      -3.571  -3.868  -6.469  0.00  0.00     0.001 A 
ATOM     29  C   UNL d   1      -3.616  -2.962  -7.527  0.00  0.00     0.000 A 
ATOM     30  C   UNL d   1      -2.518  -2.144  -7.783  0.00  0.00     0.001 A 
ATOM     31  C   UNL d   1      -1.376  -2.232  -6.979  0.00  0.00     0.014 A 
ENDBRANCH  23  26
BRANCH  25  32
ATOM     32  C   UNL d   1       2.620  -5.111  -3.940  0.00  0.00     0.059 A 
ATOM     33  C   UNL d   1       3.236  -5.869  -4.944  0.00  0.00     0.031 A 
ATOM     34  C   UNL d   1       4.054  -6.946  -4.590  0.00  0.00     0.002 A 
ATOM     35  C   UNL d   1       4.301  -7.229  -3.246  0.00  0.00     0.000 A 
ATOM     36  C   UNL d   1       3.689  -6.468  -2.249  0.00  0.00     0.002 A 
ATOM     37  C   UNL d   1       2.851  -5.406  -2.591  0.00  0.00     0.031 A 
ENDBRANCH  25  32
ENDBRANCH   1  21
TORSDOF 7
