REMARK  12 active torsions:
REMARK  status: ('A' for Active; 'I' for Inactive)
REMARK    1  A    between atoms: C_2  and  C_3 
REMARK       I    between atoms: C_2  and  N_12 
REMARK    2  A    between atoms: C_6  and  N_7 
REMARK    3  A    between atoms: C_14  and  N_15 
REMARK    4  A    between atoms: N_15  and  C_16 
REMARK    5  A    between atoms: C_16  and  C_17 
REMARK    6  A    between atoms: C_17  and  C_18 
REMARK    7  A    between atoms: C_18  and  C_19 
REMARK    8  A    between atoms: C_26  and  N_27 
REMARK    9  A    between atoms: N_27  and  C_28 
REMARK   10  A    between atoms: C_28  and  C_29 
REMARK   11  A    between atoms: C_29  and  C_30 
REMARK   12  A    between atoms: C_30  and  C_31 
ROOT
ATOM      1  O   UNL d   1       1.312  -0.086  -0.261  0.00  0.00    -0.265 OA
ATOM      2  C   UNL d   1       2.542   0.065  -0.203  0.00  0.00     0.295 C 
ATOM      3  N   UNL d   1       3.177   1.036  -1.046  0.00  0.00    -0.006 N 
ATOM      4  N   UNL d   1       4.429   0.829  -1.624  0.00  0.00     0.044 NA
ATOM      5  C   UNL d   1       4.637   1.961  -2.330  0.00  0.00     0.755 A 
ATOM      6  N   UNL d   1       3.647   2.882  -2.172  0.00  0.00     0.131 NA
ATOM      7  C   UNL d   1       2.755   2.325  -1.383  0.00  0.00     0.742 A 
ENDROOT
BRANCH   2   8
ATOM      8  C   UNL d   1       3.199  -0.793   0.800  0.00  0.00     0.035 C 
ATOM      9  C   UNL d   1       4.318  -0.298   1.458  0.00  0.00     0.019 C 
ATOM     10  C   UNL d   1       5.100  -1.163   2.217  0.00  0.00     0.037 C 
ATOM     11  C   UNL d   1       4.674  -2.480   2.443  0.00  0.00     0.102 C 
ATOM     12  C   UNL d   1       3.455  -2.935   1.925  0.00  0.00     0.037 C 
ATOM     13  C   UNL d   1       2.700  -2.074   1.120  0.00  0.00     0.019 C 
BRANCH  11  14
ATOM     14  N   UNL d   1       5.509  -3.362   3.267  0.00  0.00    -0.116 N 
ATOM     15  O   UNL d   1       6.568  -2.904   3.706  0.00  0.00    -0.532 OA
ATOM     16  O   UNL d   1       5.093  -4.514   3.481  0.00  0.00    -0.532 OA
ENDBRANCH  11  14
ENDBRANCH   2   8
BRANCH   7  17
ATOM     17  N   UNL d   1       1.686   3.004  -0.896  0.00  0.00    -0.222 N 
ATOM     18  H   UNL d   1       1.555   3.949  -1.245  0.00  0.00     0.177 HD
BRANCH  17  19
ATOM     19  C   UNL d   1       0.626   2.437  -0.093  0.00  0.00     0.138 C 
BRANCH  19  20
ATOM     20  C   UNL d   1      -0.439   3.457   0.217  0.00  0.00     0.025 C 
BRANCH  20  21
ATOM     21  C   UNL d   1      -1.540   2.853   1.096  0.00  0.00     0.040 C 
BRANCH  21  22
ATOM     22  C   UNL d   1      -2.631   3.843   1.421  0.00  0.00    -0.058 A 
ATOM     23  C   UNL d   1      -2.424   5.226   1.304  0.00  0.00     0.007 A 
ATOM     24  C   UNL d   1      -3.373   6.135   1.749  0.00  0.00     0.001 A 
ATOM     25  C   UNL d   1      -4.587   5.674   2.239  0.00  0.00     0.000 A 
ATOM     26  C   UNL d   1      -4.830   4.304   2.325  0.00  0.00     0.001 A 
ATOM     27  C   UNL d   1      -3.852   3.389   1.932  0.00  0.00     0.007 A 
ENDBRANCH  21  22
ENDBRANCH  20  21
ENDBRANCH  19  20
ENDBRANCH  17  19
ENDBRANCH   7  17
BRANCH   5  28
ATOM     28  N   UNL d   1       5.705   2.278  -3.128  0.00  0.00    -0.221 N 
ATOM     29  H   UNL d   1       6.419   1.583  -3.309  0.00  0.00     0.177 HD
BRANCH  28  30
ATOM     30  C   UNL d   1       5.893   3.611  -3.759  0.00  0.00     0.138 C 
BRANCH  30  31
ATOM     31  C   UNL d   1       7.173   3.741  -4.632  0.00  0.00     0.025 C 
BRANCH  31  32
ATOM     32  C   UNL d   1       7.365   5.141  -5.302  0.00  0.00     0.040 C 
BRANCH  32  33
ATOM     33  C   UNL d   1       8.643   5.303  -6.124  0.00  0.00    -0.058 A 
ATOM     34  C   UNL d   1       9.391   4.199  -6.556  0.00  0.00     0.007 A 
ATOM     35  C   UNL d   1      10.634   4.360  -7.172  0.00  0.00     0.001 A 
ATOM     36  C   UNL d   1      11.106   5.632  -7.471  0.00  0.00     0.000 A 
ATOM     37  C   UNL d   1      10.346   6.746  -7.122  0.00  0.00     0.001 A 
ATOM     38  C   UNL d   1       9.125   6.585  -6.450  0.00  0.00     0.007 A 
ENDBRANCH  32  33
ENDBRANCH  31  32
ENDBRANCH  30  31
ENDBRANCH  28  30
ENDBRANCH   5  28
TORSDOF 12
