REMARK  7 active torsions:
REMARK  status: ('A' for Active; 'I' for Inactive)
REMARK    1  A    between atoms: C_2  and  N_3 
REMARK       I    between atoms: N_3  and  C_4 
REMARK    2  A    between atoms: C_4  and  C_6 
REMARK    3  A    between atoms: C_11  and  N_12 
REMARK       I    between atoms: N_12  and  C_13 
REMARK    4  A    between atoms: C_13  and  C_15 
REMARK       I    between atoms: C_15  and  N_17 
REMARK    5  A    between atoms: C_18  and  N_17 
REMARK    6  A    between atoms: C_18  and  C_24 
REMARK    7  A    between atoms: C_18  and  C_19 
ROOT
ATOM      1  N   UNL d   1       2.510   2.742   4.660  0.00  0.00    -0.318 N 
ATOM      2  C   UNL d   1       1.696   2.000   5.524  0.00  0.00     0.314 C 
ATOM      3  O   UNL d   1       0.499   1.790   5.284  0.00  0.00    -0.262 OA
ATOM      4  H   UNL d   1       3.196   3.346   5.107  0.00  0.00     0.169 HD
ENDROOT
BRANCH   1   5
ATOM      5  C   UNL d   1       2.215   2.934   3.251  0.00  0.00     0.042 A 
ATOM      6  C   UNL d   1       2.777   3.948   2.488  0.00  0.00    -0.035 A 
ATOM      7  C   UNL d   1       2.506   4.011   1.093  0.00  0.00     0.010 A 
ATOM      8  C   UNL d   1       3.608   5.000   3.150  0.00  0.00     0.050 C 
ATOM      9  C   UNL d   1       1.714   3.049   0.436  0.00  0.00     0.017 A 
ATOM     10  C   UNL d   1       1.114   2.039   1.174  0.00  0.00     0.034 A 
ATOM     11  C   UNL d   1       1.364   2.062   2.557  0.00  0.00     0.047 A 
BRANCH  10  12
ATOM     12  C   UNL d   1       0.393   0.911   0.447  0.00  0.00     0.251 C 
ATOM     13  N   UNL d   1      -0.145  -0.170   1.130  0.00  0.00    -0.357 N 
ATOM     14  H   UNL d   1      -0.239  -0.996   0.547  0.00  0.00     0.162 HD
ATOM     15  O   UNL d   1       0.409   0.860  -0.783  0.00  0.00    -0.268 OA
BRANCH  13  16
ATOM     16  C   UNL d   1      -1.112  -0.068   2.202  0.00  0.00     0.118 C 
ATOM     17  C   UNL d   1      -1.478  -1.415   2.799  0.00  0.00     0.026 C 
ENDBRANCH  13  16
ENDBRANCH  10  12
ENDBRANCH   1   5
BRANCH   2  18
ATOM     18  C   UNL d   1       2.174   1.558   6.924  0.00  0.00     0.310 C 
ATOM     19  O   UNL d   1       2.841   2.344   7.596  0.00  0.00    -0.262 OA
ATOM     20  N   UNL d   1       1.738   0.344   7.470  0.00  0.00    -0.343 N 
ATOM     21  H   UNL d   1       1.780   0.341   8.481  0.00  0.00     0.163 HD
BRANCH  20  22
ATOM     22  C   UNL d   1       1.033  -0.825   6.885  0.00  0.00     0.128 C 
BRANCH  22  23
ATOM     23  C   UNL d   1      -0.536  -0.660   6.849  0.00  0.00     0.005 C 
ATOM     24  C   UNL d   1      -1.230  -1.848   6.165  0.00  0.00     0.012 C 
ATOM     25  C   UNL d   1      -1.160  -0.545   8.240  0.00  0.00     0.012 C 
ENDBRANCH  22  23
BRANCH  22  26
ATOM     26  C   UNL d   1       1.660  -1.143   5.544  0.00  0.00     0.005 C 
ATOM     27  C   UNL d   1       1.142  -0.727   4.354  0.00  0.00     0.017 C 
ATOM     28  C   UNL d   1       1.994  -0.882   3.254  0.00  0.00     0.008 C 
ATOM     29  C   UNL d   1       3.077  -1.643   3.568  0.00  0.00     0.050 C 
ATOM     30  S   UNL d   1       3.082  -2.044   5.241  0.00  0.00    -0.104 SA
ENDBRANCH  22  26
ENDBRANCH  20  22
ENDBRANCH   2  18
TORSDOF 7
