REMARK  11 active torsions:
REMARK  status: ('A' for Active; 'I' for Inactive)
REMARK    1  A    between atoms: C_2  and  C_3 
REMARK    2  A    between atoms: C_4  and  C_3 
REMARK    3  A    between atoms: C_4  and  N_13 
REMARK    4  A    between atoms: C_4  and  C_5 
REMARK       I    between atoms: C_5  and  N_7 
REMARK    5  A    between atoms: N_7  and  C_8 
REMARK    6  A    between atoms: C_8  and  C_9 
REMARK    7  A    between atoms: C_9  and  C_10 
REMARK       I    between atoms: N_13  and  C_14 
REMARK    8  A    between atoms: N_13  and  C_25 
REMARK    9  A    between atoms: C_14  and  C_16 
REMARK   10  A    between atoms: C_19  and  C_20 
REMARK       I    between atoms: C_20  and  N_21 
REMARK   11  A    between atoms: C_23  and  N_24 
ROOT
ATOM      1  N   UNL d   1       4.955  -0.754  -2.828  0.00  0.00    -0.299 N 
ATOM      2  C   UNL d   1       4.053  -0.950  -3.981  0.00  0.00     0.269 C 
ATOM      3  O   UNL d   1       4.502  -1.426  -5.015  0.00  0.00    -0.266 OA
ENDROOT
BRANCH   1   4
ATOM      4  C   UNL d   1       4.514  -0.431  -1.404  0.00  0.00     0.185 C 
BRANCH   4   5
ATOM      5  C   UNL d   1       3.015  -0.502  -1.156  0.00  0.00     0.241 C 
ATOM      6  O   UNL d   1       2.373  -1.464  -1.587  0.00  0.00    -0.271 OA
ATOM      7  N   UNL d   1       2.435   0.366  -0.246  0.00  0.00    -0.359 N 
ATOM      8  H   UNL d   1       2.991   0.807   0.475  0.00  0.00     0.162 HD
BRANCH   7   9
ATOM      9  C   UNL d   1       1.034   0.138  -0.019  0.00  0.00     0.123 C 
BRANCH   9  10
ATOM     10  C   UNL d   1       0.412   0.783   1.185  0.00  0.00     0.023 C 
BRANCH  10  11
ATOM     11  C   UNL d   1      -1.130   0.768   1.099  0.00  0.00    -0.021 C 
ATOM     12  C   UNL d   1      -1.704  -0.640   0.918  0.00  0.00     0.009 C 
ATOM     13  C   UNL d   1      -1.690   1.410   2.359  0.00  0.00     0.009 C 
ENDBRANCH  10  11
ENDBRANCH   9  10
ENDBRANCH   7   9
ENDBRANCH   4   5
BRANCH   4  14
ATOM     14  C   UNL d   1       5.011  -1.438  -0.316  0.00  0.00     0.035 C 
BRANCH  14  15
ATOM     15  C   UNL d   1       3.914  -1.968   0.609  0.00  0.00    -0.002 C 
ATOM     16  C   UNL d   1       4.280  -2.993   1.610  0.00  0.00     0.005 C 
ENDBRANCH  14  15
ENDBRANCH   4  14
ENDBRANCH   1   4
BRANCH   1  17
ATOM     17  C   UNL d   1       6.422  -0.799  -3.068  0.00  0.00     0.038 A 
ATOM     18  C   UNL d   1       7.350  -1.356  -2.163  0.00  0.00     0.030 A 
ATOM     19  C   UNL d   1       8.732  -1.411  -2.392  0.00  0.00     0.009 A 
ATOM     20  C   UNL d   1       9.270  -0.870  -3.545  0.00  0.00    -0.062 A 
ATOM     21  C   UNL d   1      10.750  -0.920  -3.775  0.00  0.00     0.048 C 
ATOM     22  C   UNL d   1       8.390  -0.285  -4.460  0.00  0.00     0.009 A 
ATOM     23  C   UNL d   1       6.993  -0.260  -4.230  0.00  0.00     0.030 A 
ENDBRANCH   1  17
BRANCH   2  24
ATOM     24  C   UNL d   1       2.603  -0.626  -3.920  0.00  0.00     0.115 C 
ATOM     25  S   UNL d   1       1.432  -1.844  -4.320  0.00  0.00     0.019 SA
ATOM     26  N   UNL d   1       0.088  -1.062  -3.680  0.00  0.00    -0.203 NA
ATOM     27  C   UNL d   1       0.447   0.180  -3.313  0.00  0.00     0.155 C 
ATOM     28  C   UNL d   1       1.884   0.468  -3.464  0.00  0.00     0.065 C 
BRANCH  27  29
ATOM     29  C   UNL d   1      -0.519   1.105  -2.652  0.00  0.00     0.270 C 
ATOM     30  N   UNL d   1      -1.782   0.678  -2.348  0.00  0.00    -0.365 N 
ATOM     31  H   UNL d   1      -2.091  -0.271  -2.520  0.00  0.00     0.159 HD
ATOM     32  H   UNL d   1      -2.336   1.278  -1.747  0.00  0.00     0.159 HD
ATOM     33  O   UNL d   1      -0.184   2.227  -2.218  0.00  0.00    -0.266 OA
ENDBRANCH  27  29
BRANCH  28  34
ATOM     34  N   UNL d   1       2.479   1.587  -2.954  0.00  0.00    -0.299 NA
ATOM     35  H   UNL d   1       1.977   2.019  -2.167  0.00  0.00     0.124 HD
ATOM     36  H   UNL d   1       3.475   1.579  -2.763  0.00  0.00     0.124 HD
ENDBRANCH  28  34
ENDBRANCH   2  24
TORSDOF 11
