REMARK  8 active torsions:
REMARK  status: ('A' for Active; 'I' for Inactive)
REMARK    1  A    between atoms: C_3  and  O_4 
REMARK    2  A    between atoms: C_5  and  N_6 
REMARK    3  A    between atoms: N_6  and  C_7 
REMARK    4  A    between atoms: C_8  and  C_7 
REMARK    5  A    between atoms: C_11  and  C_12 
REMARK       I    between atoms: C_12  and  N_14 
REMARK    6  A    between atoms: N_14  and  C_15 
REMARK    7  A    between atoms: C_15  and  C_16 
REMARK    8  A    between atoms: C_16  and  C_17 
ROOT
ATOM      1  C   UNL d   1       8.106   0.956   0.049  0.00  0.00     0.003 C 
ATOM      2  C   UNL d   1       8.644   2.363  -0.182  0.00  0.00     0.007 C 
ATOM      3  C   UNL d   1       8.237   2.859  -1.570  0.00  0.00     0.014 C 
ATOM      4  C   UNL d   1       8.740   1.913  -2.670  0.00  0.00     0.078 C 
ATOM      5  C   UNL d   1       8.143   0.520  -2.441  0.00  0.00     0.014 C 
ATOM      6  C   UNL d   1       8.524  -0.013  -1.075  0.00  0.00     0.007 C 
ENDROOT
BRANCH   1   7
ATOM      7  C   UNL d   1       8.562   0.277   1.312  0.00  0.00     0.124 C 
BRANCH   7   8
ATOM      8  N   UNL d   1       8.938   1.035   2.463  0.00  0.00    -0.385 N 
ATOM      9  H   UNL d   1       9.162   2.019   2.284  0.00  0.00     0.159 HD
BRANCH   8  10
ATOM     10  C   UNL d   1       9.249   0.486   3.617  0.00  0.00     0.097 A 
ATOM     11  C   UNL d   1       9.710   1.005   4.797  0.00  0.00     0.147 A 
ATOM     12  C   UNL d   1       9.620  -0.316   5.446  0.00  0.00     0.236 A 
ATOM     13  O   UNL d   1       9.858  -0.798   6.531  0.00  0.00    -0.283 OA
ATOM     14  C   UNL d   1       9.129  -0.911   4.182  0.00  0.00     0.113 A 
ATOM     15  N   UNL d   1       8.732  -2.111   3.842  0.00  0.00    -0.376 N 
ATOM     16  C   UNL d   1       8.247  -3.163   4.842  0.00  0.00     0.123 C 
ATOM     17  C   UNL d   1       8.411  -2.501   2.401  0.00  0.00     0.123 C 
ATOM     18  C   UNL d   1       8.512  -4.601   4.360  0.00  0.00     0.020 C 
ATOM     19  C   UNL d   1       7.938  -4.850   2.971  0.00  0.00     0.003 C 
ATOM     20  C   UNL d   1       8.694  -3.946   2.037  0.00  0.00     0.020 C 
BRANCH  11  21
ATOM     21  O   UNL d   1      10.023   2.211   5.123  0.00  0.00    -0.355 OA
ATOM     22  H   UNL d   1      10.295   2.289   6.058  0.00  0.00     0.218 HD
ENDBRANCH  11  21
ENDBRANCH   8  10
ENDBRANCH   7   8
ENDBRANCH   1   7
BRANCH   4  23
ATOM     23  C   UNL d   1      10.270   1.849  -2.705  0.00  0.00     0.221 C 
ATOM     24  O   UNL d   1      10.906   0.806  -2.566  0.00  0.00    -0.273 OA
ATOM     25  N   UNL d   1      10.907   3.053  -2.876  0.00  0.00    -0.360 N 
ATOM     26  H   UNL d   1      10.390   3.894  -3.095  0.00  0.00     0.162 HD
BRANCH  25  27
ATOM     27  C   UNL d   1      12.347   3.059  -2.889  0.00  0.00     0.127 C 
BRANCH  27  28
ATOM     28  C   UNL d   1      12.967   4.419  -3.180  0.00  0.00     0.058 C 
BRANCH  28  29
ATOM     29  C   UNL d   1      14.480   4.391  -3.164  0.00  0.00    -0.057 A 
ATOM     30  C   UNL d   1      15.204   3.186  -3.170  0.00  0.00     0.009 A 
ATOM     31  C   UNL d   1      16.594   3.179  -3.138  0.00  0.00     0.024 A 
ATOM     32  C   UNL d   1      17.283   4.383  -3.114  0.00  0.00     0.034 A 
ATOM     33 CL   UNL d   1      19.000   4.367  -3.052  0.00  0.00    -0.084 Cl
ATOM     34  C   UNL d   1      16.590   5.592  -3.136  0.00  0.00     0.024 A 
ATOM     35  C   UNL d   1      15.192   5.598  -3.162  0.00  0.00     0.009 A 
ENDBRANCH  28  29
ENDBRANCH  27  28
ENDBRANCH  25  27
ENDBRANCH   4  23
TORSDOF 8
