REMARK  8 active torsions:
REMARK  status: ('A' for Active; 'I' for Inactive)
REMARK    1  A    between atoms: C_2  and  C_3 
REMARK    2  A    between atoms: C_3  and  C_4 
REMARK    3  A    between atoms: C_4  and  O_5 
REMARK    4  A    between atoms: O_5  and  C_6 
REMARK    5  A    between atoms: C_9  and  C_10 
REMARK    6  A    between atoms: C_10  and  C_11 
REMARK    7  A    between atoms: C_11  and  N_12 
REMARK       I    between atoms: N_12  and  C_13 
REMARK       I    between atoms: C_13  and  N_15 
REMARK    8  A    between atoms: N_15  and  N_16 
REMARK       I    between atoms: N_16  and  C_17 
ROOT
ATOM      1  C   UNL d   1      10.532  -3.845  -1.008  0.00  0.00     0.058 C 
ENDROOT
BRANCH   1   2
ATOM      2  C   UNL d   1       9.035  -3.570  -0.957  0.00  0.00    -0.057 A 
ATOM      3  C   UNL d   1       8.197  -4.013  -1.991  0.00  0.00     0.010 A 
ATOM      4  C   UNL d   1       6.842  -3.647  -2.020  0.00  0.00     0.037 A 
ATOM      5  C   UNL d   1       6.286  -2.894  -0.985  0.00  0.00     0.068 A 
ATOM      6  C   UNL d   1       7.095  -2.502   0.073  0.00  0.00     0.037 A 
ATOM      7  C   UNL d   1       8.451  -2.833   0.083  0.00  0.00     0.010 A 
BRANCH   5   8
ATOM      8  O   UNL d   1       4.936  -2.676  -1.038  0.00  0.00    -0.351 OA
BRANCH   8   9
ATOM      9  C   UNL d   1       4.500  -1.416  -0.519  0.00  0.00     0.175 C 
BRANCH   9  10
ATOM     10  C   UNL d   1       2.975  -1.408  -0.503  0.00  0.00     0.026 C 
BRANCH  10  11
ATOM     11  C   UNL d   1       2.438  -0.052  -0.054  0.00  0.00    -0.002 C 
ATOM     12  C   UNL d   1       0.919  -0.041  -0.047  0.00  0.00     0.005 C 
ENDBRANCH  10  11
ENDBRANCH   9  10
ENDBRANCH   8   9
ENDBRANCH   5   8
ENDBRANCH   1   2
BRANCH   1  13
ATOM     13  C   UNL d   1      11.327  -3.228   0.159  0.00  0.00     0.129 C 
BRANCH  13  14
ATOM     14  N   UNL d   1      12.766  -3.432   0.134  0.00  0.00    -0.341 N 
ATOM     15  C   UNL d   1      13.553  -2.919   1.146  0.00  0.00     0.334 C 
ATOM     16  O   UNL d   1      13.106  -2.281   2.099  0.00  0.00    -0.246 OA
ATOM     17  N   UNL d   1      14.897  -3.195   0.990  0.00  0.00    -0.249 N 
ATOM     18  H   UNL d   1      15.223  -3.723   0.196  0.00  0.00     0.192 HD
ATOM     19  H   UNL d   1      13.181  -3.941  -0.631  0.00  0.00     0.164 HD
BRANCH  17  20
ATOM     20  N   UNL d   1      15.812  -2.738   1.955  0.00  0.00    -0.266 N 
ATOM     21  C   UNL d   1      17.172  -2.929   1.948  0.00  0.00     0.232 C 
ATOM     22  C   UNL d   1      17.815  -3.698   0.822  0.00  0.00     0.119 C 
ATOM     23  O   UNL d   1      17.870  -2.474   2.857  0.00  0.00    -0.272 OA
ATOM     24  H   UNL d   1      15.419  -2.211   2.737  0.00  0.00     0.190 HD
ENDBRANCH  17  20
ENDBRANCH  13  14
ENDBRANCH   1  13
TORSDOF 8
