@<TRIPOS>MOLECULE
*****
 34 35 0 0 0
SMALL
GASTEIGER

@<TRIPOS>ATOM
      1 C           2.4976    1.2178   -0.0009 C.3     1  UNL1       -0.0396
      2 C           1.2577    0.3783    0.0046 C.ar    1  UNL1       -0.0469
      3 C           1.3338   -1.0060    0.0217 C.ar    1  UNL1       -0.0569
      4 C           0.1676   -1.7756    0.0056 C.ar    1  UNL1       -0.0366
      5 C          -1.1191   -1.2155   -0.0204 C.ar    1  UNL1        0.0756
      6 N          -2.2871   -2.0553   -0.0555 N.am    1  UNL1       -0.2790
      7 C          -2.2563   -3.4478   -0.0774 C.2     1  UNL1        0.2412
      8 O          -1.2493   -4.1551   -0.0680 O.2     1  UNL1       -0.2705
      9 C          -3.5793   -4.1348   -0.1208 C.2     1  UNL1        0.0010
     10 C          -3.5910   -5.4849   -0.1343 C.2     1  UNL1       -0.0497
     11 C          -4.8106   -6.3010   -0.1855 C.ar    1  UNL1       -0.0247
     12 C          -5.8436   -5.9798   -1.0752 C.ar    1  UNL1       -0.0519
     13 C          -7.0127   -6.7407   -1.1097 C.ar    1  UNL1       -0.0259
     14 C          -7.1395   -7.8424   -0.2742 C.ar    1  UNL1        0.1234
     15 F          -8.2678   -8.5635   -0.3029 F       1  UNL1       -0.2055
     16 C          -6.1117   -8.2059    0.5873 C.ar    1  UNL1       -0.0259
     17 C          -4.9410   -7.4397    0.6270 C.ar    1  UNL1       -0.0519
     18 C          -1.1804    0.1915   -0.0162 C.ar    1  UNL1        0.1382
     19 O          -2.3323    0.9318   -0.0198 O.3     1  UNL1       -0.5049
     20 C          -0.0080    0.9712   -0.0093 C.ar    1  UNL1       -0.0154
     21 H           3.4042    0.6020    0.0028 H       1  UNL1        0.0278
     22 H           2.5217    1.8567    0.8868 H       1  UNL1        0.0278
     23 H           2.5220    1.8417   -0.8996 H       1  UNL1        0.0278
     24 H           2.2913   -1.5217    0.0434 H       1  UNL1        0.0621
     25 H           0.3370   -2.8437    0.0116 H       1  UNL1        0.0637
     26 H          -3.1889   -1.6054   -0.0834 H       1  UNL1        0.1552
     27 H          -4.4885   -3.5522   -0.1327 H       1  UNL1        0.0670
     28 H          -2.6589   -6.0529   -0.1027 H       1  UNL1        0.0625
     29 H          -5.7429   -5.1368   -1.7534 H       1  UNL1        0.0624
     30 H          -7.8220   -6.4779   -1.7822 H       1  UNL1        0.0646
     31 H          -6.2326   -9.0767    1.2247 H       1  UNL1        0.0646
     32 H          -4.1446   -7.7334    1.3089 H       1  UNL1        0.0624
     33 H          -3.1029    0.3564    0.0348 H       1  UNL1        0.2922
     34 H          -0.0845    2.0570   -0.0155 H       1  UNL1        0.0657
@<TRIPOS>BOND
     1     1     2    1
     2     2     3   ar
     3     3     4   ar
     4     4     5   ar
     5     5     6    1
     6     6     7   am
     7     7     8    2
     8     7     9    1
     9     9    10    2
    10    10    11    1
    11    11    12   ar
    12    12    13   ar
    13    13    14   ar
    14    14    15    1
    15    14    16   ar
    16    16    17   ar
    17    11    17   ar
    18     5    18   ar
    19    18    19    1
    20    18    20   ar
    21     2    20   ar
    22     1    21    1
    23     1    22    1
    24     1    23    1
    25     3    24    1
    26     4    25    1
    27     6    26    1
    28     9    27    1
    29    10    28    1
    30    12    29    1
    31    13    30    1
    32    16    31    1
    33    17    32    1
    34    19    33    1
    35    20    34    1
