REMARK  5 active torsions:
REMARK  status: ('A' for Active; 'I' for Inactive)
REMARK    1  A    between atoms: C_2  and  C_3 
REMARK    2  A    between atoms: C_3  and  N_4 
REMARK    3  A    between atoms: C_12  and  C_13 
REMARK       I    between atoms: C_13  and  N_15 
REMARK    4  A    between atoms: N_15  and  C_16 
REMARK    5  A    between atoms: C_19  and  N_20 
ROOT
ATOM      1  C   UNL d   1       7.389   4.212  -1.068  0.00  0.00     0.257 C 
ATOM      2  O   UNL d   1       6.684   5.217  -1.069  0.00  0.00    -0.267 OA
ATOM      3  N   UNL d   1       8.781   4.230  -1.095  0.00  0.00    -0.322 N 
ATOM      4  H   UNL d   1       9.295   3.384  -1.300  0.00  0.00     0.169 HD
ENDROOT
BRANCH   1   5
ATOM      5  C   UNL d   1       6.703   2.890  -1.106  0.00  0.00     0.051 A 
ATOM      6  C   UNL d   1       7.363   1.669  -1.109  0.00  0.00     0.039 A 
ATOM      7  C   UNL d   1       6.620   0.481  -1.127  0.00  0.00     0.079 A 
ATOM      8  C   UNL d   1       7.307  -0.804  -1.111  0.00  0.00     0.263 A 
ATOM      9  C   UNL d   1       5.236   0.506  -1.153  0.00  0.00     0.149 A 
ATOM     10  N   UNL d   1       6.521  -1.912  -1.118  0.00  0.00    -0.274 N 
ATOM     11  O   UNL d   1       8.539  -0.859  -1.094  0.00  0.00    -0.267 OA
ATOM     12  C   UNL d   1       5.153  -1.938  -1.111  0.00  0.00     0.331 A 
ATOM     13  H   UNL d   1       6.983  -2.809  -1.110  0.00  0.00     0.173 HD
ATOM     14  N   UNL d   1       4.511  -0.713  -1.112  0.00  0.00    -0.283 N 
ATOM     15  O   UNL d   1       4.584  -3.026  -1.103  0.00  0.00    -0.246 OA
ATOM     16  N   UNL d   1       4.581   1.690  -1.188  0.00  0.00    -0.241 NA
ATOM     17  C   UNL d   1       5.312   2.843  -1.143  0.00  0.00     0.136 A 
BRANCH  14  18
ATOM     18  C   UNL d   1       3.047  -0.682  -1.099  0.00  0.00     0.135 C 
BRANCH  18  19
ATOM     19  C   UNL d   1       2.460   0.060   0.105  0.00  0.00     0.016 C 
ATOM     20  C   UNL d   1       0.945   0.048   0.083  0.00  0.00     0.006 C 
ENDBRANCH  18  19
ENDBRANCH  14  18
ENDBRANCH   1   5
BRANCH   3  21
ATOM     21  C   UNL d   1       9.531   5.439  -1.110  0.00  0.00     0.047 A 
ATOM     22  C   UNL d   1       9.174   6.485  -0.254  0.00  0.00     0.033 A 
ATOM     23  C   UNL d   1       9.907   7.680  -0.214  0.00  0.00     0.032 A 
ATOM     24  C   UNL d   1      11.003   7.878  -1.052  0.00  0.00     0.041 A 
ATOM     25  C   UNL d   1      11.399   6.804  -1.898  0.00  0.00     0.006 A 
ATOM     26  C   UNL d   1      12.547   6.905  -2.694  0.00  0.00     0.034 C 
ATOM     27  C   UNL d   1      10.684   5.579  -1.917  0.00  0.00     0.021 A 
ATOM     28  C   UNL d   1      13.048   5.783  -3.315  0.00  0.00     0.117 C 
ATOM     29  N   UNL d   1      12.369   4.630  -3.417  0.00  0.00    -0.272 NA
ATOM     30  C   UNL d   1      11.178   4.586  -2.779  0.00  0.00     0.130 C 
BRANCH  24  31
ATOM     31  N   UNL d   1      11.692   9.086  -1.106  0.00  0.00    -0.380 N 
ATOM     32  C   UNL d   1      11.267  10.014  -2.153  0.00  0.00     0.123 C 
ATOM     33  C   UNL d   1      12.525  10.661  -2.735  0.00  0.00     0.020 C 
ATOM     34  C   UNL d   1      13.363  11.329  -1.642  0.00  0.00     0.003 C 
ATOM     35  C   UNL d   1      13.621  10.383  -0.460  0.00  0.00     0.020 C 
ATOM     36  C   UNL d   1      12.322   9.725   0.047  0.00  0.00     0.123 C 
ENDBRANCH  24  31
ENDBRANCH   3  21
TORSDOF 5
