@<TRIPOS>MOLECULE
*****
 71 72 0 0 0
SMALL
GASTEIGER

@<TRIPOS>ATOM
      1 C           0.7018   -0.0438   -0.4625 C.3     1  UNL1       -0.0307
      2 C           2.2052   -0.0158   -0.6564 C.3     1  UNL1        0.0870
      3 O           2.8831   -1.2595   -0.8626 O.3     1  UNL1       -0.4884
      4 C           4.2763   -1.3304   -0.7743 C.ar    1  UNL1        0.1663
      5 C           4.8856   -1.9769   -1.8886 C.ar    1  UNL1       -0.0039
      6 C           6.2479   -2.4023   -1.8983 C.ar    1  UNL1        0.0442
      7 C           6.7488   -3.2942   -3.0376 C.2     1  UNL1        0.2489
      8 O           5.9354   -3.5917   -3.9098 O.2     1  UNL1       -0.2698
      9 N           8.0527   -3.8158   -2.9637 N.am    1  UNL1       -0.2753
     10 C           8.6112   -4.7204   -3.8934 C.ar    1  UNL1        0.0870
     11 S           8.3160   -4.5077   -5.5578 S.2     1  UNL1       -0.0659
     12 C           9.3904   -5.7721   -6.0435 C.ar    1  UNL1        0.1016
     13 C           9.5498   -6.0188   -7.4961 C.2     1  UNL1        0.3464
     14 O           8.9650   -5.4360   -8.3834 O.2     1  UNL1       -0.2444
     15 O          10.4814   -7.0101   -7.7359 O.3     1  UNL1       -0.4581
     16 C          10.7767   -7.3934   -9.1035 C.3     1  UNL1        0.0978
     17 C          11.4418   -6.2456   -9.8529 C.3     1  UNL1       -0.0280
     18 C          11.7488   -8.5868   -9.1069 C.3     1  UNL1       -0.0280
     19 C           9.9524   -6.3836   -4.9250 C.ar    1  UNL1       -0.0135
     20 C          10.9105   -7.5373   -4.9604 C.3     1  UNL1       -0.0376
     21 C           9.5076   -5.7657   -3.6613 C.ar    1  UNL1        0.0911
     22 C           9.9014   -6.1788   -2.2944 C.2     1  UNL1        0.3421
     23 O           9.5357   -5.5721   -1.2994 O.2     1  UNL1       -0.2449
     24 O          10.7082   -7.2931   -2.2577 O.3     1  UNL1       -0.4584
     25 C          11.1454   -7.7811   -0.9684 C.3     1  UNL1        0.0978
     26 C           9.9634   -8.3112   -0.1651 C.3     1  UNL1       -0.0280
     27 C          12.1432   -8.9296   -1.1726 C.3     1  UNL1       -0.0280
     28 C           7.0447   -2.0561   -0.8032 C.ar    1  UNL1       -0.0039
     29 C           6.4805   -1.4287    0.3243 C.ar    1  UNL1        0.1663
     30 O           7.3827   -1.2509    1.3746 O.3     1  UNL1       -0.4884
     31 C           6.8630   -0.6889    2.5888 C.3     1  UNL1        0.0870
     32 C           7.8879   -0.5595    3.6762 C.3     1  UNL1       -0.0307
     33 C           5.0951   -1.0905    0.3602 C.ar    1  UNL1        0.2038
     34 O           4.7383   -0.6475    1.6088 O.3     1  UNL1       -0.4855
     35 C           3.5264   -0.0339    1.7767 C.3     1  UNL1        0.0871
     36 C           3.0843    0.6461    3.0340 C.3     1  UNL1       -0.0307
     37 H           0.4031    0.8893    0.0545 H       1  UNL1        0.0262
     38 H           0.4235   -0.8525    0.2305 H       1  UNL1        0.0262
     39 H           0.1621   -0.1285   -1.3933 H       1  UNL1        0.0262
     40 H           2.2574    0.2435    0.3557 H       1  UNL1        0.0694
     41 H           2.6646    0.8397   -1.1571 H       1  UNL1        0.0694
     42 H           4.2655   -2.1919   -2.7613 H       1  UNL1        0.0663
     43 H           8.5244   -3.7981   -2.0653 H       1  UNL1        0.1556
     44 H           9.8479   -7.7081   -9.5928 H       1  UNL1        0.0728
     45 H          12.3654   -5.9433   -9.3474 H       1  UNL1        0.0265
     46 H          10.8011   -5.3634   -9.8909 H       1  UNL1        0.0265
     47 H          11.6781   -6.5322  -10.8819 H       1  UNL1        0.0265
     48 H          12.6920   -8.3384   -8.6050 H       1  UNL1        0.0265
     49 H          11.9906   -8.8921  -10.1335 H       1  UNL1        0.0265
     50 H          11.3326   -9.4550   -8.5863 H       1  UNL1        0.0265
     51 H          11.1847   -7.8812   -5.9511 H       1  UNL1        0.0278
     52 H          10.4674   -8.4031   -4.4603 H       1  UNL1        0.0278
     53 H          11.8490   -7.2533   -4.4760 H       1  UNL1        0.0278
     54 H          11.6577   -6.9702   -0.4383 H       1  UNL1        0.0728
     55 H           9.4548   -9.1114   -0.7139 H       1  UNL1        0.0265
     56 H           9.2175   -7.5355    0.0185 H       1  UNL1        0.0265
     57 H          10.2900   -8.6960    0.8052 H       1  UNL1        0.0265
     58 H          11.6891   -9.7591   -1.7281 H       1  UNL1        0.0265
     59 H          12.4900   -9.3217   -0.2083 H       1  UNL1        0.0265
     60 H          13.0194   -8.6078   -1.7442 H       1  UNL1        0.0265
     61 H           8.1035   -2.2899   -0.7715 H       1  UNL1        0.0663
     62 H           6.0925   -1.3492    3.0131 H       1  UNL1        0.0694
     63 H           6.5001    0.3309    2.3963 H       1  UNL1        0.0694
     64 H           8.2709   -1.5447    3.9446 H       1  UNL1        0.0262
     65 H           7.4145   -0.1066    4.5563 H       1  UNL1        0.0262
     66 H           8.7075    0.0736    3.3392 H       1  UNL1        0.0262
     67 H           2.8135   -0.8558    1.6481 H       1  UNL1        0.0694
     68 H           3.6036    0.8229    1.0969 H       1  UNL1        0.0694
     69 H           3.2014    0.0041    3.9005 H       1  UNL1        0.0262
     70 H           2.0211    0.9002    2.8978 H       1  UNL1        0.0262
     71 H           3.6280    1.5838    3.1626 H       1  UNL1        0.0262
@<TRIPOS>BOND
     1     1     2    1
     2     2     3    1
     3     3     4    1
     4     4     5   ar
     5     5     6   ar
     6     6     7    1
     7     7     8    2
     8     7     9   am
     9     9    10    1
    10    10    11   ar
    11    11    12   ar
    12    12    13    1
    13    13    14    2
    14    13    15    1
    15    15    16    1
    16    16    17    1
    17    16    18    1
    18    12    19   ar
    19    19    20    1
    20    19    21   ar
    21    10    21   ar
    22    21    22    1
    23    22    23    2
    24    22    24    1
    25    24    25    1
    26    25    26    1
    27    25    27    1
    28     6    28   ar
    29    28    29   ar
    30    29    30    1
    31    30    31    1
    32    31    32    1
    33    29    33   ar
    34     4    33   ar
    35    33    34    1
    36    34    35    1
    37    35    36    1
    38     1    37    1
    39     1    38    1
    40     1    39    1
    41     2    40    1
    42     2    41    1
    43     5    42    1
    44     9    43    1
    45    16    44    1
    46    17    45    1
    47    17    46    1
    48    17    47    1
    49    18    48    1
    50    18    49    1
    51    18    50    1
    52    20    51    1
    53    20    52    1
    54    20    53    1
    55    25    54    1
    56    26    55    1
    57    26    56    1
    58    26    57    1
    59    27    58    1
    60    27    59    1
    61    27    60    1
    62    28    61    1
    63    31    62    1
    64    31    63    1
    65    32    64    1
    66    32    65    1
    67    32    66    1
    68    35    67    1
    69    35    68    1
    70    36    69    1
    71    36    70    1
    72    36    71    1
