@<TRIPOS>MOLECULE
*****
 30 31 0 0 0
SMALL
GASTEIGER

@<TRIPOS>ATOM
      1 C           3.5315   -0.0392   -0.0102 C.3     1  UNL1       -0.0396
      2 C           2.0322   -0.0470    0.0001 C.ar    1  UNL1       -0.0486
      3 C           1.2973   -1.2279    0.0029 C.ar    1  UNL1       -0.0573
      4 C          -0.0982   -1.1761    0.0145 C.ar    1  UNL1       -0.0413
      5 C          -0.7650    0.0605    0.0083 C.ar    1  UNL1        0.0621
      6 CL         -2.4952    0.0417    0.0020 Cl      1  UNL1       -0.0816
      7 C          -0.0415    1.2656    0.0004 C.ar    1  UNL1        0.0524
      8 N          -0.7034    2.5270   -0.0135 N.am    1  UNL1       -0.2801
      9 C          -0.0814    3.7659   -0.0431 C.2     1  UNL1        0.2518
     10 O           1.1308    3.9830   -0.0880 O.2     1  UNL1       -0.2697
     11 C          -0.9334    4.9725   -0.0599 C.ar    1  UNL1        0.0783
     12 C          -0.5276    6.0304   -0.8928 C.ar    1  UNL1       -0.0461
     13 C          -1.2149    7.2416   -0.8835 C.ar    1  UNL1       -0.0608
     14 C          -2.2935    7.4111   -0.0182 C.ar    1  UNL1       -0.0583
     15 C          -2.6925    6.3686    0.8280 C.ar    1  UNL1       -0.0194
     16 C          -2.0198    5.1441    0.7974 C.ar    1  UNL1        0.1290
     17 O          -2.4026    4.1219    1.6188 O.3     1  UNL1       -0.5060
     18 C           1.3551    1.1780    0.0079 C.ar    1  UNL1       -0.0361
     19 H           3.9354   -1.0546   -0.0319 H       1  UNL1        0.0278
     20 H           3.9110    0.4616    0.8869 H       1  UNL1        0.0278
     21 H           3.8981    0.4916   -0.8957 H       1  UNL1        0.0278
     22 H           1.8070   -2.1881   -0.0027 H       1  UNL1        0.0621
     23 H          -0.6563   -2.1094    0.0256 H       1  UNL1        0.0633
     24 H          -1.7197    2.5084    0.0294 H       1  UNL1        0.1552
     25 H           0.3423    5.9112   -1.5377 H       1  UNL1        0.0626
     26 H          -0.8964    8.0518   -1.5355 H       1  UNL1        0.0618
     27 H          -2.8186    8.3636    0.0006 H       1  UNL1        0.0619
     28 H          -3.5212    6.5392    1.5086 H       1  UNL1        0.0654
     29 H          -3.1233    4.4194    2.1983 H       1  UNL1        0.2922
     30 H           1.9752    2.0659    0.0244 H       1  UNL1        0.0639
@<TRIPOS>BOND
     1     1     2    1
     2     2     3   ar
     3     3     4   ar
     4     4     5   ar
     5     5     6    1
     6     5     7   ar
     7     7     8    1
     8     8     9   am
     9     9    10    2
    10     9    11    1
    11    11    12   ar
    12    12    13   ar
    13    13    14   ar
    14    14    15   ar
    15    15    16   ar
    16    11    16   ar
    17    16    17    1
    18     7    18   ar
    19     2    18   ar
    20     1    19    1
    21     1    20    1
    22     1    21    1
    23     3    22    1
    24     4    23    1
    25     8    24    1
    26    12    25    1
    27    13    26    1
    28    14    27    1
    29    15    28    1
    30    17    29    1
    31    18    30    1
