REMARK  3 active torsions:
REMARK  status: ('A' for Active; 'I' for Inactive)
REMARK    1  A    between atoms: C_5  and  C_6 
REMARK       I    between atoms: C_6  and  N_8 
REMARK    2  A    between atoms: N_8  and  C_9 
REMARK    3  A    between atoms: C_15  and  O_16 
ROOT
ATOM      1  C   UNL d   1      -3.137  -1.522  -0.078  0.00  0.00     0.256 C 
ATOM      2  O   UNL d   1      -3.007  -2.742  -0.216  0.00  0.00    -0.267 OA
ATOM      3  N   UNL d   1      -4.366  -0.861  -0.083  0.00  0.00    -0.320 N 
ATOM      4  H   UNL d   1      -4.399   0.126  -0.283  0.00  0.00     0.169 HD
ENDROOT
BRANCH   3   5
ATOM      5  C   UNL d   1      -5.600  -1.559  -0.117  0.00  0.00     0.070 A 
ATOM      6  C   UNL d   1      -6.623  -1.106  -0.960  0.00  0.00     0.056 A 
ATOM      7  C   UNL d   1      -7.822  -1.823  -1.041  0.00  0.00     0.036 A 
ATOM      8 CL   UNL d   1      -9.065  -1.309  -2.118  0.00  0.00    -0.084 Cl
ATOM      9  C   UNL d   1      -8.026  -2.967  -0.269  0.00  0.00     0.026 A 
ATOM     10  C   UNL d   1      -7.030  -3.397   0.605  0.00  0.00     0.040 A 
ATOM     11  C   UNL d   1      -5.835  -2.683   0.692  0.00  0.00     0.092 A 
BRANCH  11  12
ATOM     12  O   UNL d   1      -4.937  -3.012   1.670  0.00  0.00    -0.358 OA
ATOM     13  H   UNL d   1      -5.109  -3.915   1.973  0.00  0.00     0.217 HD
ENDBRANCH  11  12
ENDBRANCH   3   5
BRANCH   1  14
ATOM     14  C   UNL d   1      -1.883  -0.701  -0.014  0.00  0.00     0.032 A 
ATOM     15  C   UNL d   1      -1.872   0.695   0.025  0.00  0.00     0.017 A 
ATOM     16  C   UNL d   1      -0.656   1.389   0.026  0.00  0.00     0.008 A 
ATOM     17  C   UNL d   1       0.572   0.711   0.004  0.00  0.00    -0.056 A 
ATOM     18  C   UNL d   1       1.852   1.501  -0.014  0.00  0.00     0.049 C 
ATOM     19  C   UNL d   1       0.579  -0.695   0.003  0.00  0.00    -0.055 A 
ATOM     20  C   UNL d   1      -0.649  -1.381  -0.013  0.00  0.00     0.024 A 
ATOM     21  C   UNL d   1       1.868  -1.473   0.021  0.00  0.00     0.049 C 
ENDBRANCH   1  14
TORSDOF 3
