@<TRIPOS>MOLECULE
*****
 51 53 0 0 0
SMALL
GASTEIGER

@<TRIPOS>ATOM
      1 O           6.2459   -2.4833    5.7545 O.2     1  UNL1       -0.2758
      2 C           5.2826   -1.9235    5.2281 C.2     1  UNL1        0.2131
      3 C           3.8522   -2.1315    5.6527 C.3     1  UNL1        0.0243
      4 C           3.7592   -3.1917    6.7378 C.3     1  UNL1       -0.0380
      5 C           2.3134   -3.4033    7.1627 C.3     1  UNL1        0.0059
      6 C           2.2161   -4.4693    8.1909 C.ar    1  UNL1        0.1082
      7 N           1.7767   -5.6942    8.0003 N.ar    1  UNL1       -0.2325
      8 C           1.8732   -6.3113    9.2208 C.ar    1  UNL1        0.0891
      9 C           1.5238   -7.6159    9.5912 C.ar    1  UNL1       -0.0342
     10 C           1.7075   -8.0038   10.9235 C.ar    1  UNL1       -0.0596
     11 C           2.2447   -7.1167   11.8608 C.ar    1  UNL1       -0.0597
     12 C           2.6074   -5.8120   11.5065 C.ar    1  UNL1       -0.0363
     13 C           2.3954   -5.4475   10.1765 C.ar    1  UNL1        0.0662
     14 N           2.6030   -4.2781    9.4945 N.ar    1  UNL1       -0.3418
     15 N           5.5049   -1.0510    4.2114 N.am    1  UNL1       -0.3127
     16 C           4.5308   -0.1647    3.5903 C.3     1  UNL1        0.0408
     17 C           5.1030    0.8007    2.5302 C.3     1  UNL1        0.1045
     18 O           4.6294    0.4436    1.2269 O.3     1  UNL1       -0.3869
     19 C           6.6341    0.8844    2.5098 C.3     1  UNL1        0.1169
     20 O           7.0900    1.1836    3.8323 O.3     1  UNL1       -0.4893
     21 C           8.4379    1.3116    3.9969 C.ar    1  UNL1        0.1210
     22 C           8.9582    0.8781    5.2219 C.ar    1  UNL1       -0.0135
     23 C          10.3034    1.0983    5.5347 C.ar    1  UNL1        0.0190
     24 C          11.1388    1.6916    4.5809 C.ar    1  UNL1        0.2734
     25 N          12.5791    1.8085    4.8381 N.pl3   1  UNL1        0.0796
     26 O          13.0081    1.3920    5.9229 O.2     1  UNL1        0.0414
     27 O          13.2847    2.2957    3.9426 O.co2   1  UNL1       -0.5760
     28 C          10.6200    2.1292    3.3562 C.ar    1  UNL1        0.0190
     29 C           9.2663    1.9434    3.0723 C.ar    1  UNL1       -0.0135
     30 H           3.2660   -2.4349    4.7790 H       1  UNL1        0.0358
     31 H           3.4580   -1.1806    6.0302 H       1  UNL1        0.0358
     32 H           4.3680   -2.8914    7.6011 H       1  UNL1        0.0274
     33 H           4.1876   -4.1334    6.3700 H       1  UNL1        0.0274
     34 H           1.7118   -3.6916    6.2921 H       1  UNL1        0.0343
     35 H           1.8882   -2.4703    7.5507 H       1  UNL1        0.0343
     36 H           1.1138   -8.2969    8.8546 H       1  UNL1        0.0639
     37 H           1.4263   -9.0084   11.2286 H       1  UNL1        0.0618
     38 H           2.3819   -7.4465   12.8884 H       1  UNL1        0.0618
     39 H           3.0240   -5.1242   12.2337 H       1  UNL1        0.0639
     40 H           2.9769   -3.4244    9.8824 H       1  UNL1        0.1671
     41 H           6.4970   -0.8567    4.1172 H       1  UNL1        0.1488
     42 H           4.0465    0.4112    4.3871 H       1  UNL1        0.0488
     43 H           3.7667   -0.8077    3.1402 H       1  UNL1        0.0488
     44 H           4.6977    1.7991    2.7399 H       1  UNL1        0.0643
     45 H           4.9052   -0.4722    1.0456 H       1  UNL1        0.2100
     46 H           6.9333    1.6357    1.7732 H       1  UNL1        0.0723
     47 H           7.0476   -0.0803    2.1842 H       1  UNL1        0.0723
     48 H           8.3211    0.3588    5.9370 H       1  UNL1        0.0656
     49 H          10.6794    0.8053    6.5132 H       1  UNL1        0.0686
     50 H          11.2466    2.6258    2.6190 H       1  UNL1        0.0686
     51 H           8.8798    2.3240    2.1334 H       1  UNL1        0.0656
@<TRIPOS>UNITY_ATOM_ATTR
25 1
charge 1
27 1
charge -1
@<TRIPOS>BOND
     1     1     2    2
     2     2     3    1
     3     3     4    1
     4     4     5    1
     5     5     6    1
     6     6     7   ar
     7     7     8   ar
     8     8     9   ar
     9     9    10   ar
    10    10    11   ar
    11    11    12   ar
    12    12    13   ar
    13     8    13   ar
    14    13    14   ar
    15     6    14   ar
    16     2    15   am
    17    15    16    1
    18    17    19    1
    19    19    20    1
    20    20    21    1
    21    21    22   ar
    22    22    23   ar
    23    23    24   ar
    24    24    25    1
    25    25    26    2
    26    25    27    1
    27    24    28   ar
    28    28    29   ar
    29    21    29   ar
    30    17    18    1
    31    17    16    1
    32     3    30    1
    33     3    31    1
    34     4    32    1
    35     4    33    1
    36     5    34    1
    37     5    35    1
    38     9    36    1
    39    10    37    1
    40    11    38    1
    41    12    39    1
    42    14    40    1
    43    15    41    1
    44    16    42    1
    45    16    43    1
    46    17    44    1
    47    18    45    1
    48    19    46    1
    49    19    47    1
    50    22    48    1
    51    23    49    1
    52    28    50    1
    53    29    51    1
