@<TRIPOS>MOLECULE
*****
 47 50 0 0 0
SMALL
GASTEIGER

@<TRIPOS>ATOM
      1 N           1.0095    0.0535   -0.0840 N.1     1  UNL1       -0.1957
      2 C           2.2704    0.0535   -0.0840 C.1     1  UNL1        0.0762
      3 C           3.7904    0.0535   -0.0840 C.3     1  UNL1        0.1335
      4 C           4.4503   -1.0672    0.6888 C.2     1  UNL1        0.2362
      5 O           3.8503   -1.9673    1.2637 O.2     1  UNL1       -0.2740
      6 N           5.8490   -1.0191    0.6227 N.am    1  UNL1       -0.2688
      7 C           6.5654    0.1652    0.6851 C.ar    1  UNL1        0.1375
      8 N           7.9336    0.0971    0.8612 N.ar    1  UNL1       -0.2003
      9 C           8.5840    1.2053    1.1023 C.ar    1  UNL1        0.2000
     10 N           9.9506    1.3210    1.2861 N.pl3   1  UNL1       -0.3010
     11 C          10.5740    1.8774    2.4956 C.3     1  UNL1        0.0148
     12 C          11.5546    2.9905    2.1079 C.3     1  UNL1       -0.0371
     13 C          12.5853    2.5012    1.0884 C.3     1  UNL1       -0.0502
     14 C          11.9006    1.8010   -0.0889 C.3     1  UNL1       -0.0371
     15 C          10.9192    0.7129    0.3790 C.3     1  UNL1        0.0148
     16 N           7.9286    2.4058    1.1394 N.ar    1  UNL1       -0.2946
     17 C           6.6039    2.5489    0.9238 C.ar    1  UNL1        0.2583
     18 O           6.0626    3.6573    0.9541 O.2     1  UNL1       -0.2674
     19 C           5.8666    1.3085    0.6604 C.ar    1  UNL1        0.0663
     20 C           4.3756    1.3563    0.4567 C.3     1  UNL1        0.0480
     21 C           3.9682    2.4809   -0.4757 C.ar    1  UNL1        0.0390
     22 C           4.4091    2.3938   -1.8223 C.ar    1  UNL1       -0.0515
     23 C           3.9771    3.3012   -2.7768 C.ar    1  UNL1       -0.0611
     24 C           3.3378    4.4585   -2.3621 C.ar    1  UNL1       -0.0553
     25 C           3.0015    4.6340   -1.0187 C.ar    1  UNL1        0.0159
     26 C           3.2188    3.6091   -0.0857 C.ar    1  UNL1        0.2769
     27 N           2.6187    3.7878    1.2603 N.pl3   1  UNL1        0.0799
     28 O           2.0055    4.8414    1.4773 O.2     1  UNL1        0.0415
     29 O           2.7022    2.8755    2.0902 O.co2   1  UNL1       -0.5760
     30 H           4.0867   -0.1339   -1.1266 H       1  UNL1        0.0559
     31 H           6.3537   -1.8734    0.8308 H       1  UNL1        0.1563
     32 H          11.1281    1.0809    3.0109 H       1  UNL1        0.0464
     33 H           9.8331    2.2583    3.2062 H       1  UNL1        0.0464
     34 H          12.0738    3.3677    2.9974 H       1  UNL1        0.0280
     35 H          10.9995    3.8324    1.6771 H       1  UNL1        0.0280
     36 H          13.2871    1.8100    1.5719 H       1  UNL1        0.0266
     37 H          13.1809    3.3490    0.7263 H       1  UNL1        0.0266
     38 H          12.6607    1.3652   -0.7462 H       1  UNL1        0.0280
     39 H          11.3592    2.5556   -0.6740 H       1  UNL1        0.0280
     40 H          11.4682   -0.0796    0.9009 H       1  UNL1        0.0464
     41 H          10.4269    0.2670   -0.4901 H       1  UNL1        0.0464
     42 H           8.4535    3.2595    1.2369 H       1  UNL1        0.1716
     43 H           3.9951    1.4410    1.4684 H       1  UNL1        0.0420
     44 H           5.0976    1.6107   -2.1450 H       1  UNL1        0.0623
     45 H           4.1644    3.1165   -3.8317 H       1  UNL1        0.0618
     46 H           3.1057    5.2350   -3.0846 H       1  UNL1        0.0620
     47 H           2.5480    5.5740   -0.7145 H       1  UNL1        0.0685
@<TRIPOS>UNITY_ATOM_ATTR
27 1
charge 1
29 1
charge -1
@<TRIPOS>BOND
     1     1     2    3
     2     2     3    1
     3     3     4    1
     4     4     5    2
     5     4     6   am
     6     6     7    1
     7     7     8   ar
     8     8     9   ar
     9     9    10    1
    10    10    11    1
    11    11    12    1
    12    12    13    1
    13    13    14    1
    14    14    15    1
    15    10    15    1
    16     9    16   ar
    17    16    17   ar
    18    17    18    2
    19    17    19   ar
    20     7    19   ar
    21    19    20    1
    22     3    20    1
    23    21    22   ar
    24    22    23   ar
    25    23    24   ar
    26    24    25   ar
    27    25    26   ar
    28    21    26   ar
    29    26    27    1
    30    27    28    2
    31    27    29    1
    32    20    21    1
    33     3    30    1
    34     6    31    1
    35    11    32    1
    36    11    33    1
    37    12    34    1
    38    12    35    1
    39    13    36    1
    40    13    37    1
    41    14    38    1
    42    14    39    1
    43    15    40    1
    44    15    41    1
    45    16    42    1
    46    20    43    1
    47    22    44    1
    48    23    45    1
    49    24    46    1
    50    25    47    1
