@<TRIPOS>MOLECULE
*****
 47 47 0 0 0
SMALL
GASTEIGER

@<TRIPOS>ATOM
      1 C           2.5955   -1.7423   -0.2417 C.3     1  UNL1       -0.0626
      2 C           4.0814   -2.0971   -0.1810 C.3     1  UNL1       -0.0446
      3 C           5.3828   -1.9868   -0.9192 C.3     1  UNL1       -0.0626
      4 C           5.3514   -0.5573   -1.6433 C.3     1  UNL1       -0.0236
      5 C           4.6867    0.8199   -0.9693 C.3     1  UNL1        0.1010
      6 N           3.2123    0.9709   -0.8221 N.am    1  UNL1       -0.2883
      7 C           2.4784    1.7259    0.0432 C.2     1  UNL1        0.2976
      8 N           3.0939    2.3592    1.0523 N.am    1  UNL1       -0.3133
      9 O           1.2345    1.7763   -0.0359 O.2     1  UNL1       -0.2531
     10 C           5.0478    2.0570   -1.8590 C.2     1  UNL1        0.2335
     11 O           4.2202    2.7424   -2.4604 O.2     1  UNL1       -0.2738
     12 N           6.3848    2.3598   -1.9188 N.am    1  UNL1       -0.3123
     13 C           6.8734    3.4210   -2.7931 C.3     1  UNL1        0.0271
     14 C           8.3951    3.5155   -2.7056 C.3     1  UNL1        0.0249
     15 N           8.9703    4.4266   -3.6787 N.pl3   1  UNL1       -0.3371
     16 C          10.3237    4.5026   -3.9681 C.ar    1  UNL1        0.1054
     17 C          10.8741    5.8086   -4.0321 C.ar    1  UNL1       -0.0342
     18 C          12.2185    6.0468   -4.3486 C.ar    1  UNL1       -0.0596
     19 C          13.0811    4.9796   -4.5431 C.ar    1  UNL1       -0.0552
     20 C          12.5867    3.6844   -4.4602 C.ar    1  UNL1        0.0175
     21 C          11.2268    3.4348   -4.1865 C.ar    1  UNL1        0.2937
     22 N          10.8177    2.0191   -4.2688 N.pl3   1  UNL1        0.0815
     23 O          11.7224    1.1689   -4.0406 O.2     1  UNL1        0.0415
     24 O           9.6835    1.7155   -4.5895 O.co2   1  UNL1       -0.5760
     25 H           2.0752   -2.5413    0.2695 H       1  UNL1        0.0232
     26 H           2.1747   -1.6485   -1.2664 H       1  UNL1        0.0232
     27 H           2.3752   -0.8133    0.2699 H       1  UNL1        0.0232
     28 H           4.3874   -1.3121    0.5175 H       1  UNL1        0.0296
     29 H           3.8256   -2.1668   -1.2522 H       1  UNL1        0.0232
     30 H           5.3558   -3.0170   -1.3765 H       1  UNL1        0.0232
     31 H           6.3742   -2.1574   -0.4656 H       1  UNL1        0.0232
     32 H           4.9367   -0.6718   -2.6516 H       1  UNL1        0.0290
     33 H           6.4146   -0.3257   -1.7566 H       1  UNL1        0.0290
     34 H           5.1198    0.9785    0.0244 H       1  UNL1        0.0595
     35 H           2.6356    0.7059   -1.6127 H       1  UNL1        0.1510
     36 H           4.0753    2.5769    1.0383 H       1  UNL1        0.1465
     37 H           2.5062    2.9381    1.6451 H       1  UNL1        0.1465
     38 H           7.0500    1.6994   -1.5391 H       1  UNL1        0.1488
     39 H           6.3984    4.3661   -2.5045 H       1  UNL1        0.0477
     40 H           6.5530    3.1951   -3.8191 H       1  UNL1        0.0477
     41 H           8.7499    2.4972   -2.8237 H       1  UNL1        0.0476
     42 H           8.7065    3.8015   -1.6961 H       1  UNL1        0.0476
     43 H           8.3495    5.0428   -4.1989 H       1  UNL1        0.1463
     44 H          10.2495    6.6756   -3.8118 H       1  UNL1        0.0638
     45 H          12.5915    7.0648   -4.4455 H       1  UNL1        0.0618
     46 H          14.1314    5.1467   -4.7671 H       1  UNL1        0.0620
     47 H          13.2745    2.8597   -4.6469 H       1  UNL1        0.0686
@<TRIPOS>UNITY_ATOM_ATTR
22 1
charge 1
24 1
charge -1
@<TRIPOS>BOND
     1     1     2    1
     2     2     3    1
     3     2     4    1
     4     6     7   am
     5     7     8   am
     6     7     9    2
     7     5    10    1
     8    10    11    2
     9    10    12   am
    10    12    13    1
    11    13    14    1
    12    14    15    1
    13    15    16    1
    14    16    17   ar
    15    17    18   ar
    16    18    19   ar
    17    19    20   ar
    18    20    21   ar
    19    16    21   ar
    20    21    22    1
    21    22    23    2
    22    22    24    1
    23     5     6    1
    24     5     4    1
    25     1    25    1
    26     1    26    1
    27     1    27    1
    28     2    28    1
    29     3    29    1
    30     3    30    1
    31     3    31    1
    32     4    32    1
    33     4    33    1
    34     5    34    1
    35     6    35    1
    36     8    36    1
    37     8    37    1
    38    12    38    1
    39    13    39    1
    40    13    40    1
    41    14    41    1
    42    14    42    1
    43    15    43    1
    44    17    44    1
    45    18    45    1
    46    19    46    1
    47    20    47    1
