REMARK  7 active torsions:
REMARK  status: ('A' for Active; 'I' for Inactive)
REMARK    1  A    between atoms: C_2  and  C_4 
REMARK    2  A    between atoms: C_7  and  N_8 
REMARK    3  A    between atoms: C_12  and  S_13 
REMARK    4  A    between atoms: S_13  and  C_14 
REMARK    5  A    between atoms: C_14  and  C_15 
REMARK    6  A    between atoms: C_15  and  C_17 
REMARK    7  A    between atoms: C_20  and  C_21 
REMARK       I    between atoms: C_21  and  N_23 
ROOT
ATOM      1  N   UNL d   1       4.126  -3.405  -4.508  0.00  0.00    -0.259 N 
ATOM      2  N   UNL d   1       5.378  -3.958  -4.781  0.00  0.00    -0.042 NA
ATOM      3  N   UNL d   1       5.177  -5.313  -5.178  0.00  0.00     0.072 N 
ATOM      4  N   UNL d   1       3.804  -5.436  -5.666  0.00  0.00    -0.105 NA
ATOM      5  C   UNL d   1       3.110  -4.223  -5.152  0.00  0.00     0.267 C 
ATOM      6  H   UNL d   1       6.123  -3.756  -4.104  0.00  0.00     0.181 HD
ATOM      7  H   UNL d   1       5.353  -5.947  -4.378  0.00  0.00     0.325 HD
ATOM      8  H   UNL d   1       5.846  -5.580  -5.930  0.00  0.00     0.325 HD
ATOM      9  H   UNL d   1       3.314  -6.279  -5.363  0.00  0.00     0.158 HD
ENDROOT
BRANCH   5  10
ATOM     10  S   UNL d   1       2.430  -3.338  -6.598  0.00  0.00    -0.118 SA
BRANCH  10  11
ATOM     11  C   UNL d   1       1.551  -1.880  -5.854  0.00  0.00     0.161 C 
BRANCH  11  12
ATOM     12  C   UNL d   1       0.960  -1.009  -6.980  0.00  0.00     0.166 C 
ATOM     13  O   UNL d   1       1.067  -1.298  -8.174  0.00  0.00    -0.292 OA
BRANCH  12  14
ATOM     14  C   UNL d   1       0.156   0.200  -6.655  0.00  0.00     0.012 A 
ATOM     15  C   UNL d   1       0.373   1.195  -5.790  0.00  0.00     0.128 A 
ATOM     16  N   UNL d   1      -0.572   2.202  -5.843  0.00  0.00    -0.259 NA
ATOM     17  C   UNL d   1      -1.398   1.835  -6.790  0.00  0.00     0.106 A 
ATOM     18  C   UNL d   1      -1.075   0.509  -7.450  0.00  0.00     0.109 A 
BRANCH  17  19
ATOM     19  C   UNL d   1      -2.697   2.547  -7.182  0.00  0.00     0.268 C 
ATOM     20  O   UNL d   1      -3.455   1.939  -7.940  0.00  0.00    -0.266 OA
ATOM     21  N   UNL d   1      -3.029   3.727  -6.536  0.00  0.00    -0.347 N 
ATOM     22  C   UNL d   1      -4.359   4.011  -6.027  0.00  0.00     0.126 C 
ATOM     23  C   UNL d   1      -2.277   4.959  -6.684  0.00  0.00     0.126 C 
ATOM     24  C   UNL d   1      -4.665   5.441  -6.436  0.00  0.00     0.021 C 
ATOM     25  C   UNL d   1      -3.292   6.102  -6.517  0.00  0.00     0.021 C 
ENDBRANCH  17  19
ENDBRANCH  12  14
ENDBRANCH  11  12
ENDBRANCH  10  11
ENDBRANCH   5  10
BRANCH   1  26
ATOM     26  C   UNL d   1       3.874  -2.680  -3.340  0.00  0.00     0.050 A 
ATOM     27  C   UNL d   1       3.078  -3.155  -2.292  0.00  0.00     0.031 A 
ATOM     28  C   UNL d   1       2.625  -2.296  -1.282  0.00  0.00     0.010 A 
ATOM     29  C   UNL d   1       3.009  -0.950  -1.241  0.00  0.00    -0.055 A 
ATOM     30  C   UNL d   1       3.867  -0.484  -2.241  0.00  0.00     0.010 A 
ATOM     31  C   UNL d   1       4.302  -1.343  -3.266  0.00  0.00     0.031 A 
BRANCH  29  32
ATOM     32  C   UNL d   1       2.522  -0.041  -0.119  0.00  0.00     0.010 C 
ATOM     33  C   UNL d   1       0.991   0.026  -0.093  0.00  0.00     0.015 C 
ATOM     34  C   UNL d   1       3.051  -0.528   1.235  0.00  0.00     0.015 C 
ENDBRANCH  29  32
ENDBRANCH   1  26
TORSDOF 7
