REMARK  6 active torsions:
REMARK  status: ('A' for Active; 'I' for Inactive)
REMARK    1  A    between atoms: C_2  and  C_3 
REMARK       I    between atoms: C_3  and  N_5 
REMARK    2  A    between atoms: N_5  and  C_6 
REMARK    3  A    between atoms: C_6  and  C_7 
REMARK       I    between atoms: C_7  and  N_9 
REMARK    4  A    between atoms: N_9  and  N_10 
REMARK       I    between atoms: N_10  and  C_11 
REMARK    5  A    between atoms: C_11  and  C_13 
REMARK    6  A    between atoms: C_15  and  C_16 
ROOT
ATOM      1  N   UNL d   1       8.616  -4.125   1.721  0.00  0.00    -0.262 N 
ATOM      2  C   UNL d   1       9.290  -5.287   2.086  0.00  0.00     0.288 C 
ATOM      3  O   UNL d   1       8.683  -6.326   2.369  0.00  0.00    -0.264 OA
ATOM      4  H   UNL d   1       9.106  -3.310   1.356  0.00  0.00     0.190 HD
ENDROOT
BRANCH   2   5
ATOM      5  C   UNL d   1      10.738  -5.208   2.092  0.00  0.00     0.121 A 
ATOM      6  C   UNL d   1      11.598  -4.213   2.526  0.00  0.00     0.071 A 
ATOM      7  C   UNL d   1      12.922  -4.692   2.320  0.00  0.00     0.089 A 
ATOM      8  N   UNL d   1      12.892  -5.917   1.778  0.00  0.00    -0.174 NA
ATOM      9  N   UNL d   1      11.579  -6.227   1.713  0.00  0.00    -0.272 N 
ATOM     10  H   UNL d   1      11.326  -7.150   1.368  0.00  0.00     0.189 HD
BRANCH   7  11
ATOM     11  C   UNL d   1      14.172  -4.017   2.677  0.00  0.00    -0.006 A 
ATOM     12  C   UNL d   1      15.164  -3.755   1.722  0.00  0.00     0.014 A 
ATOM     13  C   UNL d   1      16.377  -3.164   2.102  0.00  0.00     0.001 A 
ATOM     14  C   UNL d   1      16.584  -2.773   3.425  0.00  0.00     0.000 A 
ATOM     15  C   UNL d   1      15.594  -3.005   4.377  0.00  0.00     0.001 A 
ATOM     16  C   UNL d   1      14.398  -3.628   4.006  0.00  0.00     0.014 A 
ENDBRANCH   7  11
ENDBRANCH   2   5
BRANCH   1  17
ATOM     17  N   UNL d   1       7.181  -4.090   1.642  0.00  0.00    -0.266 N 
ATOM     18  C   UNL d   1       6.552  -2.930   1.191  0.00  0.00     0.253 C 
ATOM     19  O   UNL d   1       7.197  -1.948   0.812  0.00  0.00    -0.270 OA
ATOM     20  H   UNL d   1       6.691  -4.920   1.976  0.00  0.00     0.190 HD
BRANCH  18  21
ATOM     21  C   UNL d   1       4.999  -2.933   1.191  0.00  0.00     0.227 C 
BRANCH  21  22
ATOM     22  N   UNL d   1       4.406  -1.677   0.699  0.00  0.00    -0.352 N 
ATOM     23  C   UNL d   1       3.037  -1.503   0.631  0.00  0.00     0.217 C 
ATOM     24  O   UNL d   1       2.260  -2.389   0.979  0.00  0.00    -0.274 OA
ATOM     25  H   UNL d   1       5.040  -0.939   0.410  0.00  0.00     0.162 HD
BRANCH  23  26
ATOM     26  C   UNL d   1       2.553  -0.151   0.101  0.00  0.00     0.098 C 
ATOM     27  C   UNL d   1       1.026  -0.074   0.071  0.00  0.00     0.014 C 
ENDBRANCH  23  26
ENDBRANCH  21  22
ENDBRANCH  18  21
ENDBRANCH   1  17
TORSDOF 6
