@<TRIPOS>MOLECULE
*****
 55 58 0 0 0
SMALL
GASTEIGER

@<TRIPOS>ATOM
      1 C           1.1425   -0.0839   -0.0453 C.3     1  UNL1        0.0788
      2 O           2.5690   -0.1934   -0.1502 O.3     1  UNL1       -0.4950
      3 C           3.1406    0.7373   -0.9767 C.ar    1  UNL1        0.1237
      4 C           4.2581    0.3955   -1.7362 C.ar    1  UNL1       -0.0180
      5 C           4.8964    1.3625   -2.5602 C.ar    1  UNL1       -0.0334
      6 C           4.4063    2.6850   -2.6461 C.ar    1  UNL1        0.0758
      7 N           4.9967    3.6386   -3.5713 N.am    1  UNL1       -0.2819
      8 C           4.4668    4.9078   -3.8825 C.2     1  UNL1        0.2276
      9 O           3.3563    5.3289   -3.5326 O.2     1  UNL1       -0.2746
     10 C           5.2184    5.7826   -4.8800 C.3     1  UNL1        0.0779
     11 S           4.3912    7.4553   -4.9602 S.3     1  UNL1       -0.0763
     12 C           4.9705    8.4177   -6.2781 C.ar    1  UNL1        0.1968
     13 N           4.8056    9.7259   -6.3615 N.ar    1  UNL1       -0.1218
     14 N           5.4273   10.1744   -7.5158 N.ar    1  UNL1       -0.1278
     15 C           5.9247    9.1230   -8.1386 C.ar    1  UNL1        0.1729
     16 C           6.5261    9.0558   -9.4777 C.ar    1  UNL1        0.0610
     17 C           7.7189    9.7303   -9.7609 C.ar    1  UNL1       -0.0475
     18 C           8.3113    9.6112  -11.0235 C.ar    1  UNL1       -0.0609
     19 C           7.7702    8.7504  -11.9805 C.ar    1  UNL1       -0.0583
     20 C           6.6052    8.0418  -11.7021 C.ar    1  UNL1       -0.0195
     21 C           5.9767    8.2206  -10.4720 C.ar    1  UNL1        0.1275
     22 O           4.8061    7.5529  -10.2211 O.3     1  UNL1       -0.5061
     23 N           5.6986    8.0003   -7.3564 N.ar    1  UNL1       -0.2702
     24 C           6.1282    6.7133   -7.6857 C.ar    1  UNL1        0.0505
     25 C           7.4886    6.5095   -7.9092 C.ar    1  UNL1       -0.0377
     26 C           7.8977    5.2835   -8.4029 C.ar    1  UNL1       -0.0598
     27 C           6.9675    4.2543   -8.5708 C.ar    1  UNL1       -0.0616
     28 C           5.6085    4.4691   -8.3345 C.ar    1  UNL1       -0.0598
     29 C           5.1741    5.7237   -7.9367 C.ar    1  UNL1       -0.0377
     30 C           3.3483    3.0111   -1.7762 C.ar    1  UNL1        0.1447
     31 O           3.0654    4.3212   -1.5670 O.3     1  UNL1       -0.4931
     32 C           1.8378    4.7144   -0.9887 C.3     1  UNL1        0.0789
     33 C           2.7164    2.0501   -0.9914 C.ar    1  UNL1        0.0236
     34 H           0.7958   -0.7777    0.7253 H       1  UNL1        0.0660
     35 H           0.6885   -0.3601   -1.0012 H       1  UNL1        0.0660
     36 H           0.7816    0.9035    0.2644 H       1  UNL1        0.0660
     37 H           4.6289   -0.6281   -1.6938 H       1  UNL1        0.0655
     38 H           5.7898    1.0482   -3.0967 H       1  UNL1        0.0638
     39 H           5.7526    3.2808   -4.1466 H       1  UNL1        0.1549
     40 H           5.0685    5.2102   -5.7830 H       1  UNL1        0.0475
     41 H           6.2791    5.8828   -4.6494 H       1  UNL1        0.0475
     42 H           8.2060   10.3332   -8.9974 H       1  UNL1        0.0626
     43 H           9.1978   10.1930  -11.2642 H       1  UNL1        0.0618
     44 H           8.2536    8.6380  -12.9478 H       1  UNL1        0.0619
     45 H           6.1900    7.3763  -12.4525 H       1  UNL1        0.0654
     46 H           4.6829    6.8555  -10.8854 H       1  UNL1        0.2922
     47 H           8.2146    7.3004   -7.7280 H       1  UNL1        0.0638
     48 H           8.9392    5.1389   -8.6723 H       1  UNL1        0.0618
     49 H           7.3069    3.2784   -8.9022 H       1  UNL1        0.0618
     50 H           4.8865    3.6690   -8.4682 H       1  UNL1        0.0618
     51 H           4.1109    5.9189   -7.7910 H       1  UNL1        0.0638
     52 H           1.6830    5.7671   -1.2388 H       1  UNL1        0.0660
     53 H           1.9407    4.6276    0.0935 H       1  UNL1        0.0660
     54 H           0.9722    4.1530   -1.3609 H       1  UNL1        0.0660
     55 H           1.9289    2.3698   -0.3280 H       1  UNL1        0.0691
@<TRIPOS>BOND
     1     1     2    1
     2     2     3    1
     3     3     4   ar
     4     4     5   ar
     5     5     6   ar
     6     6     7    1
     7     7     8   am
     8     8     9    2
     9     8    10    1
    10    10    11    1
    11    11    12    1
    12    12    13   ar
    13    13    14   ar
    14    14    15   ar
    15    15    16    1
    16    16    17   ar
    17    17    18   ar
    18    18    19   ar
    19    19    20   ar
    20    20    21   ar
    21    16    21   ar
    22    21    22    1
    23    15    23   ar
    24    12    23   ar
    25    23    24    1
    26    24    25   ar
    27    25    26   ar
    28    26    27   ar
    29    27    28   ar
    30    28    29   ar
    31    24    29   ar
    32     6    30   ar
    33    30    31    1
    34    31    32    1
    35    30    33   ar
    36     3    33   ar
    37     1    34    1
    38     1    35    1
    39     1    36    1
    40     4    37    1
    41     5    38    1
    42     7    39    1
    43    10    40    1
    44    10    41    1
    45    17    42    1
    46    18    43    1
    47    19    44    1
    48    20    45    1
    49    22    46    1
    50    25    47    1
    51    26    48    1
    52    27    49    1
    53    28    50    1
    54    29    51    1
    55    32    52    1
    56    32    53    1
    57    32    54    1
    58    33    55    1
