@<TRIPOS>MOLECULE
*****
 60 63 0 0 0
SMALL
GASTEIGER

@<TRIPOS>ATOM
      1 C           1.2051    0.6895    0.2271 C.3     1  UNL1        0.0790
      2 O           2.6031    0.4250    0.1696 O.3     1  UNL1       -0.4914
      3 C           3.1911   -0.6956    0.6989 C.ar    1  UNL1        0.1617
      4 C           4.4040   -0.4934    1.3952 C.ar    1  UNL1       -0.0131
      5 C           5.2917   -1.5628    1.7784 C.ar    1  UNL1       -0.0195
      6 C           5.0420   -2.8697    1.3851 C.ar    1  UNL1        0.1035
      7 N           5.6889   -4.0456    1.9110 N.pl3   1  UNL1       -0.2449
      8 C           5.2685   -5.3955    1.8553 C.2     1  UNL1        0.3842
      9 N           4.1976   -5.9431    1.3468 N.am    1  UNL1        0.0006
     10 C           3.0504   -5.1918    1.3154 C.2     1  UNL1        0.3405
     11 O           2.6828   -4.5233    2.2518 O.2     1  UNL1       -0.2484
     12 C           2.0489   -5.5156    0.2393 C.ar    1  UNL1        0.0562
     13 C           1.8379   -4.9265   -1.0347 C.ar    1  UNL1       -0.0467
     14 C           0.5614   -4.9781   -1.6236 C.ar    1  UNL1       -0.0426
     15 C          -0.4242   -5.7550   -1.0321 C.ar    1  UNL1        0.0410
     16 CL         -1.9457   -5.9532   -1.7986 Cl      1  UNL1       -0.0835
     17 C          -0.1787   -6.4058    0.1724 C.ar    1  UNL1       -0.0426
     18 C           1.0405   -6.2678    0.8099 C.ar    1  UNL1       -0.0467
     19 N           6.1318   -6.3423    2.4375 N.pl3   1  UNL1       -0.2767
     20 C           5.6746   -7.7573    2.5336 C.3     1  UNL1        0.0684
     21 C           6.6340   -8.6911    3.2561 C.3     1  UNL1        0.0059
     22 C           6.3137  -10.1702    3.2700 C.2     1  UNL1        0.0106
     23 C           7.1864  -11.0300    3.7996 C.ar    1  UNL1        0.0510
     24 C           8.4555  -10.7979    4.3870 C.ar    1  UNL1       -0.0482
     25 C           9.2307  -11.8515    4.6548 C.ar    1  UNL1       -0.0608
     26 C           8.7297  -13.2087    4.5098 C.ar    1  UNL1       -0.0555
     27 C           7.5011  -13.5108    4.0350 C.ar    1  UNL1        0.0098
     28 C           6.6402  -12.3788    3.6167 C.ar    1  UNL1        0.2086
     29 N           5.4749  -12.3379    3.0891 N.2     1  UNL1       -0.2369
     30 C           5.1271  -10.9205    2.7192 C.3     1  UNL1        0.1661
     31 C           4.0290   -2.9285    0.4446 C.ar    1  UNL1        0.0222
     32 C           2.9591   -1.9948    0.3304 C.ar    1  UNL1        0.1647
     33 O           1.8059   -2.6174   -0.0262 O.3     1  UNL1       -0.4913
     34 C           0.6928   -1.9365   -0.5183 C.3     1  UNL1        0.0790
     35 H           1.0364    1.7333   -0.0408 H       1  UNL1        0.0660
     36 H           0.7770    0.4672    1.2075 H       1  UNL1        0.0660
     37 H           0.6170    0.2398   -0.5710 H       1  UNL1        0.0660
     38 H           4.6702    0.5267    1.6606 H       1  UNL1        0.0656
     39 H           6.1984   -1.3157    2.3219 H       1  UNL1        0.0653
     40 H           6.4141   -3.8231    2.5791 H       1  UNL1        0.2646
     41 H           2.5408   -4.2468   -1.5222 H       1  UNL1        0.0626
     42 H           0.3110   -4.3340   -2.4710 H       1  UNL1        0.0632
     43 H          -0.9424   -6.9888    0.6653 H       1  UNL1        0.0632
     44 H           1.2068   -6.6720    1.8037 H       1  UNL1        0.0626
     45 H           6.8275   -6.0451    3.1131 H       1  UNL1        0.2577
     46 H           5.5609   -8.1359    1.5133 H       1  UNL1        0.0658
     47 H           4.7032   -7.8340    3.0417 H       1  UNL1        0.0658
     48 H           6.7279   -8.3737    4.3041 H       1  UNL1        0.0343
     49 H           7.6282   -8.5729    2.8036 H       1  UNL1        0.0343
     50 H           8.7901   -9.7806    4.5521 H       1  UNL1        0.0626
     51 H          10.2503  -11.6867    4.9919 H       1  UNL1        0.0618
     52 H           9.4152  -13.9850    4.8464 H       1  UNL1        0.0620
     53 H           7.1839  -14.5442    3.9517 H       1  UNL1        0.0683
     54 H           4.9031  -13.1736    2.9598 H       1  UNL1        0.4459
     55 H           4.1804  -10.6492    3.1927 H       1  UNL1        0.1077
     56 H           5.0541  -10.8676    1.6272 H       1  UNL1        0.1077
     57 H           4.0015   -3.8103   -0.1740 H       1  UNL1        0.0690
     58 H          -0.0848   -2.5773   -0.9399 H       1  UNL1        0.0660
     59 H           1.0459   -1.3487   -1.3660 H       1  UNL1        0.0660
     60 H           0.1838   -1.4537    0.3167 H       1  UNL1        0.0660
@<TRIPOS>UNITY_ATOM_ATTR
29 1
charge 1
@<TRIPOS>BOND
     1     1     2    1
     2     2     3    1
     3     3     4   ar
     4     4     5   ar
     5     5     6   ar
     6     6     7    1
     7     7     8    1
     8     8     9    2
     9     9    10    1
    10    10    11    2
    11    10    12    1
    12    12    13   ar
    13    13    14   ar
    14    14    15   ar
    15    15    16    1
    16    15    17   ar
    17    17    18   ar
    18    12    18   ar
    19     8    19    1
    20    19    20    1
    21    20    21    1
    22    21    22    1
    23    22    23    2
    24    23    24   ar
    25    24    25   ar
    26    25    26   ar
    27    26    27   ar
    28    27    28   ar
    29    23    28   ar
    30    28    29    2
    31    29    30    1
    32    22    30    1
    33     6    31   ar
    34    31    32   ar
    35     3    32   ar
    36    32    33    1
    37    33    34    1
    38     1    35    1
    39     1    36    1
    40     1    37    1
    41     4    38    1
    42     5    39    1
    43     7    40    1
    44    13    41    1
    45    14    42    1
    46    17    43    1
    47    18    44    1
    48    19    45    1
    49    20    46    1
    50    20    47    1
    51    21    48    1
    52    21    49    1
    53    24    50    1
    54    25    51    1
    55    26    52    1
    56    27    53    1
    57    29    54    1
    58    30    55    1
    59    30    56    1
    60    31    57    1
    61    34    58    1
    62    34    59    1
    63    34    60    1
