@<TRIPOS>MOLECULE
*****
 50 52 0 0 0
SMALL
GASTEIGER

@<TRIPOS>ATOM
      1 C           1.8637    1.4696   -0.0144 C.3     1  UNL1       -0.0394
      2 C           0.5847    0.6692    0.0030 C.ar    1  UNL1       -0.0458
      3 C          -0.6192    1.3872    0.0219 C.ar    1  UNL1       -0.0585
      4 C          -1.8273    0.7179    0.0157 C.ar    1  UNL1       -0.0597
      5 C          -1.8458   -0.6721   -0.0161 C.ar    1  UNL1       -0.0402
      6 C          -0.6732   -1.4435   -0.0148 C.ar    1  UNL1        0.0370
      7 N          -0.7609   -2.8665   -0.0250 N.am    1  UNL1       -0.2775
      8 C          -1.9328   -3.6108   -0.0345 C.2     1  UNL1        0.3031
      9 O          -3.0967   -3.2193   -0.0364 O.2     1  UNL1       -0.2648
     10 C          -1.7492   -5.1425   -0.0486 C.2     1  UNL1        0.2996
     11 O          -0.6376   -5.6510   -0.0365 O.2     1  UNL1       -0.2652
     12 N          -2.9592   -5.7934   -0.0775 N.am    1  UNL1       -0.3035
     13 C          -3.1090   -7.2207   -0.0962 C.3     1  UNL1        0.0373
     14 C          -4.5393   -7.7149   -0.0921 C.ar    1  UNL1       -0.0286
     15 C          -5.6785   -6.9150   -0.0158 C.ar    1  UNL1       -0.0570
     16 C          -6.9392   -7.4957    0.1467 C.ar    1  UNL1       -0.0597
     17 C          -7.0923   -8.8899    0.1491 C.ar    1  UNL1       -0.0404
     18 C          -5.9698   -9.7170    0.0335 C.ar    1  UNL1        0.0341
     19 N          -6.1118  -11.1304    0.0786 N.am    1  UNL1       -0.2790
     20 C          -5.0583  -12.0501    0.0873 C.2     1  UNL1        0.2835
     21 O          -3.8625  -11.7516    0.0625 O.2     1  UNL1       -0.2665
     22 C          -5.4409  -13.4416    0.1237 C.ar    1  UNL1        0.1893
     23 C          -6.4118  -14.1578   -0.5477 C.ar    1  UNL1       -0.0113
     24 C          -6.2273  -15.5180   -0.1965 C.ar    1  UNL1       -0.0231
     25 C          -5.1629  -15.5534    0.6722 C.ar    1  UNL1        0.0928
     26 O          -4.6733  -14.3039    0.8644 O.2     1  UNL1       -0.4583
     27 C          -4.7183   -9.1057   -0.0946 C.ar    1  UNL1       -0.0358
     28 C           0.5717   -0.7616   -0.0002 C.ar    1  UNL1       -0.0263
     29 C           1.9018   -1.4761    0.0218 C.3     1  UNL1       -0.0377
     30 H           1.6607    2.5479   -0.0259 H       1  UNL1        0.0278
     31 H           2.4438    1.2451   -0.9144 H       1  UNL1        0.0278
     32 H           2.4597    1.2627    0.8786 H       1  UNL1        0.0278
     33 H          -0.6256    2.4748    0.0393 H       1  UNL1        0.0620
     34 H          -2.7663    1.2635    0.0324 H       1  UNL1        0.0618
     35 H          -2.8315   -1.1180   -0.0389 H       1  UNL1        0.0636
     36 H           0.0902   -3.4183   -0.0218 H       1  UNL1        0.1553
     37 H          -3.7685   -5.1826   -0.0507 H       1  UNL1        0.1495
     38 H          -2.6030   -7.6110    0.7965 H       1  UNL1        0.0512
     39 H          -2.5800   -7.6058   -0.9758 H       1  UNL1        0.0512
     40 H          -5.6217   -5.8332   -0.0680 H       1  UNL1        0.0621
     41 H          -7.7984   -6.8433    0.2920 H       1  UNL1        0.0618
     42 H          -8.0978   -9.2910    0.2468 H       1  UNL1        0.0636
     43 H          -7.0495  -11.4932    0.2039 H       1  UNL1        0.1552
     44 H          -7.1145  -13.7479   -1.2572 H       1  UNL1        0.0657
     45 H          -6.7836  -16.3729   -0.5518 H       1  UNL1        0.0649
     46 H          -4.6461  -16.3460    1.1975 H       1  UNL1        0.1029
     47 H          -3.8140   -9.6942   -0.1878 H       1  UNL1        0.0639
     48 H           1.8169   -2.5627    0.0310 H       1  UNL1        0.0278
     49 H           2.4618   -1.1977    0.9218 H       1  UNL1        0.0278
     50 H           2.4906   -1.2104   -0.8629 H       1  UNL1        0.0278
@<TRIPOS>BOND
     1     1     2    1
     2     2     3   ar
     3     3     4   ar
     4     4     5   ar
     5     5     6   ar
     6     6     7    1
     7     7     8   am
     8     8     9    2
     9     8    10    1
    10    10    11    2
    11    10    12   am
    12    12    13    1
    13    13    14    1
    14    14    15   ar
    15    15    16   ar
    16    16    17   ar
    17    17    18   ar
    18    18    19    1
    19    19    20   am
    20    20    21    2
    21    20    22    1
    22    22    23   ar
    23    23    24   ar
    24    24    25   ar
    25    25    26   ar
    26    22    26   ar
    27    18    27   ar
    28    14    27   ar
    29     6    28   ar
    30     2    28   ar
    31    28    29    1
    32     1    30    1
    33     1    31    1
    34     1    32    1
    35     3    33    1
    36     4    34    1
    37     5    35    1
    38     7    36    1
    39    12    37    1
    40    13    38    1
    41    13    39    1
    42    15    40    1
    43    16    41    1
    44    17    42    1
    45    19    43    1
    46    23    44    1
    47    24    45    1
    48    25    46    1
    49    27    47    1
    50    29    48    1
    51    29    49    1
    52    29    50    1
