@<TRIPOS>MOLECULE
*****
 51 54 0 0 0
SMALL
GASTEIGER

@<TRIPOS>ATOM
      1 C          -1.4385    2.9276   -0.0064 C.3     1  UNL1       -0.0385
      2 C          -1.3026    1.4260   -0.0301 C.ar    1  UNL1       -0.0294
      3 C          -2.3617    0.5804   -0.1597 C.ar    1  UNL1        0.0493
      4 C          -3.8183    1.0991   -0.2362 C.3     1  UNL1        0.0561
      5 C          -4.9638    0.1386   -0.5985 C.2     1  UNL1        0.2181
      6 O          -4.8213   -0.7941   -1.3800 O.2     1  UNL1       -0.2754
      7 N          -6.1930    0.3898   -0.0352 N.am    1  UNL1       -0.3068
      8 CA         -7.2194   -0.6924   -0.0710 C.3     1  UNL1        0.0666
      9 C          -7.1003   -1.5735    1.1904 C.3     1  UNL1       -0.0019
     10 C          -5.7632   -2.2586    1.4073 C.ar    1  UNL1       -0.0201
     11 C          -4.5525   -1.6837    1.7493 C.ar    1  UNL1        0.0060
     12 N          -3.5781   -2.6361    1.6194 N.ar    1  UNL1       -0.3604
     13 C          -4.1304   -3.8646    1.3949 C.ar    1  UNL1        0.0470
     14 C          -3.5144   -5.1076    1.2275 C.ar    1  UNL1       -0.0343
     15 C          -4.3629   -6.2136    1.1673 C.ar    1  UNL1       -0.0182
     16 C          -5.7467   -6.0410    1.1578 C.ar    1  UNL1        0.1176
     17 O          -6.6016   -7.1050    1.1635 O.3     1  UNL1       -0.5067
     18 C          -6.3321   -4.7801    1.1661 C.ar    1  UNL1       -0.0108
     19 C          -5.5063   -3.6624    1.3224 C.ar    1  UNL1        0.0063
     20 C          -8.6817   -0.1505   -0.1530 C.2     1  UNL1        0.0623
     21 O          -8.7620    1.1183   -0.2063 O.co2   1  UNL1       -0.5479
     22 OXT        -9.6070   -1.0105   -0.1739 O.co2   1  UNL1       -0.5479
     23 C          -2.0441   -0.8764   -0.3129 C.ar    1  UNL1        0.3412
     24 O          -2.7841   -1.7549   -0.7261 O.2     1  UNL1       -0.2449
     25 O          -0.8272   -1.3368    0.1271 O.2     1  UNL1       -0.4218
     26 C           0.2556   -0.4894    0.0319 C.ar    1  UNL1        0.1428
     27 C           1.4924   -1.1337   -0.0028 C.ar    1  UNL1        0.0229
     28 C           2.6271   -0.3551    0.0032 C.ar    1  UNL1        0.1204
     29 O           3.8692   -0.9116   -0.0072 O.3     1  UNL1       -0.5066
     30 C           2.5133    1.0298    0.0395 C.ar    1  UNL1       -0.0194
     31 C           1.2498    1.6488    0.0382 C.ar    1  UNL1       -0.0474
     32 C           0.0805    0.8867    0.0128 C.ar    1  UNL1        0.0210
     33 H          -2.4741    3.2754   -0.0201 H       1  UNL1        0.0278
     34 H          -0.9544    3.3554   -0.8923 H       1  UNL1        0.0278
     35 H          -0.9770    3.3528    0.8908 H       1  UNL1        0.0278
     36 H          -3.8697    1.8613   -1.0212 H       1  UNL1        0.0409
     37 H          -4.0629    1.6047    0.7143 H       1  UNL1        0.0409
     38 H          -6.6154    1.3170   -0.0844 H       1  UNL1        0.1493
     39 HA         -7.0694   -1.2984   -0.9758 H       1  UNL1        0.0563
     40 H          -7.8772   -2.3460    1.1622 H       1  UNL1        0.0335
     41 H          -7.3032   -0.9587    2.0742 H       1  UNL1        0.0335
     42 H          -4.2821   -0.6514    1.9024 H       1  UNL1        0.0810
     43 H          -2.5945   -2.4492    1.5031 H       1  UNL1        0.1653
     44 H          -2.4341   -5.2069    1.1985 H       1  UNL1        0.0639
     45 H          -3.9197   -7.2026    1.1462 H       1  UNL1        0.0655
     46 H          -6.0721   -7.9134    1.1911 H       1  UNL1        0.2921
     47 H          -7.4066   -4.6548    1.1170 H       1  UNL1        0.0661
     48 H           1.5244   -2.2189   -0.0314 H       1  UNL1        0.0691
     49 H           3.7750   -1.8794   -0.0392 H       1  UNL1        0.2921
     50 H           3.4124    1.6364    0.0661 H       1  UNL1        0.0654
     51 H           1.2115    2.7330    0.0623 H       1  UNL1        0.0626
@<TRIPOS>UNITY_ATOM_ATTR
22 1
charge -1
@<TRIPOS>BOND
     1     1     2    1
     2     2     3   ar
     3     3     4    1
     4     4     5    1
     5     5     6    2
     6     5     7   am
     7     7     8    1
     8     8     9    1
     9     9    10    1
    10    10    11   ar
    11    11    12   ar
    12    12    13   ar
    13    13    14   ar
    14    14    15   ar
    15    15    16   ar
    16    16    17    1
    17    16    18   ar
    18    18    19   ar
    19    10    19   ar
    20    13    19   ar
    21     8    20    1
    22    20    21   ar
    23    20    22   ar
    24     3    23   ar
    25    23    24    2
    26    23    25   ar
    27    25    26   ar
    28    26    27   ar
    29    27    28   ar
    30    28    29    1
    31    28    30   ar
    32    30    31   ar
    33    31    32   ar
    34     2    32   ar
    35    26    32   ar
    36     1    33    1
    37     1    34    1
    38     1    35    1
    39     4    36    1
    40     4    37    1
    41     7    38    1
    42     8    39    1
    43     9    40    1
    44     9    41    1
    45    11    42    1
    46    12    43    1
    47    14    44    1
    48    15    45    1
    49    17    46    1
    50    18    47    1
    51    27    48    1
    52    29    49    1
    53    30    50    1
    54    31    51    1
