@<TRIPOS>MOLECULE
*****
 56 58 0 0 0
SMALL
GASTEIGER

@<TRIPOS>ATOM
      1 C           1.0975    0.5176   -0.1810 C.3     1  UNL1        0.0820
      2 O           2.5288    0.6502   -0.1791 O.3     1  UNL1       -0.4644
      3 C           3.1062    0.5558   -1.4142 C.2     1  UNL1        0.3407
      4 O           2.5176    0.6064   -2.4737 O.2     1  UNL1       -0.2449
      5 C           4.5779    0.3212   -1.3525 C.ar    1  UNL1        0.0801
      6 C           5.3994    1.0207   -2.2460 C.ar    1  UNL1       -0.0460
      7 C           6.7822    0.7780   -2.3199 C.ar    1  UNL1       -0.0609
      8 C           7.3853   -0.1316   -1.4620 C.ar    1  UNL1       -0.0600
      9 C           6.5817   -0.8393   -0.5732 C.ar    1  UNL1       -0.0397
     10 C           5.1689   -0.6448   -0.5469 C.ar    1  UNL1        0.0467
     11 N           4.4525   -1.4442    0.3653 N.am    1  UNL1       -0.2961
     12 C           3.1857   -2.0472    0.2572 C.2     1  UNL1        0.1375
     13 S           2.5965   -2.6995   -1.1759 S.2     1  UNL1       -0.0183
     14 N           2.5595   -2.2641    1.5241 N.am    1  UNL1       -0.3058
     15 C           3.2610   -3.1364    2.4343 C.3     1  UNL1        0.0373
     16 C           4.7644   -3.3435    2.3542 C.3     1  UNL1        0.0599
     17 O           5.2035   -4.2956    3.2993 O.3     1  UNL1       -0.3935
     18 C           1.0423   -2.1881    1.7278 C.3     1  UNL1        0.0439
     19 C           0.2635   -3.0711    2.7291 C.ar    1  UNL1        0.0317
     20 C          -0.9470   -3.6597    2.4293 C.ar    1  UNL1       -0.0428
     21 C          -1.5047   -4.5362    3.4328 C.ar    1  UNL1        0.0012
     22 C          -0.8004   -5.6077    4.0831 C.ar    1  UNL1       -0.0523
     23 C          -1.2987   -6.3015    5.1924 C.ar    1  UNL1       -0.0579
     24 C          -2.5537   -5.9809    5.6374 C.ar    1  UNL1       -0.0455
     25 C          -3.2464   -6.9667    6.5305 C.3     1  UNL1       -0.0394
     26 C          -3.0588   -4.7670    5.1387 C.ar    1  UNL1       -0.0215
     27 C          -4.5969   -4.7171    5.0659 C.3     1  UNL1       -0.0374
     28 C          -2.0909   -3.8809    4.4300 C.ar    1  UNL1        0.0780
     29 N          -0.9907   -3.0909    4.8924 N.ar    1  UNL1       -0.2125
     30 C           0.2264   -2.9031    4.1048 C.ar    1  UNL1        0.2176
     31 O           1.3639   -3.4470    4.7337 O.3     1  UNL1       -0.4922
     32 H           0.7547    0.5144    0.8574 H       1  UNL1        0.0661
     33 H           0.7789   -0.4287   -0.6327 H       1  UNL1        0.0661
     34 H           0.6089    1.3474   -0.6898 H       1  UNL1        0.0661
     35 H           4.9528    1.7536   -2.9104 H       1  UNL1        0.0626
     36 H           7.3843    1.2927   -3.0644 H       1  UNL1        0.0618
     37 H           8.4619   -0.3009   -1.4990 H       1  UNL1        0.0618
     38 H           7.0765   -1.5799    0.0587 H       1  UNL1        0.0636
     39 H           5.1370   -1.9832    0.8454 H       1  UNL1        0.1538
     40 H           2.8016   -4.1157    2.2805 H       1  UNL1        0.0487
     41 H           3.0759   -2.7356    3.4266 H       1  UNL1        0.0487
     42 H           5.2824   -2.4020    2.5784 H       1  UNL1        0.0573
     43 H           5.0389   -3.7318    1.3664 H       1  UNL1        0.0573
     44 H           5.2502   -3.8321    4.1527 H       1  UNL1        0.2095
     45 H           0.5791   -2.3050    0.7411 H       1  UNL1        0.0515
     46 H           0.8351   -1.1581    2.0353 H       1  UNL1        0.0515
     47 H          -1.6419   -2.9141    1.9851 H       1  UNL1        0.0629
     48 H           0.2906   -5.6065    4.0825 H       1  UNL1        0.0624
     49 H          -0.6865   -7.0213    5.7219 H       1  UNL1        0.0620
     50 H          -2.5216   -7.6909    6.9233 H       1  UNL1        0.0278
     51 H          -3.9996   -7.5465    5.9842 H       1  UNL1        0.0278
     52 H          -3.6985   -6.4717    7.3934 H       1  UNL1        0.0278
     53 H          -5.0503   -5.5668    5.6099 H       1  UNL1        0.0278
     54 H          -5.0017   -4.8438    4.0521 H       1  UNL1        0.0278
     55 H          -5.0306   -3.8400    5.5494 H       1  UNL1        0.0278
     56 H           1.7810   -4.0619    4.0950 H       1  UNL1        0.2937
@<TRIPOS>BOND
     1     1     2    1
     2     2     3    1
     3     3     4    2
     4     3     5    1
     5     5     6   ar
     6     6     7   ar
     7     7     8   ar
     8     8     9   ar
     9     9    10   ar
    10     5    10   ar
    11    10    11    1
    12    11    12    1
    13    12    13    2
    14    12    14    1
    15    14    15    1
    16    15    16    1
    17    16    17    1
    18    14    18    1
    19    18    19    1
    20    19    20   ar
    21    20    21   ar
    22    21    22   ar
    23    22    23   ar
    24    23    24   ar
    25    24    25    1
    26    24    26   ar
    27    26    27    1
    28    26    28   ar
    29    21    28   ar
    30    28    29   ar
    31    29    30   ar
    32    19    30   ar
    33    30    31    1
    34     1    32    1
    35     1    33    1
    36     1    34    1
    37     6    35    1
    38     7    36    1
    39     8    37    1
    40     9    38    1
    41    11    39    1
    42    15    40    1
    43    15    41    1
    44    16    42    1
    45    16    43    1
    46    17    44    1
    47    18    45    1
    48    18    46    1
    49    20    47    1
    50    22    48    1
    51    23    49    1
    52    25    50    1
    53    25    51    1
    54    25    52    1
    55    27    53    1
    56    27    54    1
    57    27    55    1
    58    31    56    1
