@<TRIPOS>MOLECULE
*****
 45 47 0 0 0
SMALL
GASTEIGER

@<TRIPOS>ATOM
      1 O           1.0668   -0.0526    0.1005 O.2     1  UNL1       -0.2687
      2 C           2.2938   -0.1120    0.1306 C.2     1  UNL1        0.2601
      3 N           3.0191   -0.0586    1.3117 N.am    1  UNL1       -0.2311
      4 N           2.3832    0.1244    2.6115 N.am    1  UNL1       -0.2453
      5 C           3.2034    0.2441    3.7511 C.2     1  UNL1        0.1533
      6 S           4.8829    0.2282    3.5581 S.2     1  UNL1       -0.0170
      7 N           2.5288    0.3492    4.9919 N.am    1  UNL1       -0.2623
      8 C           3.1177    0.5039    6.2757 C.2     1  UNL1        0.2562
      9 O           4.3434    0.5780    6.4353 O.2     1  UNL1       -0.2692
     10 C           2.2496    0.5752    7.4551 C.ar    1  UNL1        0.0742
     11 C           1.1704   -0.1995    7.8422 C.ar    1  UNL1       -0.0425
     12 C           0.7028    0.1154    9.1624 C.ar    1  UNL1       -0.0540
     13 C           1.4306    1.1250    9.7501 C.ar    1  UNL1       -0.0236
     14 S           2.6870    1.6675    8.7268 S.2     1  UNL1       -0.0921
     15 C           3.0925   -0.1823   -1.1524 C.ar    1  UNL1        0.0383
     16 C           4.2416   -0.9699   -1.3264 C.ar    1  UNL1       -0.0478
     17 C           4.9751   -0.9381   -2.5467 C.ar    1  UNL1       -0.0398
     18 C           4.5368   -0.1703   -3.6379 C.ar    1  UNL1        0.0337
     19 N           5.2315   -0.2180   -4.8895 N.am    1  UNL1       -0.2815
     20 C           4.8528    0.4774   -6.0390 C.2     1  UNL1        0.2483
     21 O           3.9054    1.2533   -6.1412 O.2     1  UNL1       -0.2699
     22 C           5.6357    0.2850   -7.2875 C.ar    1  UNL1        0.0370
     23 C           5.8288    1.4079   -8.1132 C.ar    1  UNL1       -0.0496
     24 C           6.3461    1.2640   -9.4012 C.ar    1  UNL1       -0.0610
     25 C           6.7240    0.0029   -9.8535 C.ar    1  UNL1       -0.0617
     26 C           6.5436   -1.1162   -9.0354 C.ar    1  UNL1       -0.0610
     27 C           5.9888   -0.9822   -7.7556 C.ar    1  UNL1       -0.0496
     28 C           3.3846    0.5974   -3.4456 C.ar    1  UNL1       -0.0398
     29 C           2.6662    0.5847   -2.2369 C.ar    1  UNL1       -0.0478
     30 H           4.0335    0.0463    1.3110 H       1  UNL1        0.1731
     31 H           1.3647    0.1562    2.5873 H       1  UNL1        0.1718
     32 H           1.5181    0.3642    4.9759 H       1  UNL1        0.1569
     33 H           0.7708   -1.0101    7.2497 H       1  UNL1        0.0630
     34 H          -0.1119   -0.3893    9.6698 H       1  UNL1        0.0623
     35 H           1.2984    1.5513   10.7389 H       1  UNL1        0.0693
     36 H           4.5631   -1.6466   -0.5375 H       1  UNL1        0.0626
     37 H           5.8883   -1.5273   -2.6158 H       1  UNL1        0.0636
     38 H           6.0508   -0.8115   -4.9438 H       1  UNL1        0.1551
     39 H           5.5343    2.3973   -7.7655 H       1  UNL1        0.0625
     40 H           6.4239    2.1280  -10.0578 H       1  UNL1        0.0618
     41 H           7.1415   -0.1093  -10.8520 H       1  UNL1        0.0618
     42 H           6.8002   -2.1016   -9.4177 H       1  UNL1        0.0618
     43 H           5.7786   -1.8723   -7.1715 H       1  UNL1        0.0625
     44 H           2.9946    1.2422   -4.2248 H       1  UNL1        0.0636
     45 H           1.7679    1.1942   -2.1691 H       1  UNL1        0.0626
@<TRIPOS>BOND
     1     1     2    2
     2     2     3   am
     3     3     4    1
     4     4     5    1
     5     5     6    2
     6     5     7    1
     7     7     8   am
     8     8     9    2
     9     8    10    1
    10    10    11   ar
    11    11    12   ar
    12    12    13   ar
    13    13    14   ar
    14    10    14   ar
    15     2    15    1
    16    15    16   ar
    17    16    17   ar
    18    17    18   ar
    19    18    19    1
    20    19    20   am
    21    20    21    2
    22    20    22    1
    23    22    23   ar
    24    23    24   ar
    25    24    25   ar
    26    25    26   ar
    27    26    27   ar
    28    22    27   ar
    29    18    28   ar
    30    28    29   ar
    31    15    29   ar
    32     3    30    1
    33     4    31    1
    34     7    32    1
    35    11    33    1
    36    12    34    1
    37    13    35    1
    38    16    36    1
    39    17    37    1
    40    19    38    1
    41    23    39    1
    42    24    40    1
    43    25    41    1
    44    26    42    1
    45    27    43    1
    46    28    44    1
    47    29    45    1
