REMARK  9 active torsions:
REMARK  status: ('A' for Active; 'I' for Inactive)
REMARK    1  A    between atoms: O_2  and  C_3 
REMARK    2  A    between atoms: C_6  and  C_7 
REMARK    3  A    between atoms: C_10  and  C_11 
REMARK    4  A    between atoms: C_11  and  O_12 
REMARK    5  A    between atoms: C_15  and  N_16 
REMARK    6  A    between atoms: N_16  and  C_17 
REMARK    7  A    between atoms: C_17  and  N_19 
REMARK       I    between atoms: N_19  and  C_20 
REMARK    8  A    between atoms: C_20  and  C_22 
REMARK    9  A    between atoms: C_28  and  O_29 
ROOT
ATOM      1  N   UNL d   1       1.469  -2.489   0.209  0.00  0.00    -0.331 N 
ATOM      2  H   UNL d   1       1.122  -3.375   0.558  0.00  0.00     0.168 HD
ENDROOT
BRANCH   1   3
ATOM      3  C   UNL d   1       2.651  -1.986   0.907  0.00  0.00     0.069 C 
ATOM      4  C   UNL d   1       3.487  -2.886   1.655  0.00  0.00     0.046 C 
ATOM      5  C   UNL d   1       4.724  -2.480   2.257  0.00  0.00     0.000 C 
ATOM      6  C   UNL d   1       5.136  -1.165   2.063  0.00  0.00     0.017 C 
ATOM      7  C   UNL d   1       4.280  -0.254   1.440  0.00  0.00     0.040 C 
ATOM      8  C   UNL d   1       3.033  -0.634   0.906  0.00  0.00     0.095 C 
BRANCH   5   9
ATOM      9  C   UNL d   1       5.623  -3.406   2.974  0.00  0.00     0.086 A 
ATOM     10  C   UNL d   1       6.208  -4.603   2.614  0.00  0.00     0.040 A 
ATOM     11  C   UNL d   1       7.024  -5.016   3.690  0.00  0.00     0.038 A 
ATOM     12  C   UNL d   1       6.904  -4.064   4.681  0.00  0.00     0.077 A 
ATOM     13  O   UNL d   1       6.062  -3.060   4.243  0.00  0.00    -0.312 OA
BRANCH  12  14
ATOM     14  C   UNL d   1       7.511  -3.982   6.044  0.00  0.00     0.229 C 
BRANCH  14  15
ATOM     15  O   UNL d   1       8.339  -5.138   6.236  0.00  0.00    -0.394 OA
ATOM     16  H   UNL d   1       7.764  -5.918   6.156  0.00  0.00     0.209 HD
ENDBRANCH  14  15
ENDBRANCH  12  14
ENDBRANCH   5   9
BRANCH   8  17
ATOM     17  O   UNL d   1       2.376   0.438   0.370  0.00  0.00    -0.354 OA
ATOM     18  C   UNL d   1       0.979   0.589   0.569  0.00  0.00     0.210 C 
ENDBRANCH   8  17
ENDBRANCH   1   3
BRANCH   1  19
ATOM     19  C   UNL d   1       0.915  -1.979  -1.008  0.00  0.00     0.179 C 
ATOM     20  S   UNL d   1       1.763  -1.257  -2.260  0.00  0.00    -0.040 SA
BRANCH  19  21
ATOM     21  N   UNL d   1      -0.486  -2.154  -1.112  0.00  0.00    -0.299 N 
ATOM     22  C   UNL d   1      -1.474  -1.200  -1.482  0.00  0.00     0.260 C 
ATOM     23  O   UNL d   1      -1.329   0.010  -1.463  0.00  0.00    -0.267 OA
ATOM     24  H   UNL d   1      -0.780  -3.114  -1.178  0.00  0.00     0.171 HD
BRANCH  22  25
ATOM     25  C   UNL d   1      -2.862  -1.696  -1.763  0.00  0.00     0.067 A 
ATOM     26  C   UNL d   1      -3.425  -1.232  -2.980  0.00  0.00     0.043 A 
ATOM     27  C   UNL d   1      -4.754  -1.512  -3.313  0.00  0.00     0.035 A 
ATOM     28 CL   UNL d   1      -5.475  -0.804  -4.708  0.00  0.00    -0.084 Cl
ATOM     29  C   UNL d   1      -5.523  -2.320  -2.490  0.00  0.00     0.026 A 
ATOM     30  C   UNL d   1      -4.989  -2.752  -1.273  0.00  0.00     0.039 A 
ATOM     31  C   UNL d   1      -3.677  -2.416  -0.869  0.00  0.00     0.084 A 
BRANCH  31  32
ATOM     32  O   UNL d   1      -3.439  -2.831   0.416  0.00  0.00    -0.355 OA
ATOM     33  C   UNL d   1      -2.193  -2.557   1.025  0.00  0.00     0.210 C 
ENDBRANCH  31  32
ENDBRANCH  22  25
ENDBRANCH  19  21
ENDBRANCH   1  19
TORSDOF 9
