REMARK  13 active torsions:
REMARK  status: ('A' for Active; 'I' for Inactive)
REMARK    1  A    between atoms: O_2  and  C_3 
REMARK    2  A    between atoms: C_3  and  C_4 
REMARK    3  A    between atoms: C_4  and  O_5 
REMARK    4  A    between atoms: O_5  and  C_6 
REMARK    5  A    between atoms: C_6  and  C_8 
REMARK    6  A    between atoms: C_9  and  N_10 
REMARK       I    between atoms: N_10  and  C_11 
REMARK    7  A    between atoms: C_11  and  C_13 
REMARK    8  A    between atoms: C_13  and  N_14 
REMARK    9  A    between atoms: N_14  and  C_15 
REMARK   10  A    between atoms: C_15  and  C_16 
REMARK   11  A    between atoms: C_15  and  C_23 
REMARK   12  A    between atoms: C_16  and  C_17 
REMARK   13  A    between atoms: C_30  and  C_31 
REMARK       I    between atoms: C_31  and  N_32 
ROOT
ATOM      1  N   UNL d   1       5.368  -2.329   0.959  0.00  0.00    -0.319 N 
ATOM      2  C   UNL d   1       4.245  -2.763   0.204  0.00  0.00     0.248 C 
ATOM      3  O   UNL d   1       4.349  -3.476  -0.793  0.00  0.00    -0.271 OA
ATOM      4  H   UNL d   1       5.306  -2.046   1.941  0.00  0.00     0.169 HD
ENDROOT
BRANCH   1   5
ATOM      5  C   UNL d   1       6.679  -2.323   0.396  0.00  0.00     0.094 C 
ATOM      6  C   UNL d   1       7.152  -2.259  -0.913  0.00  0.00     0.080 C 
ATOM      7  C   UNL d   1       8.606  -2.423  -0.985  0.00  0.00    -0.020 C 
ATOM      8  C   UNL d   1       9.229  -2.484   0.249  0.00  0.00     0.081 C 
ATOM      9  C   UNL d   1       9.228  -2.497  -2.343  0.00  0.00     0.051 C 
ATOM     10  S   UNL d   1       8.009  -2.319   1.502  0.00  0.00    -0.065 SA
BRANCH   6  11
ATOM     11  C   UNL d   1       6.423  -2.081  -2.174  0.00  0.00     0.296 C 
ATOM     12  O   UNL d   1       6.803  -2.580  -3.255  0.00  0.00    -0.259 OA
BRANCH  11  13
ATOM     13  O   UNL d   1       5.396  -1.256  -2.295  0.00  0.00    -0.315 OA
BRANCH  13  14
ATOM     14  C   UNL d   1       5.069  -0.247  -1.390  0.00  0.00     0.205 C 
BRANCH  14  15
ATOM     15  C   UNL d   1       3.611  -0.253  -1.554  0.00  0.00     0.193 C 
BRANCH  15  16
ATOM     16  O   UNL d   1       3.283   0.700  -0.593  0.00  0.00    -0.394 OA
ATOM     17  C   UNL d   1       1.950   0.815  -0.347  0.00  0.00     0.201 C 
ENDBRANCH  15  16
ENDBRANCH  14  15
ENDBRANCH  13  14
ENDBRANCH  11  13
ENDBRANCH   6  11
BRANCH   8  18
ATOM     18  C   UNL d   1      10.657  -2.647   0.608  0.00  0.00     0.256 C 
ATOM     19  N   UNL d   1      11.612  -2.761  -0.382  0.00  0.00    -0.365 N 
ATOM     20  H   UNL d   1      11.504  -2.740  -1.374  0.00  0.00     0.159 HD
ATOM     21  H   UNL d   1      12.576  -2.888  -0.105  0.00  0.00     0.159 HD
ATOM     22  O   UNL d   1      11.080  -2.694   1.761  0.00  0.00    -0.267 OA
ENDBRANCH   8  18
ENDBRANCH   1   5
BRANCH   2  23
ATOM     23  C   UNL d   1       2.797  -2.265   0.623  0.00  0.00     0.335 C 
BRANCH  23  24
ATOM     24  N   UNL d   1       1.548  -2.032  -0.518  0.00  0.00    -0.058 N 
ATOM     25  H   UNL d   1       1.562  -2.852  -1.151  0.00  0.00     0.278 HD
ATOM     26  H   UNL d   1       1.748  -1.325  -1.226  0.00  0.00     0.278 HD
BRANCH  24  27
ATOM     27  C   UNL d   1       0.067  -1.554  -0.192  0.00  0.00     0.223 C 
BRANCH  27  28
ATOM     28  C   UNL d   1      -0.243  -0.295   0.883  0.00  0.00     0.076 C 
BRANCH  28  29
ATOM     29  C   UNL d   1       0.665  -0.212   2.149  0.00  0.00    -0.056 A 
ATOM     30  C   UNL d   1       1.052  -1.418   2.732  0.00  0.00     0.007 A 
ATOM     31  C   UNL d   1       2.083  -1.493   3.682  0.00  0.00     0.001 A 
ATOM     32  C   UNL d   1       2.717  -0.346   4.141  0.00  0.00     0.000 A 
ATOM     33  C   UNL d   1       2.357   0.880   3.601  0.00  0.00     0.001 A 
ATOM     34  C   UNL d   1       1.347   0.953   2.617  0.00  0.00     0.007 A 
ENDBRANCH  28  29
ENDBRANCH  27  28
BRANCH  27  35
ATOM     35  C   UNL d   1      -0.610  -1.312  -1.566  0.00  0.00    -0.028 C 
ATOM     36  C   UNL d   1      -0.847  -0.059  -2.178  0.00  0.00     0.009 C 
ATOM     37  C   UNL d   1      -1.692   0.057  -3.283  0.00  0.00     0.001 C 
ATOM     38  C   UNL d   1      -2.206  -1.087  -3.873  0.00  0.00     0.000 C 
ATOM     39  C   UNL d   1      -1.835  -2.341  -3.394  0.00  0.00     0.001 C 
ATOM     40  C   UNL d   1      -1.020  -2.453  -2.269  0.00  0.00     0.009 C 
ENDBRANCH  27  35
ENDBRANCH  24  27
ENDBRANCH  23  24
ENDBRANCH   2  23
TORSDOF 13
