@<TRIPOS>MOLECULE
*****
 63 66 0 0 0
SMALL
GASTEIGER

@<TRIPOS>ATOM
      1 C           1.1312   -0.0096    0.7114 C.3     1  UNL1        0.0790
      2 O           2.5419   -0.0588    0.5203 O.3     1  UNL1       -0.4914
      3 C           3.0998   -0.7701   -0.5086 C.ar    1  UNL1        0.1617
      4 C           4.1914   -1.5969   -0.1616 C.ar    1  UNL1       -0.0131
      5 C           4.9711   -2.3226   -1.1272 C.ar    1  UNL1       -0.0195
      6 C           4.7568   -2.1507   -2.4873 C.ar    1  UNL1        0.1035
      7 N           5.2938   -2.9735   -3.5361 N.pl3   1  UNL1       -0.2449
      8 C           4.9046   -3.0674   -4.8910 C.2     1  UNL1        0.3842
      9 N           3.9603   -2.4792   -5.5695 N.am    1  UNL1        0.0006
     10 C           2.8147   -2.1303   -4.9050 C.2     1  UNL1        0.3406
     11 O           2.2595   -2.8594   -4.1207 O.2     1  UNL1       -0.2484
     12 C           2.0448   -0.9755   -5.4556 C.ar    1  UNL1        0.0564
     13 C           2.1216    0.3932   -5.1357 C.ar    1  UNL1       -0.0481
     14 C           0.9924    1.2080   -5.3113 C.ar    1  UNL1       -0.0607
     15 C          -0.1423    0.6931   -5.9288 C.ar    1  UNL1       -0.0588
     16 C          -0.1519   -0.6341   -6.3557 C.ar    1  UNL1       -0.0497
     17 C          -1.3033   -1.2803   -7.0330 C.3     1  UNL1       -0.0397
     18 C           0.9287   -1.4596   -6.0977 C.ar    1  UNL1       -0.0452
     19 N           5.6483   -3.9632   -5.6803 N.pl3   1  UNL1       -0.2767
     20 C           5.1359   -4.2832   -7.0480 C.3     1  UNL1        0.0684
     21 C           5.9310   -5.3540   -7.7859 C.3     1  UNL1        0.0059
     22 C           5.6141   -5.6358   -9.2412 C.2     1  UNL1        0.0106
     23 C           6.3283   -6.5429   -9.9148 C.ar    1  UNL1        0.0510
     24 C           7.3956   -7.3811   -9.4966 C.ar    1  UNL1       -0.0482
     25 C           8.0058   -8.1410  -10.4113 C.ar    1  UNL1       -0.0608
     26 C           7.5486   -8.1741  -11.7916 C.ar    1  UNL1       -0.0555
     27 C           6.5314   -7.4225  -12.2641 C.ar    1  UNL1        0.0098
     28 C           5.8498   -6.5269  -11.3035 C.ar    1  UNL1        0.2086
     29 N           4.8860   -5.7003  -11.4559 N.2     1  UNL1       -0.2369
     30 C           4.5865   -5.0131  -10.1565 C.3     1  UNL1        0.1661
     31 C           3.9280   -1.0741   -2.7369 C.ar    1  UNL1        0.0222
     32 C           2.9295   -0.5700   -1.8564 C.ar    1  UNL1        0.1647
     33 O           1.9400    0.0132   -2.5716 O.3     1  UNL1       -0.4913
     34 C           0.8448    0.6939   -2.0322 C.3     1  UNL1        0.0790
     35 H           0.9250    0.2077    1.7620 H       1  UNL1        0.0660
     36 H           0.6238   -0.9362    0.4280 H       1  UNL1        0.0660
     37 H           0.6781    0.8617    0.2365 H       1  UNL1        0.0660
     38 H           4.4398   -1.6937    0.8931 H       1  UNL1        0.0656
     39 H           5.7662   -2.9681   -0.7680 H       1  UNL1        0.0653
     40 H           5.8738   -3.7197   -3.1803 H       1  UNL1        0.2646
     41 H           2.9395    0.8346   -4.5686 H       1  UNL1        0.0626
     42 H           0.9550    2.2013   -4.8592 H       1  UNL1        0.0618
     43 H          -1.0227    1.3188   -6.0451 H       1  UNL1        0.0620
     44 H          -2.0975   -0.5645   -7.2323 H       1  UNL1        0.0278
     45 H          -1.6827   -2.0948   -6.4069 H       1  UNL1        0.0278
     46 H          -0.9411   -1.6954   -7.9797 H       1  UNL1        0.0278
     47 H           0.8706   -2.5266   -6.2998 H       1  UNL1        0.0628
     48 H           6.1414   -4.7135   -5.2096 H       1  UNL1        0.2577
     49 H           5.1840   -3.3673   -7.6452 H       1  UNL1        0.0658
     50 H           4.0897   -4.6180   -7.0118 H       1  UNL1        0.0658
     51 H           5.8260   -6.3039   -7.2429 H       1  UNL1        0.0343
     52 H           6.9934   -5.0808   -7.7337 H       1  UNL1        0.0343
     53 H           7.7057   -7.3792   -8.4576 H       1  UNL1        0.0626
     54 H           8.8563   -8.7504  -10.1168 H       1  UNL1        0.0618
     55 H           8.0777   -8.8748  -12.4356 H       1  UNL1        0.0620
     56 H           6.2309   -7.4878  -13.3036 H       1  UNL1        0.0683
     57 H           4.4138   -5.5575  -12.3492 H       1  UNL1        0.4459
     58 H           3.5570   -5.2584   -9.8812 H       1  UNL1        0.1077
     59 H           4.7171   -3.9383  -10.3085 H       1  UNL1        0.1077
     60 H           4.0133   -0.6348   -3.7162 H       1  UNL1        0.0690
     61 H           0.2285    1.1392   -2.8163 H       1  UNL1        0.0660
     62 H           1.2320    1.5347   -1.4596 H       1  UNL1        0.0660
     63 H           0.1640    0.0041   -1.5289 H       1  UNL1        0.0660
@<TRIPOS>UNITY_ATOM_ATTR
29 1
charge 1
@<TRIPOS>BOND
     1     1     2    1
     2     2     3    1
     3     3     4   ar
     4     4     5   ar
     5     5     6   ar
     6     6     7    1
     7     7     8    1
     8     8     9    2
     9     9    10    1
    10    10    11    2
    11    10    12    1
    12    12    13   ar
    13    13    14   ar
    14    14    15   ar
    15    15    16   ar
    16    16    17    1
    17    16    18   ar
    18    12    18   ar
    19     8    19    1
    20    19    20    1
    21    20    21    1
    22    21    22    1
    23    22    23    2
    24    23    24   ar
    25    24    25   ar
    26    25    26   ar
    27    26    27   ar
    28    27    28   ar
    29    23    28   ar
    30    28    29    2
    31    29    30    1
    32    22    30    1
    33     6    31   ar
    34    31    32   ar
    35     3    32   ar
    36    32    33    1
    37    33    34    1
    38     1    35    1
    39     1    36    1
    40     1    37    1
    41     4    38    1
    42     5    39    1
    43     7    40    1
    44    13    41    1
    45    14    42    1
    46    15    43    1
    47    17    44    1
    48    17    45    1
    49    17    46    1
    50    18    47    1
    51    19    48    1
    52    20    49    1
    53    20    50    1
    54    21    51    1
    55    21    52    1
    56    24    53    1
    57    25    54    1
    58    26    55    1
    59    27    56    1
    60    29    57    1
    61    30    58    1
    62    30    59    1
    63    31    60    1
    64    34    61    1
    65    34    62    1
    66    34    63    1
