REMARK  6 active torsions:
REMARK  status: ('A' for Active; 'I' for Inactive)
REMARK    1  A    between atoms: C_2  and  C_26 
REMARK    2  A    between atoms: N_3  and  N_4 
REMARK       I    between atoms: N_4  and  C_5 
REMARK    3  A    between atoms: C_5  and  C_7 
REMARK    4  A    between atoms: N_10  and  C_11 
REMARK    5  A    between atoms: C_15  and  N_16 
REMARK    6  A    between atoms: N_19  and  C_18 
ROOT
ATOM      1  C   UNL d   1       3.813   1.134   3.944  0.00  0.00     0.170 A 
ATOM      2  N   UNL d   1       2.512   0.786   3.817  0.00  0.00    -0.152 NA
ATOM      3  N   UNL d   1       2.385  -0.049   2.787  0.00  0.00     0.012 NA
ATOM      4  N   UNL d   1       3.740  -0.404   2.140  0.00  0.00    -0.215 N 
ATOM      5  C   UNL d   1       4.528   0.420   2.991  0.00  0.00     0.096 A 
ATOM      6  C   UNL d   1       5.905   0.371   2.757  0.00  0.00     0.296 C 
ENDROOT
BRANCH   1   7
ATOM      7  C   UNL d   1       4.379   2.054   4.993  0.00  0.00     0.293 C 
ATOM      8  N   UNL d   1       5.448   2.844   4.529  0.00  0.00    -0.241 N 
ATOM      9  H   UNL d   1       5.650   2.850   3.549  0.00  0.00     0.192 HD
ATOM     10  O   UNL d   1       3.989   2.045   6.155  0.00  0.00    -0.264 OA
BRANCH   8  11
ATOM     11  N   UNL d   1       6.168   3.724   5.328  0.00  0.00    -0.176 NA
ATOM     12  C   UNL d   1       7.115   4.484   4.821  0.00  0.00     0.061 C 
ATOM     13  C   UNL d   1       7.893   5.423   5.747  0.00  0.00     0.073 C 
BRANCH  12  14
ATOM     14  C   UNL d   1       7.512   4.535   3.377  0.00  0.00    -0.009 A 
ATOM     15  C   UNL d   1       8.852   4.485   2.983  0.00  0.00     0.014 A 
ATOM     16  C   UNL d   1       9.172   4.433   1.621  0.00  0.00     0.013 A 
ATOM     17  C   UNL d   1       8.163   4.385   0.645  0.00  0.00    -0.026 A 
ATOM     18  C   UNL d   1       8.463   4.265  -0.720  0.00  0.00     0.012 A 
ATOM     19  C   UNL d   1       6.811   4.466   1.044  0.00  0.00    -0.025 A 
ATOM     20  C   UNL d   1       7.442   4.217  -1.672  0.00  0.00     0.001 A 
ATOM     21  C   UNL d   1       6.111   4.284  -1.273  0.00  0.00     0.001 A 
ATOM     22  C   UNL d   1       5.794   4.412   0.079  0.00  0.00     0.012 A 
ATOM     23  C   UNL d   1       6.508   4.596   2.404  0.00  0.00     0.026 A 
ENDBRANCH  12  14
ENDBRANCH   8  11
ENDBRANCH   1   7
BRANCH   4  24
ATOM     24  C   UNL d   1       4.156  -1.837   0.812  0.00  0.00     0.219 A 
ATOM     25  N   UNL d   1       4.046  -1.810  -0.543  0.00  0.00    -0.082 NA
ATOM     26  O   UNL d   1       4.050  -3.099  -1.043  0.00  0.00    -0.103 OA
ATOM     27  N   UNL d   1       4.081  -4.134  -0.118  0.00  0.00    -0.089 NA
ATOM     28  C   UNL d   1       4.145  -3.589   1.090  0.00  0.00     0.180 A 
BRANCH  28  29
ATOM     29  N   UNL d   1       4.570  -4.287   2.398  0.00  0.00    -0.282 NA
ATOM     30  H   UNL d   1       5.546  -4.590   2.526  0.00  0.00     0.126 HD
ATOM     31  H   UNL d   1       4.495  -3.804   3.322  0.00  0.00     0.126 HD
ENDBRANCH  28  29
ENDBRANCH   4  24
BRANCH   6  32
ATOM     32  N   UNL d   1       5.901  -0.532   1.626  0.00  0.00    -0.062 N 
ATOM     33  C   UNL d   1       4.926   0.245   0.208  0.00  0.00     0.235 C 
ATOM     34  C   UNL d   1       2.979   0.045   0.257  0.00  0.00     0.028 C 
ATOM     35  C   UNL d   1       2.183  -1.554   1.163  0.00  0.00     0.004 C 
ATOM     36  C   UNL d   1       3.368  -2.290   2.656  0.00  0.00     0.033 C 
ATOM     37  C   UNL d   1       5.435  -2.150   2.368  0.00  0.00     0.184 C 
ATOM     38  C   UNL d   1       6.451  -3.100   1.085  0.00  0.00     0.040 C 
ATOM     39  H   UNL d   1       6.884  -0.635   1.330  0.00  0.00     0.280 HD
ENDBRANCH   6  32
TORSDOF 6
