REMARK  7 active torsions:
REMARK  status: ('A' for Active; 'I' for Inactive)
REMARK    1  A    between atoms: C_2  and  N_3 
REMARK    2  A    between atoms: C_2  and  C_13 
REMARK       I    between atoms: N_3  and  C_4 
REMARK       I    between atoms: C_4  and  N_6 
REMARK    3  A    between atoms: N_6  and  C_7 
REMARK       I    between atoms: C_13  and  N_15 
REMARK    4  A    between atoms: N_15  and  C_16 
REMARK    5  A    between atoms: C_19  and  O_20 
REMARK    6  A    between atoms: O_20  and  C_21 
REMARK    7  A    between atoms: C_21  and  C_22 
ROOT
ATOM      1  C   UNL d   1       3.127  -1.305  -0.666  0.00  0.00     0.244 C 
ATOM      2  O   UNL d   1       2.308  -2.100  -1.134  0.00  0.00    -0.271 OA
ATOM      3  N   UNL d   1       4.500  -1.494  -0.795  0.00  0.00    -0.324 N 
ATOM      4  H   UNL d   1       5.112  -0.939  -0.211  0.00  0.00     0.169 HD
ENDROOT
BRANCH   1   5
ATOM      5  C   UNL d   1       2.659  -0.014   0.081  0.00  0.00     0.174 C 
ATOM      6  C   UNL d   1       1.116  -0.004   0.029  0.00  0.00     0.042 C 
BRANCH   5   7
ATOM      7  N   UNL d   1       3.174   0.153   1.464  0.00  0.00    -0.330 N 
ATOM      8  C   UNL d   1       2.794   1.259   2.208  0.00  0.00     0.321 C 
ATOM      9  O   UNL d   1       2.122   2.166   1.707  0.00  0.00    -0.247 OA
ATOM     10  N   UNL d   1       3.254   1.283   3.509  0.00  0.00    -0.309 N 
ATOM     11  H   UNL d   1       3.991   0.653   3.785  0.00  0.00     0.170 HD
ATOM     12  H   UNL d   1       3.587  -0.641   1.931  0.00  0.00     0.165 HD
BRANCH  10  13
ATOM     13  C   UNL d   1       2.876   2.284   4.454  0.00  0.00     0.036 A 
ATOM     14  C   UNL d   1       3.778   2.716   5.435  0.00  0.00     0.029 A 
ATOM     15  C   UNL d   1       3.362   3.595   6.450  0.00  0.00     0.002 A 
ATOM     16  C   UNL d   1       2.054   4.075   6.476  0.00  0.00     0.000 A 
ATOM     17  C   UNL d   1       1.160   3.673   5.489  0.00  0.00     0.002 A 
ATOM     18  C   UNL d   1       1.572   2.793   4.482  0.00  0.00     0.029 A 
ENDBRANCH  10  13
ENDBRANCH   5   7
ENDBRANCH   1   5
BRANCH   3  19
ATOM     19  C   UNL d   1       5.014  -2.690  -1.372  0.00  0.00     0.052 A 
ATOM     20  C   UNL d   1       4.512  -3.212  -2.562  0.00  0.00     0.035 A 
ATOM     21  C   UNL d   1       4.994  -4.424  -3.062  0.00  0.00     0.060 A 
ATOM     22  C   UNL d   1       5.973  -5.109  -2.358  0.00  0.00     0.164 A 
ATOM     23  N   UNL d   1       6.499  -4.614  -1.213  0.00  0.00    -0.235 NA
ATOM     24  C   UNL d   1       6.022  -3.422  -0.756  0.00  0.00     0.149 A 
BRANCH  22  25
ATOM     25  O   UNL d   1       6.497  -6.317  -2.740  0.00  0.00    -0.330 OA
BRANCH  25  26
ATOM     26  C   UNL d   1       6.007  -6.865  -3.970  0.00  0.00     0.216 C 
BRANCH  26  27
ATOM     27  C   UNL d   1       6.688  -8.184  -4.240  0.00  0.00    -0.034 A 
ATOM     28  C   UNL d   1       5.969  -9.388  -4.198  0.00  0.00     0.009 A 
ATOM     29  C   UNL d   1       6.636 -10.610  -4.305  0.00  0.00     0.001 A 
ATOM     30  C   UNL d   1       8.008 -10.638  -4.543  0.00  0.00     0.000 A 
ATOM     31  C   UNL d   1       8.722  -9.445  -4.647  0.00  0.00     0.001 A 
ATOM     32  C   UNL d   1       8.066  -8.224  -4.491  0.00  0.00     0.009 A 
ENDBRANCH  26  27
ENDBRANCH  25  26
ENDBRANCH  22  25
ENDBRANCH   3  19
TORSDOF 7
