@<TRIPOS>MOLECULE
*****
 54 57 0 0 0
SMALL
GASTEIGER

@<TRIPOS>ATOM
      1 C           1.0529    0.0795    0.0501 C.3     1  UNL1        0.0790
      2 O           2.4696    0.1436   -0.0773 O.3     1  UNL1       -0.4914
      3 C           3.1128    0.9831    0.7897 C.ar    1  UNL1        0.1629
      4 C           2.6925    1.2745    2.0836 C.ar    1  UNL1       -0.0162
      5 C           3.5066    2.0317    2.9293 C.ar    1  UNL1       -0.0575
      6 C           4.7962    2.3881    2.5332 C.ar    1  UNL1       -0.0508
      7 C           5.1738    2.2297    1.2017 C.ar    1  UNL1        0.0222
      8 C           6.4043    2.8162    0.6712 C.ar    1  UNL1       -0.0289
      9 C           6.6926    2.7839   -0.6465 C.ar    1  UNL1        0.1508
     10 C           7.9768    3.4729   -1.0965 C.2     1  UNL1        0.2542
     11 O           8.6894    4.0271   -0.2625 O.2     1  UNL1       -0.2698
     12 N           8.3395    3.4750   -2.4299 N.am    1  UNL1       -0.3070
     13 C           9.5651    4.0847   -2.9272 C.3     1  UNL1        0.0371
     14 C           9.6032    3.8881   -4.4396 C.ar    1  UNL1       -0.0303
     15 C           9.3954    4.9741   -5.3009 C.ar    1  UNL1       -0.0571
     16 C           9.2081    4.7738   -6.6732 C.ar    1  UNL1       -0.0615
     17 C           9.3268    3.4988   -7.2200 C.ar    1  UNL1       -0.0617
     18 C           9.6380    2.4224   -6.3942 C.ar    1  UNL1       -0.0615
     19 C           9.7188    2.6036   -5.0079 C.ar    1  UNL1       -0.0571
     20 C           5.7228    2.0822   -1.5045 C.ar    1  UNL1        0.4092
     21 N           5.8357    1.9867   -2.7643 N.2     1  UNL1       -0.0949
     22 N           5.0313    1.3832   -3.7023 N.am    1  UNL1       -0.0825
     23 C           5.5244    1.4338   -4.9975 C.2     1  UNL1        0.2970
     24 O           6.6063    1.9689   -5.2460 O.2     1  UNL1       -0.2649
     25 C           4.7048    0.7859   -6.0263 C.ar    1  UNL1        0.0445
     26 C           3.3253    1.0125   -6.0146 C.ar    1  UNL1       -0.0493
     27 C           2.5075    0.3156   -6.8966 C.ar    1  UNL1       -0.0583
     28 C           3.0544   -0.6783   -7.7051 C.ar    1  UNL1       -0.0264
     29 C           4.4337   -0.8633   -7.7338 C.ar    1  UNL1        0.1241
     30 F           4.9485   -1.8294   -8.5037 F       1  UNL1       -0.2055
     31 C           5.2802   -0.0839   -6.9540 C.ar    1  UNL1       -0.0142
     32 O           4.6102    1.4480   -1.0257 O.2     1  UNL1       -0.3982
     33 C           4.3145    1.5447    0.3453 C.ar    1  UNL1        0.1831
     34 H           0.6965   -0.7342   -0.5883 H       1  UNL1        0.0660
     35 H           0.6241    1.0174   -0.3124 H       1  UNL1        0.0660
     36 H           0.7083   -0.1419    1.0637 H       1  UNL1        0.0660
     37 H           1.7582    0.9021    2.4894 H       1  UNL1        0.0655
     38 H           3.1359    2.3307    3.9083 H       1  UNL1        0.0619
     39 H           5.4750    2.8100    3.2714 H       1  UNL1        0.0625
     40 H           7.0469    3.3194    1.3952 H       1  UNL1        0.0635
     41 H           7.9117    3.1442   -3.2572 H       1  UNL1        0.1493
     42 H          10.4144    3.5997   -2.4434 H       1  UNL1        0.0512
     43 H           9.5288    5.1447   -2.6617 H       1  UNL1        0.0512
     44 H           9.3671    5.9896   -4.9129 H       1  UNL1        0.0621
     45 H           8.9803    5.6167   -7.3223 H       1  UNL1        0.0618
     46 H           9.1897    3.3487   -8.2892 H       1  UNL1        0.0618
     47 H           9.8019    1.4405   -6.8332 H       1  UNL1        0.0618
     48 H           9.8487    1.7236   -4.3813 H       1  UNL1        0.0621
     49 H           6.6461    2.4060   -3.1826 H       1  UNL1        0.4882
     50 H           4.1910    0.8984   -3.4049 H       1  UNL1        0.2260
     51 H           2.8801    1.7410   -5.3423 H       1  UNL1        0.0625
     52 H           1.4445    0.5370   -6.9454 H       1  UNL1        0.0619
     53 H           2.4141   -1.2998   -8.3250 H       1  UNL1        0.0646
     54 H           6.3556   -0.1975   -7.0610 H       1  UNL1        0.0654
@<TRIPOS>UNITY_ATOM_ATTR
21 1
charge 1
@<TRIPOS>BOND
     1     1     2    1
     2     2     3    1
     3     3     4   ar
     4     4     5   ar
     5     5     6   ar
     6     6     7   ar
     7     7     8   ar
     8     8     9   ar
     9     9    10    1
    10    10    11    2
    11    10    12   am
    12    12    13    1
    13    13    14    1
    14    14    15   ar
    15    15    16   ar
    16    16    17   ar
    17    17    18   ar
    18    18    19   ar
    19    14    19   ar
    20     9    20   ar
    21    20    21    2
    22    21    22    1
    23    22    23   am
    24    23    24    2
    25    23    25    1
    26    25    26   ar
    27    26    27   ar
    28    27    28   ar
    29    28    29   ar
    30    29    30    1
    31    29    31   ar
    32    25    31   ar
    33    20    32   ar
    34    32    33   ar
    35     3    33   ar
    36     7    33   ar
    37     1    34    1
    38     1    35    1
    39     1    36    1
    40     4    37    1
    41     5    38    1
    42     6    39    1
    43     8    40    1
    44    12    41    1
    45    13    42    1
    46    13    43    1
    47    15    44    1
    48    16    45    1
    49    17    46    1
    50    18    47    1
    51    19    48    1
    52    21    49    1
    53    22    50    1
    54    26    51    1
    55    27    52    1
    56    28    53    1
    57    31    54    1
