REMARK  10 active torsions:
REMARK  status: ('A' for Active; 'I' for Inactive)
REMARK    1  A    between atoms: C_2  and  C_3 
REMARK    2  A    between atoms: C_3  and  C_4 
REMARK    3  A    between atoms: C_4  and  O_5 
REMARK    4  A    between atoms: O_5  and  C_6 
REMARK    5  A    between atoms: C_6  and  C_8 
REMARK    6  A    between atoms: C_11  and  N_12 
REMARK       I    between atoms: N_12  and  C_13 
REMARK    7  A    between atoms: C_13  and  C_15 
REMARK    8  A    between atoms: C_15  and  C_16 
REMARK    9  A    between atoms: C_19  and  N_20 
REMARK       I    between atoms: N_20  and  C_21 
REMARK       I    between atoms: C_21  and  N_23 
REMARK   10  A    between atoms: N_23  and  C_24 
ROOT
ATOM      1  C   UNL d   1       7.530   7.684  -7.810  0.00  0.00     0.163 C 
ENDROOT
BRANCH   1   2
ATOM      2  C   UNL d   1       7.220   6.837  -6.572  0.00  0.00     0.227 C 
ATOM      3  N   UNL d   1       7.910   5.623  -6.413  0.00  0.00    -0.327 N 
ATOM      4  H   UNL d   1       8.582   5.338  -7.116  0.00  0.00     0.169 HD
ATOM      5  O   UNL d   1       6.424   7.272  -5.740  0.00  0.00    -0.273 OA
BRANCH   3   6
ATOM      6  C   UNL d   1       7.637   4.694  -5.349  0.00  0.00     0.034 A 
ATOM      7  C   UNL d   1       8.299   3.458  -5.259  0.00  0.00     0.030 A 
ATOM      8  C   UNL d   1       7.903   2.498  -4.288  0.00  0.00     0.020 A 
ATOM      9  C   UNL d   1       6.879   2.782  -3.368  0.00  0.00     0.039 A 
ATOM     10  C   UNL d   1       6.281   4.029  -3.409  0.00  0.00     0.020 A 
ATOM     11  C   UNL d   1       6.664   4.955  -4.377  0.00  0.00     0.030 A 
BRANCH   9  12
ATOM     12  C   UNL d   1       6.487   1.855  -2.277  0.00  0.00     0.293 C 
ATOM     13  O   UNL d   1       7.305   1.233  -1.604  0.00  0.00    -0.259 OA
BRANCH  12  14
ATOM     14  O   UNL d   1       5.134   1.821  -2.129  0.00  0.00    -0.318 OA
BRANCH  14  15
ATOM     15  C   UNL d   1       4.659   0.968  -1.068  0.00  0.00     0.179 C 
BRANCH  15  16
ATOM     16  C   UNL d   1       3.127   0.958  -1.048  0.00  0.00     0.026 C 
BRANCH  16  17
ATOM     17  C   UNL d   1       2.579   0.052   0.060  0.00  0.00    -0.002 C 
ATOM     18  C   UNL d   1       1.058   0.041   0.074  0.00  0.00     0.005 C 
ENDBRANCH  16  17
ENDBRANCH  15  16
ENDBRANCH  14  15
ENDBRANCH  12  14
ENDBRANCH   9  12
ENDBRANCH   3   6
ENDBRANCH   1   2
BRANCH   1  19
ATOM     19  C   UNL d   1       6.671   8.942  -7.819  0.00  0.00     0.052 A 
ATOM     20  C   UNL d   1       7.077  10.263  -7.792  0.00  0.00     0.081 A 
ATOM     21  S   UNL d   1       5.697  11.312  -7.675  0.00  0.00    -0.062 SA
ATOM     22  C   UNL d   1       4.667   9.948  -7.683  0.00  0.00     0.174 A 
ATOM     23  N   UNL d   1       5.293   8.805  -7.829  0.00  0.00    -0.228 NA
BRANCH  22  24
ATOM     24  N   UNL d   1       3.293  10.154  -7.569  0.00  0.00    -0.287 N 
ATOM     25  C   UNL d   1       2.489   9.037  -7.522  0.00  0.00     0.322 C 
ATOM     26  O   UNL d   1       2.943   7.901  -7.586  0.00  0.00    -0.247 OA
ATOM     27  N   UNL d   1       1.125   9.252  -7.389  0.00  0.00    -0.338 N 
ATOM     28  H   UNL d   1       0.758  10.191  -7.435  0.00  0.00     0.164 HD
ATOM     29  H   UNL d   1       2.942  11.094  -7.500  0.00  0.00     0.172 HD
BRANCH  27  30
ATOM     30  C   UNL d   1       0.120   8.139  -7.339  0.00  0.00     0.086 C 
ATOM     31  C   UNL d   1       0.721   6.718  -7.351  0.00  0.00     0.025 C 
ATOM     32  C   UNL d   1      -0.278   5.587  -7.188  0.00  0.00     0.002 C 
ATOM     33  C   UNL d   1      -1.103   5.779  -5.929  0.00  0.00     0.000 C 
ATOM     34  C   UNL d   1      -1.797   7.135  -5.957  0.00  0.00     0.002 C 
ATOM     35  C   UNL d   1      -0.798   8.292  -6.111  0.00  0.00     0.025 C 
ENDBRANCH  27  30
ENDBRANCH  22  24
ENDBRANCH   1  19
TORSDOF 10
