REMARK  14 active torsions:
REMARK  status: ('A' for Active; 'I' for Inactive)
REMARK    1  A    between atoms: C_2  and  C_14 
REMARK    2  A    between atoms: C_2  and  N_3 
REMARK       I    between atoms: N_3  and  C_4 
REMARK    3  A    between atoms: C_4  and  O_6 
REMARK    4  A    between atoms: O_6  and  C_7 
REMARK    5  A    between atoms: C_7  and  C_8 
REMARK       I    between atoms: C_14  and  N_16 
REMARK    6  A    between atoms: N_16  and  C_17 
REMARK    7  A    between atoms: C_17  and  C_18 
REMARK    8  A    between atoms: C_17  and  C_27 
REMARK    9  A    between atoms: C_18  and  S_19 
REMARK   10  A    between atoms: S_19  and  C_20 
REMARK   11  A    between atoms: C_20  and  C_21 
REMARK   12  A    between atoms: C_27  and  O_29 
REMARK   13  A    between atoms: O_29  and  C_30 
REMARK   14  A    between atoms: C_30  and  C_31 
ROOT
ATOM      1  C   UNL d   1       4.862  -2.394  -1.902  0.00  0.00     0.193 C 
ENDROOT
BRANCH   1   2
ATOM      2  N   UNL d   1       4.278  -1.310  -1.033  0.00  0.00    -0.345 N 
ATOM      3  C   UNL d   1       2.940  -1.280  -0.633  0.00  0.00     0.240 C 
ATOM      4  O   UNL d   1       2.148  -2.191  -0.857  0.00  0.00    -0.271 OA
ATOM      5  H   UNL d   1       4.957  -0.740  -0.537  0.00  0.00     0.163 HD
BRANCH   3   6
ATOM      6  C   UNL d   1       2.457  -0.068   0.193  0.00  0.00     0.174 C 
ATOM      7  C   UNL d   1       3.110  -0.178   1.561  0.00  0.00     0.042 C 
BRANCH   6   8
ATOM      8  N   UNL d   1       0.972  -0.022   0.281  0.00  0.00    -0.324 N 
ATOM      9  C   UNL d   1       0.255  -0.807   1.154  0.00  0.00     0.361 C 
ATOM     10  O   UNL d   1       0.744  -1.491   2.052  0.00  0.00    -0.238 OA
ATOM     11  H   UNL d   1       0.448   0.298  -0.525  0.00  0.00     0.165 HD
BRANCH   9  12
ATOM     12  O   UNL d   1      -1.090  -0.709   0.970  0.00  0.00    -0.299 OA
BRANCH  12  13
ATOM     13  C   UNL d   1      -1.813  -1.446   1.981  0.00  0.00     0.219 C 
BRANCH  13  14
ATOM     14  C   UNL d   1      -3.311  -1.299   1.842  0.00  0.00    -0.034 A 
ATOM     15  C   UNL d   1      -3.866  -0.062   1.495  0.00  0.00     0.009 A 
ATOM     16  C   UNL d   1      -5.245   0.138   1.555  0.00  0.00     0.001 A 
ATOM     17  C   UNL d   1      -6.092  -0.917   1.883  0.00  0.00     0.000 A 
ATOM     18  C   UNL d   1      -5.558  -2.163   2.206  0.00  0.00     0.001 A 
ATOM     19  C   UNL d   1      -4.172  -2.350   2.202  0.00  0.00     0.009 A 
ENDBRANCH  13  14
ENDBRANCH  12  13
ENDBRANCH   9  12
ENDBRANCH   6   8
ENDBRANCH   3   6
ENDBRANCH   1   2
BRANCH   1  20
ATOM     20  C   UNL d   1       4.406  -2.258  -3.388  0.00  0.00     0.109 C 
BRANCH  20  21
ATOM     21  S   UNL d   1       2.627  -2.620  -3.526  0.00  0.00    -0.162 SA
BRANCH  21  22
ATOM     22  C   UNL d   1       2.046  -1.987  -5.116  0.00  0.00     0.112 C 
BRANCH  22  23
ATOM     23  C   UNL d   1       0.523  -1.969  -5.067  0.00  0.00    -0.049 A 
ATOM     24  C   UNL d   1      -0.204  -0.772  -4.972  0.00  0.00     0.008 A 
ATOM     25  C   UNL d   1      -1.590  -0.797  -4.763  0.00  0.00     0.001 A 
ATOM     26  C   UNL d   1      -2.275  -2.011  -4.718  0.00  0.00     0.000 A 
ATOM     27  C   UNL d   1      -1.570  -3.206  -4.819  0.00  0.00     0.001 A 
ATOM     28  C   UNL d   1      -0.184  -3.184  -4.983  0.00  0.00     0.008 A 
ENDBRANCH  22  23
ENDBRANCH  21  22
ENDBRANCH  20  21
ENDBRANCH   1  20
BRANCH   1  29
ATOM     29  C   UNL d   1       6.422  -2.362  -1.841  0.00  0.00     0.282 C 
ATOM     30  O   UNL d   1       7.056  -1.566  -1.156  0.00  0.00    -0.263 OA
BRANCH  29  31
ATOM     31  O   UNL d   1       7.000  -3.329  -2.616  0.00  0.00    -0.315 OA
BRANCH  31  32
ATOM     32  C   UNL d   1       8.451  -3.359  -2.629  0.00  0.00     0.217 C 
BRANCH  32  33
ATOM     33  C   UNL d   1       8.937  -4.494  -3.513  0.00  0.00    -0.034 A 
ATOM     34  C   UNL d   1       8.428  -5.786  -3.319  0.00  0.00     0.009 A 
ATOM     35  C   UNL d   1       8.908  -6.867  -4.061  0.00  0.00     0.001 A 
ATOM     36  C   UNL d   1       9.856  -6.663  -5.059  0.00  0.00     0.000 A 
ATOM     37  C   UNL d   1      10.382  -5.389  -5.262  0.00  0.00     0.001 A 
ATOM     38  C   UNL d   1       9.941  -4.312  -4.480  0.00  0.00     0.009 A 
ENDBRANCH  32  33
ENDBRANCH  31  32
ENDBRANCH  29  31
ENDBRANCH   1  29
TORSDOF 14
