@<TRIPOS>MOLECULE
*****
 45 47 0 0 0
SMALL
GASTEIGER

@<TRIPOS>ATOM
      1 O           1.0873   -0.1139    0.1739 O.2     1  UNL1       -0.2737
      2 C           2.3156   -0.0401    0.0763 C.2     1  UNL1        0.2344
      3 C           3.0051    0.8796   -0.9446 C.3     1  UNL1        0.0861
      4 N           2.0772    1.6455   -1.7784 N.pl3   1  UNL1       -0.3354
      5 C           2.6137    2.5494   -2.6839 C.ar    1  UNL1        0.0275
      6 C           2.1812    3.8737   -2.7933 C.ar    1  UNL1       -0.0401
      7 C           2.7389    4.7338   -3.7656 C.ar    1  UNL1       -0.0479
      8 C           3.8030    4.3103   -4.5833 C.ar    1  UNL1        0.0368
      9 C           4.4652    5.2730   -5.5222 C.2     1  UNL1        0.2444
     10 O           4.0504    6.4338   -5.5988 O.2     1  UNL1       -0.2702
     11 N           5.5553    4.8367   -6.2559 N.am    1  UNL1       -0.3042
     12 C           6.2447    5.7356   -7.1510 C.3     1  UNL1        0.0700
     13 C           7.4009    5.1026   -7.8510 C.ar    1  UNL1        0.1218
     14 C           8.4934    5.6728   -8.4762 C.ar    1  UNL1       -0.0192
     15 C           9.2458    4.6165   -9.0359 C.ar    1  UNL1       -0.0236
     16 C           8.5744    3.4607   -8.7131 C.ar    1  UNL1        0.0921
     17 O           7.4530    3.7407   -7.9888 O.2     1  UNL1       -0.4662
     18 C           4.2496    2.9990   -4.4489 C.ar    1  UNL1       -0.0479
     19 C           3.6730    2.1505   -3.5044 C.ar    1  UNL1       -0.0401
     20 N           3.1028   -0.9050    0.8181 N.am    1  UNL1       -0.2819
     21 C           4.5084   -0.9104    0.9430 C.ar    1  UNL1        0.0690
     22 C           5.1886   -2.1279    1.0426 C.ar    1  UNL1       -0.0377
     23 C           6.5836   -2.1396    1.1998 C.ar    1  UNL1       -0.0598
     24 C           7.3102   -0.9468    1.1914 C.ar    1  UNL1       -0.0589
     25 C           6.6385    0.2640    1.1135 C.ar    1  UNL1       -0.0246
     26 C           5.2535    0.2692    1.0490 C.ar    1  UNL1        0.1445
     27 F           4.6446    1.4486    1.2224 F       1  UNL1       -0.2035
     28 H           3.6373    0.2352   -1.5653 H       1  UNL1        0.0557
     29 H           3.6160    1.6154   -0.4380 H       1  UNL1        0.0557
     30 H           1.1142    1.7059   -1.4648 H       1  UNL1        0.1466
     31 H           1.4279    4.2681   -2.1132 H       1  UNL1        0.0636
     32 H           2.3368    5.7411   -3.8758 H       1  UNL1        0.0626
     33 H           5.9103    3.8943   -6.2053 H       1  UNL1        0.1495
     34 H           6.6032    6.5869   -6.5615 H       1  UNL1        0.0543
     35 H           5.5268    6.1100   -7.8876 H       1  UNL1        0.0543
     36 H           8.7013    6.7321   -8.5325 H       1  UNL1        0.0652
     37 H          10.1588    4.6915   -9.6114 H       1  UNL1        0.0649
     38 H           8.7581    2.4155   -8.9243 H       1  UNL1        0.1029
     39 H           5.0351    2.5832   -5.0643 H       1  UNL1        0.0626
     40 H           4.0469    1.1336   -3.4473 H       1  UNL1        0.0636
     41 H           2.5787   -1.6233    1.3060 H       1  UNL1        0.1549
     42 H           4.6640   -3.0779    0.9633 H       1  UNL1        0.0637
     43 H           7.1122   -3.0817    1.3317 H       1  UNL1        0.0618
     44 H           8.3934   -0.9550    1.2783 H       1  UNL1        0.0618
     45 H           7.1648    1.2119    1.1535 H       1  UNL1        0.0647
@<TRIPOS>BOND
     1     1     2    2
     2     2     3    1
     3     3     4    1
     4     4     5    1
     5     5     6   ar
     6     6     7   ar
     7     7     8   ar
     8     8     9    1
     9     9    10    2
    10     9    11   am
    11    11    12    1
    12    12    13    1
    13    13    14   ar
    14    14    15   ar
    15    15    16   ar
    16    16    17   ar
    17    13    17   ar
    18     8    18   ar
    19    18    19   ar
    20     5    19   ar
    21     2    20   am
    22    20    21    1
    23    21    22   ar
    24    22    23   ar
    25    23    24   ar
    26    24    25   ar
    27    25    26   ar
    28    21    26   ar
    29    26    27    1
    30     3    28    1
    31     3    29    1
    32     4    30    1
    33     6    31    1
    34     7    32    1
    35    11    33    1
    36    12    34    1
    37    12    35    1
    38    14    36    1
    39    15    37    1
    40    16    38    1
    41    18    39    1
    42    19    40    1
    43    20    41    1
    44    22    42    1
    45    23    43    1
    46    24    44    1
    47    25    45    1
