@<TRIPOS>MOLECULE
*****
 53 55 0 0 0
SMALL
GASTEIGER

@<TRIPOS>ATOM
      1 C           1.0728    0.0133    0.0578 C.3     1  UNL1        0.0788
      2 O           2.4931   -0.1015    0.0880 O.3     1  UNL1       -0.4951
      3 C           3.1231    0.0669   -1.1141 C.ar    1  UNL1        0.1201
      4 C           4.2822   -0.6821   -1.3234 C.ar    1  UNL1       -0.0197
      5 C           5.0567   -0.4960   -2.4799 C.ar    1  UNL1       -0.0551
      6 C           4.6428    0.3945   -3.4831 C.ar    1  UNL1       -0.0457
      7 C           5.4093    0.4773   -4.7995 C.3     1  UNL1       -0.0120
      8 C           4.7949    1.4436   -5.8315 C.3     1  UNL1        0.0170
      9 N           5.4644    1.5543   -7.1273 N.am    1  UNL1       -0.2988
     10 C           4.9438    2.4403   -8.0639 C.2     1  UNL1        0.3039
     11 O           3.9468    3.1116   -7.8118 O.2     1  UNL1       -0.2525
     12 N           5.6118    2.4631   -9.2820 N.am    1  UNL1       -0.2695
     13 C           5.1585    3.2612  -10.3862 C.ar    1  UNL1        0.0349
     14 C           5.0844    2.7356  -11.6846 C.ar    1  UNL1       -0.0384
     15 C           4.6104    3.5194  -12.7781 C.ar    1  UNL1       -0.0327
     16 C           4.2412    4.8623  -12.5946 C.ar    1  UNL1        0.0880
     17 N           3.7705    5.6796  -13.6747 N.ar    1  UNL1       -0.1296
     18 N           2.8902    5.2647  -14.6229 N.ar    1  UNL1       -0.0405
     19 N           2.7526    6.2879  -15.4669 N.ar    1  UNL1       -0.1026
     20 C           3.6224    7.2689  -15.0514 C.ar    1  UNL1        0.2590
     21 C           3.9220    8.5146  -15.8092 C.2     1  UNL1        0.2851
     22 O           3.3358    8.8614  -16.8398 O.2     1  UNL1       -0.2667
     23 N           4.9519    9.2687  -15.2750 N.am    1  UNL1       -0.3001
     24 C           5.4290   10.5409  -15.8408 C.3     1  UNL1        0.1072
     25 C           6.5754   11.1894  -15.0587 C.3     1  UNL1        0.4050
     26 F           6.2062   11.4467  -13.7830 F       1  UNL1       -0.1690
     27 F           7.6526   10.3723  -15.0116 F       1  UNL1       -0.1690
     28 F           6.9677   12.3548  -15.6163 F       1  UNL1       -0.1690
     29 N           4.2281    6.9531  -13.8793 N.ar    1  UNL1       -0.1206
     30 C           4.3828    5.4067  -11.3112 C.ar    1  UNL1       -0.0327
     31 C           4.8058    4.6056  -10.2216 C.ar    1  UNL1       -0.0384
     32 C           3.4871    1.1521   -3.2410 C.ar    1  UNL1       -0.0551
     33 C           2.7383    0.9953   -2.0724 C.ar    1  UNL1       -0.0197
     34 H           0.7123   -0.0346    1.0900 H       1  UNL1        0.0660
     35 H           0.6454   -0.8291   -0.4942 H       1  UNL1        0.0660
     36 H           0.7176    0.9632   -0.3527 H       1  UNL1        0.0660
     37 H           4.5788   -1.4258   -0.5870 H       1  UNL1        0.0654
     38 H           5.9828   -1.0577   -2.5851 H       1  UNL1        0.0621
     39 H           5.4304   -0.5314   -5.2328 H       1  UNL1        0.0328
     40 H           6.4469    0.7658   -4.5933 H       1  UNL1        0.0328
     41 H           4.7636    2.4534   -5.4035 H       1  UNL1        0.0466
     42 H           3.7581    1.1420   -6.0347 H       1  UNL1        0.0466
     43 H           6.2781    0.9900   -7.3159 H       1  UNL1        0.1502
     44 H           6.2245    1.6869   -9.4823 H       1  UNL1        0.1564
     45 H           5.3328    1.6911  -11.8628 H       1  UNL1        0.0637
     46 H           4.6081    3.0777  -13.7743 H       1  UNL1        0.0640
     47 H           5.3888    8.8989  -14.4333 H       1  UNL1        0.1494
     48 H           4.5794   11.2321  -15.8826 H       1  UNL1        0.0551
     49 H           5.7488   10.3590  -16.8735 H       1  UNL1        0.0551
     50 H           4.1272    6.4465  -11.1181 H       1  UNL1        0.0640
     51 H           4.8839    5.0613   -9.2362 H       1  UNL1        0.0637
     52 H           3.1325    1.8948   -3.9503 H       1  UNL1        0.0621
     53 H           1.8713    1.6324   -1.9418 H       1  UNL1        0.0654
@<TRIPOS>BOND
     1     1     2    1
     2     2     3    1
     3     3     4   ar
     4     4     5   ar
     5     5     6   ar
     6     6     7    1
     7     7     8    1
     8     8     9    1
     9     9    10   am
    10    10    11    2
    11    10    12   am
    12    12    13    1
    13    13    14   ar
    14    14    15   ar
    15    15    16   ar
    16    16    17    1
    17    17    18   ar
    18    18    19   ar
    19    19    20   ar
    20    20    21    1
    21    21    22    2
    22    21    23   am
    23    23    24    1
    24    24    25    1
    25    25    26    1
    26    25    27    1
    27    25    28    1
    28    20    29   ar
    29    17    29   ar
    30    16    30   ar
    31    30    31   ar
    32    13    31   ar
    33     6    32   ar
    34    32    33   ar
    35     3    33   ar
    36     1    34    1
    37     1    35    1
    38     1    36    1
    39     4    37    1
    40     5    38    1
    41     7    39    1
    42     7    40    1
    43     8    41    1
    44     8    42    1
    45     9    43    1
    46    12    44    1
    47    14    45    1
    48    15    46    1
    49    23    47    1
    50    24    48    1
    51    24    49    1
    52    30    50    1
    53    31    51    1
    54    32    52    1
    55    33    53    1
