REMARK  4 active torsions:
REMARK  status: ('A' for Active; 'I' for Inactive)
REMARK       I    between atoms: C_2  and  N_3 
REMARK    1  A    between atoms: C_2  and  C_19 
REMARK    2  A    between atoms: N_3  and  N_4 
REMARK    3  A    between atoms: C_5  and  C_6 
REMARK    4  A    between atoms: C_23  and  O_24 
ROOT
ATOM      1  C   UNL d   1       2.264  -4.849  -0.220  0.00  0.00     0.011 A 
ATOM      2  C   UNL d   1       1.171  -5.150  -1.012  0.00  0.00     0.102 A 
ATOM      3  N   UNL d   1       0.811  -6.456  -0.799  0.00  0.00    -0.364 N 
ATOM      4  C   UNL d   1       1.635  -7.043   0.138  0.00  0.00     0.054 A 
ATOM      5  C   UNL d   1       2.558  -6.058   0.515  0.00  0.00     0.004 A 
ATOM      6  C   UNL d   1       3.517  -6.397   1.493  0.00  0.00     0.015 A 
ATOM      7  C   UNL d   1       3.518  -7.678   2.068  0.00  0.00     0.013 A 
ATOM      8  C   UNL d   1       2.605  -8.661   1.671  0.00  0.00    -0.024 A 
ATOM      9  C   UNL d   1       2.635  -9.951   2.230  0.00  0.00     0.012 A 
ATOM     10  C   UNL d   1       1.754 -10.945   1.795  0.00  0.00     0.001 A 
ATOM     11  C   UNL d   1       0.813 -10.659   0.810  0.00  0.00     0.001 A 
ATOM     12  C   UNL d   1       0.740  -9.374   0.262  0.00  0.00     0.014 A 
ATOM     13  C   UNL d   1       1.640  -8.366   0.680  0.00  0.00     0.002 A 
ATOM     14  H   UNL d   1       0.042  -6.928  -1.254  0.00  0.00     0.165 HD
ENDROOT
BRANCH   1  15
ATOM     15  C   UNL d   1       2.966  -3.563  -0.173  0.00  0.00     0.152 C 
ATOM     16  N   UNL d   1       2.305  -2.446  -0.228  0.00  0.00    -0.183 NA
BRANCH  16  17
ATOM     17  N   UNL d   1       3.017  -1.252  -0.161  0.00  0.00    -0.243 N 
ATOM     18  C   UNL d   1       2.319  -0.042  -0.070  0.00  0.00     0.271 C 
ATOM     19  O   UNL d   1       1.091   0.058  -0.007  0.00  0.00    -0.266 OA
ATOM     20  H   UNL d   1       4.030  -1.274  -0.108  0.00  0.00     0.192 HD
BRANCH  18  21
ATOM     21  C   UNL d   1       3.118   1.224  -0.015  0.00  0.00     0.036 A 
ATOM     22  C   UNL d   1       2.709   2.262   0.843  0.00  0.00     0.017 A 
ATOM     23  C   UNL d   1       3.396   3.486   0.872  0.00  0.00     0.004 A 
ATOM     24  C   UNL d   1       4.491   3.692   0.032  0.00  0.00     0.036 A 
ATOM     25  C   UNL d   1       4.882   2.669  -0.829  0.00  0.00     0.066 A 
ATOM     26  C   UNL d   1       4.205   1.446  -0.866  0.00  0.00     0.053 A 
BRANCH  25  27
ATOM     27  O   UNL d   1       5.942   2.821  -1.677  0.00  0.00    -0.361 OA
ATOM     28  H   UNL d   1       6.337   3.700  -1.547  0.00  0.00     0.217 HD
ENDBRANCH  25  27
ENDBRANCH  18  21
ENDBRANCH  16  17
ENDBRANCH   1  15
TORSDOF 4
