REMARK  11 active torsions:
REMARK  status: ('A' for Active; 'I' for Inactive)
REMARK    1  A    between atoms: C_2  and  C_3 
REMARK    2  A    between atoms: C_3  and  N_4 
REMARK    3  A    between atoms: N_4  and  C_5 
REMARK       I    between atoms: N_4  and  C_8 
REMARK    4  A    between atoms: C_5  and  C_6 
REMARK    5  A    between atoms: C_8  and  C_10 
REMARK    6  A    between atoms: C_13  and  N_14 
REMARK    7  A    between atoms: N_14  and  C_15 
REMARK    8  A    between atoms: C_15  and  C_16 
REMARK       I    between atoms: C_16  and  N_18 
REMARK    9  A    between atoms: N_18  and  C_19 
REMARK   10  A    between atoms: C_24  and  C_25 
REMARK       I    between atoms: C_25  and  N_27 
REMARK   11  A    between atoms: N_27  and  C_28 
ROOT
ATOM      1  C   UNL d   1      13.248  -1.712  -1.486  0.00  0.00     0.239 C 
ATOM      2  O   UNL d   1      13.619  -1.447  -2.632  0.00  0.00    -0.271 OA
ATOM      3  N   UNL d   1      14.121  -1.964  -0.426  0.00  0.00    -0.326 N 
ATOM      4  H   UNL d   1      13.767  -2.352   0.441  0.00  0.00     0.169 HD
ENDROOT
BRANCH   1   5
ATOM      5  C   UNL d   1      11.751  -1.803  -1.155  0.00  0.00     0.223 C 
BRANCH   5   6
ATOM      6  N   UNL d   1      10.952  -1.664  -2.382  0.00  0.00    -0.381 N 
ATOM      7  H   UNL d   1      11.475  -1.369  -3.207  0.00  0.00     0.160 HD
BRANCH   6   8
ATOM      8  C   UNL d   1       9.577  -1.543  -2.381  0.00  0.00     0.028 A 
ATOM      9  C   UNL d   1       8.862  -1.263  -3.558  0.00  0.00     0.030 A 
ATOM     10  C   UNL d   1       7.458  -1.096  -3.549  0.00  0.00     0.019 A 
ATOM     11  C   UNL d   1       6.732  -1.320  -2.374  0.00  0.00     0.032 A 
ATOM     12  C   UNL d   1       7.438  -1.737  -1.248  0.00  0.00     0.019 A 
ATOM     13  C   UNL d   1       8.829  -1.789  -1.235  0.00  0.00     0.030 A 
BRANCH  11  14
ATOM     14  C   UNL d   1       5.231  -1.260  -2.359  0.00  0.00     0.253 C 
ATOM     15  N   UNL d   1       4.536  -0.660  -1.267  0.00  0.00    -0.348 N 
ATOM     16  O   UNL d   1       4.644  -1.761  -3.318  0.00  0.00    -0.267 OA
BRANCH  15  17
ATOM     17  C   UNL d   1       3.037  -0.710  -1.370  0.00  0.00     0.125 C 
BRANCH  17  18
ATOM     18  C   UNL d   1       2.237  -0.052  -0.258  0.00  0.00     0.015 C 
ATOM     19  C   UNL d   1       0.742  -0.034  -0.231  0.00  0.00     0.006 C 
ENDBRANCH  17  18
ENDBRANCH  15  17
BRANCH  15  20
ATOM     20  C   UNL d   1       5.284   0.054  -0.192  0.00  0.00     0.125 C 
BRANCH  20  21
ATOM     21  C   UNL d   1       4.535   0.725   0.934  0.00  0.00     0.015 C 
ATOM     22  C   UNL d   1       5.295   1.355   2.056  0.00  0.00     0.006 C 
ENDBRANCH  20  21
ENDBRANCH  15  20
ENDBRANCH  11  14
ENDBRANCH   6   8
ENDBRANCH   5   6
ENDBRANCH   1   5
BRANCH   3  23
ATOM     23  C   UNL d   1      15.525  -1.872  -0.570  0.00  0.00     0.035 A 
ATOM     24  C   UNL d   1      16.372  -2.756   0.095  0.00  0.00     0.031 A 
ATOM     25  C   UNL d   1      17.758  -2.619  -0.027  0.00  0.00     0.027 A 
ATOM     26  C   UNL d   1      18.309  -1.623  -0.838  0.00  0.00     0.049 A 
ATOM     27 CL   UNL d   1      20.040  -1.685  -0.972  0.00  0.00    -0.083 Cl
ATOM     28  C   UNL d   1      17.462  -0.703  -1.486  0.00  0.00     0.055 A 
ATOM     29  C   UNL d   1      16.077  -0.851  -1.345  0.00  0.00     0.048 A 
BRANCH  28  30
ATOM     30  C   UNL d   1      18.019   0.444  -2.250  0.00  0.00     0.253 C 
ATOM     31  O   UNL d   1      19.227   0.526  -2.335  0.00  0.00    -0.268 OA
ATOM     32  N   UNL d   1      17.159   1.399  -2.791  0.00  0.00    -0.352 N 
ATOM     33  H   UNL d   1      16.161   1.260  -2.790  0.00  0.00     0.163 HD
BRANCH  32  34
ATOM     34  C   UNL d   1      17.623   2.567  -3.554  0.00  0.00     0.084 C 
ATOM     35  C   UNL d   1      16.841   3.812  -3.104  0.00  0.00     0.025 C 
ATOM     36  C   UNL d   1      17.341   5.088  -3.784  0.00  0.00     0.002 C 
ATOM     37  C   UNL d   1      18.843   5.280  -3.601  0.00  0.00     0.000 C 
ATOM     38  C   UNL d   1      19.602   4.077  -4.125  0.00  0.00     0.002 C 
ATOM     39  C   UNL d   1      19.130   2.819  -3.440  0.00  0.00     0.025 C 
ENDBRANCH  32  34
ENDBRANCH  28  30
ENDBRANCH   3  23
TORSDOF 11
