@<TRIPOS>MOLECULE
*****
 47 49 0 0 0
SMALL
GASTEIGER

@<TRIPOS>ATOM
      1 C           1.2026    0.0152   -0.0477 C.3     1  UNL1        0.0833
      2 O           2.6459    0.0081   -0.0418 O.3     1  UNL1       -0.4535
      3 C           3.1810   -0.0014    1.2157 C.2     1  UNL1        0.4044
      4 O           2.4796    0.0284    2.2260 O.2     1  UNL1       -0.2261
      5 N           4.5705    0.0434    1.1987 N.am    1  UNL1       -0.2484
      6 C           5.3437   -0.0137    2.3975 C.ar    1  UNL1        0.0734
      7 C           6.4977    0.7966    2.6128 C.ar    1  UNL1       -0.0163
      8 C           7.1837    0.7677    3.8627 C.ar    1  UNL1        0.0357
      9 N           8.3043    1.6215    4.1545 N.am    1  UNL1       -0.2777
     10 C           9.0157    1.6390    5.3715 C.2     1  UNL1        0.3031
     11 O           8.8188    0.9519    6.3706 O.2     1  UNL1       -0.2648
     12 C          10.2046    2.6263    5.4868 C.2     1  UNL1        0.2996
     13 O          10.4926    3.3666    4.5587 O.2     1  UNL1       -0.2652
     14 N          10.8644    2.5601    6.7096 N.am    1  UNL1       -0.3034
     15 C          11.9917    3.4104    7.0435 C.3     1  UNL1        0.0379
     16 C          12.5270    3.2260    8.4567 C.ar    1  UNL1       -0.0226
     17 C          12.6761    1.9219    8.9681 C.ar    1  UNL1       -0.0565
     18 C          13.1198    1.7029   10.2707 C.ar    1  UNL1       -0.0609
     19 C          13.4631    2.7818   11.0792 C.ar    1  UNL1       -0.0540
     20 C          13.4110    4.0917   10.5840 C.ar    1  UNL1       -0.0176
     21 C          13.8225    5.1636   11.3976 C.ar    1  UNL1       -0.0540
     22 C          13.7912    6.4753   10.9289 C.ar    1  UNL1       -0.0612
     23 C          13.3519    6.7307    9.6392 C.ar    1  UNL1       -0.0612
     24 C          12.9395    5.6766    8.8206 C.ar    1  UNL1       -0.0537
     25 C          12.9476    4.3320    9.2604 C.ar    1  UNL1       -0.0132
     26 C           6.7158   -0.1267    4.8330 C.ar    1  UNL1       -0.0376
     27 C           5.6312   -0.9654    4.6069 C.ar    1  UNL1       -0.0229
     28 C           4.9565   -0.9069    3.4054 C.ar    1  UNL1        0.1447
     29 F           3.9755   -1.7994    3.2043 F       1  UNL1       -0.2035
     30 H           0.8469    0.0397   -1.0831 H       1  UNL1        0.0661
     31 H           0.8111    0.9052    0.4602 H       1  UNL1        0.0661
     32 H           0.8027   -0.8909    0.4234 H       1  UNL1        0.0661
     33 H           5.0133    0.2420    0.3126 H       1  UNL1        0.1583
     34 H           6.8129    1.4865    1.8332 H       1  UNL1        0.0656
     35 H           8.6184    2.2782    3.4440 H       1  UNL1        0.1553
     36 H          10.4675    1.9435    7.4156 H       1  UNL1        0.1495
     37 H          11.6344    4.4289    6.8819 H       1  UNL1        0.0512
     38 H          12.7954    3.2191    6.3243 H       1  UNL1        0.0512
     39 H          12.4383    1.0582    8.3507 H       1  UNL1        0.0621
     40 H          13.1958    0.6896   10.6581 H       1  UNL1        0.0618
     41 H          13.7857    2.5886   12.1010 H       1  UNL1        0.0624
     42 H          14.1816    4.9834   12.4094 H       1  UNL1        0.0624
     43 H          14.1118    7.2941   11.5672 H       1  UNL1        0.0618
     44 H          13.3272    7.7487    9.2592 H       1  UNL1        0.0618
     45 H          12.6168    5.9404    7.8183 H       1  UNL1        0.0624
     46 H           7.1704   -0.2201    5.8098 H       1  UNL1        0.0637
     47 H           5.3151   -1.6667    5.3709 H       1  UNL1        0.0647
@<TRIPOS>BOND
     1     1     2    1
     2     2     3    1
     3     3     4    2
     4     3     5   am
     5     5     6    1
     6     6     7   ar
     7     7     8   ar
     8     8     9    1
     9     9    10   am
    10    10    11    2
    11    10    12    1
    12    12    13    2
    13    12    14   am
    14    14    15    1
    15    15    16    1
    16    16    17   ar
    17    17    18   ar
    18    18    19   ar
    19    19    20   ar
    20    20    21   ar
    21    21    22   ar
    22    22    23   ar
    23    23    24   ar
    24    24    25   ar
    25    16    25   ar
    26    20    25   ar
    27     8    26   ar
    28    26    27   ar
    29    27    28   ar
    30     6    28   ar
    31    28    29    1
    32     1    30    1
    33     1    31    1
    34     1    32    1
    35     5    33    1
    36     7    34    1
    37     9    35    1
    38    14    36    1
    39    15    37    1
    40    15    38    1
    41    17    39    1
    42    18    40    1
    43    19    41    1
    44    21    42    1
    45    22    43    1
    46    23    44    1
    47    24    45    1
    48    26    46    1
    49    27    47    1
