@<TRIPOS>MOLECULE
*****
 44 46 0 0 0
SMALL
GASTEIGER

@<TRIPOS>ATOM
      1 C           1.0505   -0.0769    0.0414 C.3     1  UNL1       -0.0652
      2 C           2.5716   -0.0575    0.0333 C.3     1  UNL1       -0.0528
      3 C           3.1061    1.2562   -0.5427 C.3     1  UNL1       -0.0188
      4 C           4.6315    1.2984   -0.5490 C.3     1  UNL1        0.0928
      5 O           5.0852    2.5706   -1.0614 O.3     1  UNL1       -0.4612
      6 C           6.4408    2.6489   -1.1221 C.2     1  UNL1        0.3392
      7 O           7.2190    1.7696   -0.7902 O.2     1  UNL1       -0.2450
      8 C           6.9299    3.9124   -1.7292 C.ar    1  UNL1        0.0602
      9 C           6.4177    5.1853   -1.4093 C.ar    1  UNL1       -0.0458
     10 C           7.0425    6.3409   -1.9177 C.ar    1  UNL1       -0.0365
     11 C           8.1542    6.1972   -2.7463 C.ar    1  UNL1        0.0550
     12 N           8.9036    7.2168   -3.3197 N.ar    1  UNL1       -0.3354
     13 C           9.9718    6.8564   -4.1163 C.ar    1  UNL1        0.1629
     14 N          10.8303    7.5671   -4.7884 N.am    1  UNL1       -0.1686
     15 C          10.7596    8.9576   -4.7784 C.2     1  UNL1        0.1629
     16 S           9.5998    9.8933   -3.9484 S.2     1  UNL1       -0.0164
     17 N          11.7568    9.5680   -5.5554 N.am    1  UNL1       -0.2596
     18 C          11.9669   10.9487   -5.6922 C.2     1  UNL1        0.2848
     19 O          11.2966   11.8059   -5.1097 O.2     1  UNL1       -0.2664
     20 C          13.0243   11.3954   -6.5604 C.ar    1  UNL1        0.1894
     21 C          13.3920   11.0707   -7.8501 C.ar    1  UNL1       -0.0113
     22 C          14.4078   11.9900   -8.2230 C.ar    1  UNL1       -0.0231
     23 C          14.5951   12.8230   -7.1465 C.ar    1  UNL1        0.0928
     24 O          13.7570   12.4778   -6.1413 O.2     1  UNL1       -0.4583
     25 S          10.0715    5.0636   -4.1441 S.2     1  UNL1       -0.0523
     26 C           8.6384    4.9304   -3.0745 C.ar    1  UNL1        0.0395
     27 C           8.0456    3.7893   -2.5743 C.ar    1  UNL1       -0.0319
     28 H           0.6805   -1.0193    0.4578 H       1  UNL1        0.0230
     29 H           0.6535    0.0249   -0.9737 H       1  UNL1        0.0230
     30 H           0.6533    0.7420    0.6496 H       1  UNL1        0.0230
     31 H           2.9382   -0.9062   -0.5565 H       1  UNL1        0.0264
     32 H           2.9367   -0.1953    1.0581 H       1  UNL1        0.0264
     33 H           2.7240    2.1031    0.0391 H       1  UNL1        0.0298
     34 H           2.7334    1.3953   -1.5648 H       1  UNL1        0.0298
     35 H           5.0160    0.4837   -1.1774 H       1  UNL1        0.0697
     36 H           5.0067    1.1702    0.4736 H       1  UNL1        0.0697
     37 H           5.5645    5.2884   -0.7402 H       1  UNL1        0.0626
     38 H           6.6665    7.3268   -1.6470 H       1  UNL1        0.0639
     39 H           8.6795    8.1922   -3.1781 H       1  UNL1        0.1677
     40 H          12.4069    8.9391   -6.0129 H       1  UNL1        0.1570
     41 H          12.9274   10.3188   -8.4696 H       1  UNL1        0.0657
     42 H          14.9216   12.0604   -9.1704 H       1  UNL1        0.0649
     43 H          15.2355   13.6736   -6.9509 H       1  UNL1        0.1029
     44 H           8.4546    2.8147   -2.8162 H       1  UNL1        0.0637
@<TRIPOS>BOND
     1     1     2    1
     2     2     3    1
     3     3     4    1
     4     4     5    1
     5     5     6    1
     6     6     7    2
     7     6     8    1
     8     8     9   ar
     9     9    10   ar
    10    10    11   ar
    11    11    12   ar
    12    12    13   ar
    13    13    14    2
    14    14    15    1
    15    15    16    2
    16    15    17    1
    17    17    18   am
    18    18    19    2
    19    18    20    1
    20    20    21   ar
    21    21    22   ar
    22    22    23   ar
    23    23    24   ar
    24    20    24   ar
    25    13    25   ar
    26    25    26   ar
    27    11    26   ar
    28    26    27   ar
    29     8    27   ar
    30     1    28    1
    31     1    29    1
    32     1    30    1
    33     2    31    1
    34     2    32    1
    35     3    33    1
    36     3    34    1
    37     4    35    1
    38     4    36    1
    39     9    37    1
    40    10    38    1
    41    12    39    1
    42    17    40    1
    43    21    41    1
    44    22    42    1
    45    23    43    1
    46    27    44    1
