REMARK  7 active torsions:
REMARK  status: ('A' for Active; 'I' for Inactive)
REMARK    1  A    between atoms: S_2  and  C_3 
REMARK    2  A    between atoms: C_8  and  N_9 
REMARK    3  A    between atoms: N_9  and  C_10 
REMARK    4  A    between atoms: C_10  and  C_11 
REMARK       I    between atoms: C_11  and  N_13 
REMARK    5  A    between atoms: N_13  and  C_14 
REMARK    6  A    between atoms: C_19  and  C_20 
REMARK       I    between atoms: C_20  and  N_22 
REMARK    7  A    between atoms: N_22  and  C_23 
ROOT
ATOM      1  C   UNL d   1       4.474   5.159   2.126  0.00  0.00     0.050 A 
ATOM      2  C   UNL d   1       3.798   6.316   1.685  0.00  0.00     0.030 A 
ATOM      3  C   UNL d   1       4.247   7.591   2.044  0.00  0.00     0.002 A 
ATOM      4  C   UNL d   1       5.352   7.724   2.875  0.00  0.00     0.001 A 
ATOM      5  C   UNL d   1       6.022   6.585   3.322  0.00  0.00     0.019 A 
ATOM      6  C   UNL d   1       5.608   5.288   2.962  0.00  0.00     0.059 A 
ENDROOT
BRANCH   1   7
ATOM      7  N   UNL d   1       4.013   3.914   1.635  0.00  0.00    -0.325 N 
ATOM      8  C   UNL d   1       3.705   2.857   2.496  0.00  0.00     0.239 C 
ATOM      9  O   UNL d   1       3.615   2.971   3.715  0.00  0.00    -0.271 OA
ATOM     10  H   UNL d   1       3.658   3.889   0.682  0.00  0.00     0.169 HD
BRANCH   8  11
ATOM     11  C   UNL d   1       3.625   1.514   1.777  0.00  0.00     0.223 C 
BRANCH  11  12
ATOM     12  N   UNL d   1       3.674   0.379   2.696  0.00  0.00    -0.380 N 
ATOM     13  H   UNL d   1       4.243   0.552   3.530  0.00  0.00     0.160 HD
BRANCH  12  14
ATOM     14  C   UNL d   1       3.675  -0.947   2.245  0.00  0.00     0.045 A 
ATOM     15  C   UNL d   1       3.911  -1.954   3.216  0.00  0.00     0.030 A 
ATOM     16  C   UNL d   1       3.787  -3.316   2.918  0.00  0.00     0.002 A 
ATOM     17  C   UNL d   1       3.438  -3.708   1.635  0.00  0.00     0.002 A 
ATOM     18  C   UNL d   1       3.275  -2.749   0.644  0.00  0.00     0.021 A 
ATOM     19  C   UNL d   1       3.324  -1.379   0.941  0.00  0.00     0.026 A 
BRANCH  19  20
ATOM     20  S   UNL d   1       2.862  -0.347  -0.464  0.00  0.00    -0.132 SA
ATOM     21  C   UNL d   1       1.085  -0.163  -0.104  0.00  0.00     0.095 C 
ENDBRANCH  19  20
ENDBRANCH  12  14
ENDBRANCH  11  12
ENDBRANCH   8  11
ENDBRANCH   1   7
BRANCH   6  22
ATOM     22  C   UNL d   1       6.478   4.174   3.491  0.00  0.00     0.258 C 
ATOM     23  O   UNL d   1       7.296   4.431   4.388  0.00  0.00    -0.267 OA
ATOM     24  N   UNL d   1       6.388   2.939   2.895  0.00  0.00    -0.323 N 
ATOM     25  H   UNL d   1       5.923   2.904   2.002  0.00  0.00     0.169 HD
BRANCH  24  26
ATOM     26  C   UNL d   1       6.743   1.697   3.460  0.00  0.00     0.035 A 
ATOM     27  C   UNL d   1       6.767   0.576   2.624  0.00  0.00     0.029 A 
ATOM     28  C   UNL d   1       7.043  -0.692   3.137  0.00  0.00     0.002 A 
ATOM     29  C   UNL d   1       7.360  -0.836   4.483  0.00  0.00     0.000 A 
ATOM     30  C   UNL d   1       7.289   0.266   5.333  0.00  0.00     0.002 A 
ATOM     31  C   UNL d   1       6.952   1.525   4.828  0.00  0.00     0.029 A 
ENDBRANCH  24  26
ENDBRANCH   6  22
TORSDOF 7
