@<TRIPOS>MOLECULE
*****
 54 55 0 0 0
SMALL
GASTEIGER

@<TRIPOS>ATOM
      1 C           1.0699    0.0492    0.0970 C.3     1  UNL1       -0.0622
      2 C           2.5925    0.0137    0.1194 C.3     1  UNL1       -0.0215
      3 C           3.1056   -0.5985   -1.1757 C.3     1  UNL1        0.0894
      4 O           4.5276   -0.5685   -1.2259 O.3     1  UNL1       -0.4909
      5 C           5.0997   -0.9453   -2.4163 C.ar    1  UNL1        0.1344
      6 C           6.2778   -1.6943   -2.2661 C.ar    1  UNL1       -0.0181
      7 C           7.0673   -2.0006   -3.3825 C.ar    1  UNL1       -0.0461
      8 C           6.6977   -1.5714   -4.6753 C.ar    1  UNL1        0.0383
      9 C           7.6464   -1.7871   -5.8075 C.2     1  UNL1        0.2496
     10 O           8.6978   -2.3334   -5.4772 O.2     1  UNL1       -0.2698
     11 N           7.2713   -1.5213   -7.1521 N.am    1  UNL1       -0.2636
     12 C           8.0846   -1.7418   -8.2935 C.2     1  UNL1        0.1411
     13 S           9.7252   -2.1212   -8.2290 S.2     1  UNL1       -0.0182
     14 N           7.3423   -1.7100   -9.5115 N.am    1  UNL1       -0.2960
     15 C           7.9009   -2.1860  -10.7585 C.ar    1  UNL1        0.0448
     16 C           8.1076   -1.2630  -11.8085 C.ar    1  UNL1       -0.0398
     17 C           8.7211   -1.6569  -13.0111 C.ar    1  UNL1       -0.0600
     18 C           9.1716   -2.9630  -13.1669 C.ar    1  UNL1       -0.0609
     19 C           8.9422   -3.8942  -12.1513 C.ar    1  UNL1       -0.0478
     20 C           8.2823   -3.5370  -10.9535 C.ar    1  UNL1        0.0578
     21 C           8.0392   -4.6507   -9.9649 C.2     1  UNL1        0.2459
     22 O           8.6131   -5.7378  -10.1042 O.2     1  UNL1       -0.2701
     23 N           7.1650   -4.4219   -8.9197 N.am    1  UNL1       -0.3112
     24 C           7.1688   -5.2525   -7.7238 C.3     1  UNL1        0.0140
     25 C           6.4594   -4.5986   -6.5509 C.3     1  UNL1       -0.0141
     26 C           6.3105   -5.4743   -5.3271 C.3     1  UNL1        0.0456
     27 O           5.6153   -4.7542   -4.3131 O.3     1  UNL1       -0.3950
     28 C           5.4833   -0.9324   -4.8335 C.ar    1  UNL1       -0.0321
     29 C           4.7097   -0.5755   -3.7187 C.ar    1  UNL1        0.0602
     30 BR          3.2740    0.5733   -4.2246 Br      1  UNL1       -0.0465
     31 H           0.6792    0.4819    1.0209 H       1  UNL1        0.0231
     32 H           0.6607   -0.9598   -0.0174 H       1  UNL1        0.0231
     33 H           0.7023    0.6545   -0.7409 H       1  UNL1        0.0231
     34 H           2.9608   -0.5479    0.9822 H       1  UNL1        0.0295
     35 H           2.9793    1.0363    0.2178 H       1  UNL1        0.0295
     36 H           2.6682    0.0298   -1.9348 H       1  UNL1        0.0696
     37 H           2.7470   -1.6247   -1.3064 H       1  UNL1        0.0696
     38 H           6.6115   -2.0198   -1.2787 H       1  UNL1        0.0655
     39 H           7.9739   -2.5940   -3.2357 H       1  UNL1        0.0626
     40 H           6.3112   -1.2683   -7.3308 H       1  UNL1        0.1568
     41 H           6.6263   -0.9979   -9.6173 H       1  UNL1        0.1539
     42 H           7.8816   -0.2058  -11.6872 H       1  UNL1        0.0636
     43 H           8.8775   -0.9428  -13.8200 H       1  UNL1        0.0618
     44 H           9.7053   -3.2596  -14.0698 H       1  UNL1        0.0618
     45 H           9.2881   -4.9173  -12.2978 H       1  UNL1        0.0626
     46 H           6.7472   -3.5046   -8.8705 H       1  UNL1        0.1490
     47 H           8.2144   -5.4363   -7.4432 H       1  UNL1        0.0463
     48 H           6.6948   -6.1978   -7.9807 H       1  UNL1        0.0463
     49 H           5.5268   -4.0870   -6.8211 H       1  UNL1        0.0302
     50 H           7.1232   -3.8302   -6.2170 H       1  UNL1        0.0302
     51 H           7.2940   -5.7573   -4.9349 H       1  UNL1        0.0557
     52 H           5.7321   -6.3665   -5.5564 H       1  UNL1        0.0557
     53 H           6.2603   -4.1566   -3.8992 H       1  UNL1        0.2094
     54 H           5.1334   -0.6398   -5.8134 H       1  UNL1        0.0637
@<TRIPOS>BOND
     1     1     2    1
     2     2     3    1
     3     3     4    1
     4     4     5    1
     5     5     6   ar
     6     6     7   ar
     7     7     8   ar
     8     8     9    1
     9     9    10    2
    10     9    11   am
    11    11    12    1
    12    12    13    2
    13    12    14    1
    14    14    15    1
    15    15    16   ar
    16    16    17   ar
    17    17    18   ar
    18    18    19   ar
    19    19    20   ar
    20    15    20   ar
    21    20    21    1
    22    21    22    2
    23    21    23   am
    24    23    24    1
    25    24    25    1
    26    25    26    1
    27    26    27    1
    28     8    28   ar
    29    28    29   ar
    30     5    29   ar
    31    29    30    1
    32     1    31    1
    33     1    32    1
    34     1    33    1
    35     2    34    1
    36     2    35    1
    37     3    36    1
    38     3    37    1
    39     6    38    1
    40     7    39    1
    41    11    40    1
    42    14    41    1
    43    16    42    1
    44    17    43    1
    45    18    44    1
    46    19    45    1
    47    23    46    1
    48    24    47    1
    49    24    48    1
    50    25    49    1
    51    25    50    1
    52    26    51    1
    53    26    52    1
    54    27    53    1
    55    28    54    1
