@<TRIPOS>MOLECULE
*****
 55 56 0 0 0
SMALL
GASTEIGER

@<TRIPOS>ATOM
      1 C           0.9859    0.0665    0.0781 C.3     1  UNL1       -0.0495
      2 C           2.5036    0.0892    0.0733 C.3     1  UNL1        0.0089
      3 N           3.0560    1.4085   -0.1952 N.am    1  UNL1       -0.3128
      4 C           4.4336    1.5778   -0.2552 C.2     1  UNL1        0.2507
      5 O           5.2011    0.6409   -0.0444 O.2     1  UNL1       -0.2721
      6 C           4.9183    3.0043   -0.5735 C.3     1  UNL1        0.1651
      7 O           6.3394    3.0122   -0.7423 O.3     1  UNL1       -0.4827
      8 C           6.9623    4.2211   -0.8804 C.ar    1  UNL1        0.1230
      9 C           8.1493    4.2519   -1.6019 C.ar    1  UNL1       -0.0198
     10 C           8.9064    5.4270   -1.6546 C.ar    1  UNL1       -0.0566
     11 C           8.4691    6.5834   -0.9914 C.ar    1  UNL1       -0.0406
     12 C           7.2861    6.5687   -0.2459 C.ar    1  UNL1        0.0312
     13 N           6.8881    7.6584    0.5066 N.pl3   1  UNL1       -0.3330
     14 C           5.7443    7.6604    1.4530 C.3     1  UNL1        0.0949
     15 C           5.9563    6.6359    2.5688 C.3     1  UNL1       -0.0381
     16 C           5.5927    9.0663    2.0821 C.2     1  UNL1        0.2404
     17 O           6.4218    9.9274    1.7657 O.2     1  UNL1       -0.2733
     18 N           4.5045    9.2801    2.9397 N.am    1  UNL1       -0.2387
     19 C           4.3855   10.4765    3.5965 C.2     1  UNL1        0.3062
     20 O           5.2593   11.3374    3.4925 O.2     1  UNL1       -0.2524
     21 N           3.2409   10.6964    4.3463 N.am    1  UNL1       -0.2962
     22 C           3.0107   11.9781    5.0780 C.3     1  UNL1        0.0246
     23 C           3.9671   13.1199    4.7168 C.3     1  UNL1       -0.0345
     24 C           3.3122   14.4119    5.1326 C.3     1  UNL1       -0.0513
     25 C           1.8211   14.1362    5.0309 C.3     1  UNL1       -0.0513
     26 C           1.6552   12.6295    4.7625 C.3     1  UNL1       -0.0345
     27 C           6.5359    5.3849   -0.2558 C.ar    1  UNL1        0.0009
     28 H           0.6196   -0.9458    0.2835 H       1  UNL1        0.0245
     29 H           0.5838    0.3815   -0.8900 H       1  UNL1        0.0245
     30 H           0.5834    0.7345    0.8459 H       1  UNL1        0.0245
     31 H           2.8838   -0.6009   -0.6887 H       1  UNL1        0.0459
     32 H           2.8846   -0.2496    1.0436 H       1  UNL1        0.0459
     33 H           2.4293    2.1820   -0.3737 H       1  UNL1        0.1488
     34 H           4.5810    3.6366    0.2563 H       1  UNL1        0.0795
     35 H           4.4625    3.3393   -1.5106 H       1  UNL1        0.0795
     36 H           8.4816    3.3640   -2.1325 H       1  UNL1        0.0654
     37 H           9.8519    5.4341   -2.1927 H       1  UNL1        0.0619
     38 H           9.0735    7.4861   -1.0612 H       1  UNL1        0.0636
     39 H           7.4551    8.5101    0.5063 H       1  UNL1        0.1468
     40 H           4.8314    7.4645    0.8790 H       1  UNL1        0.0591
     41 H           6.8353    6.8874    3.1693 H       1  UNL1        0.0252
     42 H           6.1236    5.6169    2.2138 H       1  UNL1        0.0252
     43 H           5.0798    6.5848    3.2181 H       1  UNL1        0.0252
     44 H           3.8524    8.5394    3.1396 H       1  UNL1        0.1591
     45 H           2.6493    9.9203    4.6108 H       1  UNL1        0.1505
     46 H           3.0619   11.7635    6.1556 H       1  UNL1        0.0499
     47 H           4.0754   13.1813    3.6277 H       1  UNL1        0.0283
     48 H           4.9539   12.9957    5.1747 H       1  UNL1        0.0283
     49 H           3.6270   15.2216    4.4633 H       1  UNL1        0.0266
     50 H           3.6052   14.6910    6.1492 H       1  UNL1        0.0266
     51 H           1.3756   14.7212    4.2179 H       1  UNL1        0.0266
     52 H           1.3263   14.4444    5.9578 H       1  UNL1        0.0266
     53 H           1.4016   12.4776    3.7071 H       1  UNL1        0.0283
     54 H           0.8341   12.2153    5.3575 H       1  UNL1        0.0283
     55 H           5.6102    5.3622    0.2916 H       1  UNL1        0.0673
@<TRIPOS>BOND
     1     1     2    1
     2     2     3    1
     3     3     4   am
     4     4     5    2
     5     4     6    1
     6     6     7    1
     7     7     8    1
     8     8     9   ar
     9     9    10   ar
    10    10    11   ar
    11    11    12   ar
    12    12    13    1
    13    13    14    1
    14    14    15    1
    15    14    16    1
    16    16    17    2
    17    16    18   am
    18    18    19   am
    19    19    20    2
    20    19    21   am
    21    21    22    1
    22    22    23    1
    23    23    24    1
    24    24    25    1
    25    25    26    1
    26    22    26    1
    27    12    27   ar
    28     8    27   ar
    29     1    28    1
    30     1    29    1
    31     1    30    1
    32     2    31    1
    33     2    32    1
    34     3    33    1
    35     6    34    1
    36     6    35    1
    37     9    36    1
    38    10    37    1
    39    11    38    1
    40    13    39    1
    41    14    40    1
    42    15    41    1
    43    15    42    1
    44    15    43    1
    45    18    44    1
    46    21    45    1
    47    22    46    1
    48    23    47    1
    49    23    48    1
    50    24    49    1
    51    24    50    1
    52    25    51    1
    53    25    52    1
    54    26    53    1
    55    26    54    1
    56    27    55    1
