@<TRIPOS>MOLECULE
*****
 61 64 0 0 0
SMALL
GASTEIGER

@<TRIPOS>ATOM
      1 CD1         3.1152    0.0638    1.7120 C.3     1  LEU1       -0.0626
      2 CG          4.6287   -0.1279    1.5734 C.3     1  LEU1       -0.0447
      3 CD2         5.1485   -0.3794    2.9839 C.3     1  LEU1       -0.0626
      4 CB          5.1465   -1.2755    0.6553 C.3     1  LEU1       -0.0269
      5 CA          4.5459   -1.2960   -0.7499 C.3     1  LEU1        0.0629
      6 N           3.0787   -1.3432   -0.6629 N.am    1  LEU1       -0.3058
      7 C           2.3694   -2.2385    0.1297 C.2     0  UNK0        0.2345
      8 O           2.9108   -3.0887    0.8348 O.2     0  UNK0       -0.2737
      9 C           0.8251   -2.0262    0.1948 C.3     0  UNK0        0.1103
     10 C           0.3016   -2.4321   -1.1941 C.3     0  UNK0        0.0017
     11 C           0.7227   -1.5595   -2.3203 C.ar    0  UNK0       -0.0201
     12 C           1.6286   -1.8802   -3.3100 C.ar    0  UNK0        0.0060
     13 N           1.9487   -0.7309   -3.9795 N.ar    0  UNK0       -0.3604
     14 C           1.2250    0.3241   -3.4639 C.ar    0  UNK0        0.0467
     15 C           1.2396    1.6854   -3.7730 C.ar    0  UNK0       -0.0378
     16 C           0.4191    2.5273   -3.0075 C.ar    0  UNK0       -0.0598
     17 C          -0.3765    2.0358   -1.9745 C.ar    0  UNK0       -0.0611
     18 C          -0.3817    0.6785   -1.6826 C.ar    0  UNK0       -0.0523
     19 C           0.4236   -0.1838   -2.4435 C.ar    0  UNK0        0.0029
     20 N           0.2336   -2.7763    1.3646 N.am    0  UNK0       -0.2445
     21 C           0.6141   -2.4395    2.6701 C.2     0  UNK0        0.2521
     22 O           0.5527   -1.2946    3.1337 O.2     0  UNK0       -0.2698
     23 C           1.1401   -3.5769    3.4989 C.ar    0  UNK0        0.0579
     24 C           1.7920   -3.3648    4.7206 C.ar    0  UNK0       -0.0478
     25 C           2.3387   -4.4493    5.4141 C.ar    0  UNK0       -0.0609
     26 C           2.2290   -5.7383    4.8909 C.ar    0  UNK0       -0.0600
     27 C           1.5901   -5.9457    3.6646 C.ar    0  UNK0       -0.0400
     28 C           1.0535   -4.8695    2.9501 C.ar    0  UNK0        0.0424
     29 N           0.4019   -5.0698    1.7425 N.pl3   0  UNK0       -0.3031
     30 C          -0.4550   -4.0269    1.3121 C.3     0  UNK0        0.1965
     31 O          -0.9938   -4.3554    0.0704 O.3     0  UNK0       -0.3588
     32 C           5.1914   -2.3684   -1.6966 C.2     1  LEU1        0.0620
     33 O           4.3872   -3.0825   -2.3672 O.co2   1  LEU1       -0.5479
     34 OXT         6.4556   -2.3339   -1.7715 O.co2   1  LEU1       -0.5479
     35 HD11        2.8437    0.8630    2.4044 H       1  LEU1        0.0232
     36 HD12        2.6773   -0.8469    2.1191 H       1  LEU1        0.0232
     37 HD13        2.6310    0.3434    0.7744 H       1  LEU1        0.0232
     38 HG          5.0323    0.8138    1.1870 H       1  LEU1        0.0296
     39 HD21        4.7739   -1.3377    3.3663 H       1  LEU1        0.0232
     40 HD22        4.8021    0.4072    3.6606 H       1  LEU1        0.0232
     41 HD23        6.2392   -0.4025    2.9978 H       1  LEU1        0.0232
     42 HB1         4.9791   -2.2491    1.1281 H       1  LEU1        0.0289
     43 HB2         6.2400   -1.2070    0.5890 H       1  LEU1        0.0289
     44 HA          4.7839   -0.3273   -1.2217 H       1  LEU1        0.0560
     45 H           2.6158   -0.7345   -1.3196 H       1  LEU1        0.1494
     46 H           0.6367   -0.9644    0.4117 H       0  UNK0        0.0601
     47 H          -0.7905   -2.4539   -1.1976 H       0  UNK0        0.0337
     48 H           0.7054   -3.4237   -1.4228 H       0  UNK0        0.0337
     49 H           2.1980   -2.7909   -3.4769 H       0  UNK0        0.0810
     50 H           2.6885   -0.6683   -4.6666 H       0  UNK0        0.1653
     51 H           1.8722    2.0802   -4.5593 H       0  UNK0        0.0638
     52 H           0.4093    3.5927   -3.2149 H       0  UNK0        0.0618
     53 H          -0.9894    2.7028   -1.3764 H       0  UNK0        0.0618
     54 H          -0.9732    0.2909   -0.8579 H       0  UNK0        0.0624
     55 H           1.9067   -2.3577    5.1120 H       0  UNK0        0.0626
     56 H           2.8661   -4.2898    6.3518 H       0  UNK0        0.0618
     57 H           2.6534   -6.5828    5.4291 H       0  UNK0        0.0618
     58 H           1.5171   -6.9552    3.2699 H       0  UNK0        0.0636
     59 H           0.4543   -5.9406    1.2448 H       0  UNK0        0.1501
     60 H          -1.3060   -3.9419    1.9997 H       0  UNK0        0.1036
     61 H          -0.2336   -4.6862   -0.4269 H       0  UNK0        0.2134
@<TRIPOS>UNITY_ATOM_ATTR
34 1
charge -1
@<TRIPOS>BOND
     1     1     2    1
     2     2     3    1
     3     2     4    1
     4     6     7   am
     5     7     8    2
     6     7     9    1
     7     9    10    1
     8    10    11    1
     9    11    12   ar
    10    12    13   ar
    11    13    14   ar
    12    14    15   ar
    13    15    16   ar
    14    16    17   ar
    15    17    18   ar
    16    18    19   ar
    17    11    19   ar
    18    14    19   ar
    19     9    20    1
    20    20    21   am
    21    21    22    2
    22    21    23    1
    23    23    24   ar
    24    24    25   ar
    25    25    26   ar
    26    26    27   ar
    27    27    28   ar
    28    23    28   ar
    29    28    29    1
    30    29    30    1
    31    20    30    1
    32    30    31    1
    33     5    32    1
    34    32    33   ar
    35    32    34   ar
    36     5     6    1
    37     5     4    1
    38     1    35    1
    39     1    36    1
    40     1    37    1
    41     2    38    1
    42     3    39    1
    43     3    40    1
    44     3    41    1
    45     4    42    1
    46     4    43    1
    47     5    44    1
    48     6    45    1
    49     9    46    1
    50    10    47    1
    51    10    48    1
    52    12    49    1
    53    13    50    1
    54    15    51    1
    55    16    52    1
    56    17    53    1
    57    18    54    1
    58    24    55    1
    59    25    56    1
    60    26    57    1
    61    27    58    1
    62    29    59    1
    63    30    60    1
    64    31    61    1
