@<TRIPOS>MOLECULE
*****
 54 57 0 0 0
SMALL
GASTEIGER

@<TRIPOS>ATOM
      1 C           0.9231   -0.0116   -0.0678 C.3     1  UNL1       -0.0385
      2 C           2.4364    0.0371   -0.0474 C.ar    1  UNL1       -0.0294
      3 C           3.1765    1.1777   -0.1364 C.ar    1  UNL1        0.0493
      4 C           2.4750    2.5379   -0.2372 C.3     1  UNL1        0.0561
      5 C           3.3909    3.7470   -0.3029 C.2     1  UNL1        0.2181
      6 O           4.5614    3.7484    0.0984 O.2     1  UNL1       -0.2754
      7 N           2.9707    4.9285   -0.7774 N.am    1  UNL1       -0.3068
      8 CA          4.0351    6.0325   -0.7745 C.3     1  UNL1        0.0666
      9 C           5.3514    5.9526   -2.0161 C.3     1  UNL1       -0.0019
     10 C           6.6504    4.7358   -2.4726 C.ar    1  UNL1       -0.0201
     11 C           5.8720    3.8688   -3.2163 C.ar    1  UNL1        0.0060
     12 N           6.4134    2.7519   -2.6332 N.ar    1  UNL1       -0.3604
     13 C           7.5688    2.5941   -3.3342 C.ar    1  UNL1        0.0470
     14 C           7.8610    1.4061   -4.0518 C.ar    1  UNL1       -0.0343
     15 C           8.5197    1.4081   -5.2532 C.ar    1  UNL1       -0.0182
     16 C           9.2029    2.5641   -5.5102 C.ar    1  UNL1        0.1176
     17 O          10.1847    2.4171   -6.4958 O.3     1  UNL1       -0.5067
     18 C           8.9711    3.8425   -4.6676 C.ar    1  UNL1       -0.0108
     19 C           7.9977    3.9453   -3.4136 C.ar    1  UNL1        0.0063
     20 C           3.1494    7.4031   -0.6952 C.2     1  UNL1        0.0623
     21 O           1.8884    7.2114   -0.5588 O.co2   1  UNL1       -0.5479
     22 OXT         3.7878    8.4879   -0.6985 O.co2   1  UNL1       -0.5479
     23 C           4.6781    1.0545   -0.1532 C.ar    1  UNL1        0.3412
     24 O           5.5580    1.9079   -0.3714 O.2     1  UNL1       -0.2449
     25 O           5.2388   -0.1525    0.0601 O.2     1  UNL1       -0.4216
     26 C           4.5024   -1.3068    0.0588 C.ar    1  UNL1        0.1457
     27 C           5.2863   -2.4556    0.0966 C.ar    1  UNL1        0.0338
     28 C           6.7656   -2.3557    0.3440 C.3     1  UNL1       -0.0327
     29 C           4.6198   -3.6447   -0.1080 C.ar    1  UNL1        0.1233
     30 O           5.2735   -4.8375   -0.1402 O.3     1  UNL1       -0.5064
     31 C           3.2354   -3.6607   -0.2516 C.ar    1  UNL1       -0.0191
     32 C           2.4840   -2.5005   -0.0434 C.ar    1  UNL1       -0.0474
     33 C           3.1208   -1.2692    0.0059 C.ar    1  UNL1        0.0213
     34 H           0.4462    0.9679   -0.1400 H       1  UNL1        0.0278
     35 H           0.5412   -0.4802    0.8467 H       1  UNL1        0.0278
     36 H           0.5674   -0.5898   -0.9303 H       1  UNL1        0.0278
     37 H           1.8144    2.6602    0.6365 H       1  UNL1        0.0409
     38 H           1.8245    2.5374   -1.1258 H       1  UNL1        0.0409
     39 H           2.0272    5.2719   -0.4987 H       1  UNL1        0.1493
     40 HA          4.4908    6.0265    0.2385 H       1  UNL1        0.0563
     41 H           5.7929    6.9396   -2.0056 H       1  UNL1        0.0335
     42 H           4.6572    5.8289   -2.8642 H       1  UNL1        0.0335
     43 H           5.7869    4.0913   -4.2851 H       1  UNL1        0.0810
     44 H           6.4293    2.5787   -1.6341 H       1  UNL1        0.1653
     45 H           7.3571    0.5045   -3.7346 H       1  UNL1        0.0639
     46 H           8.5021    0.5164   -5.8853 H       1  UNL1        0.0655
     47 H          10.2084    1.4865   -6.8318 H       1  UNL1        0.2921
     48 H           9.8144    4.5292   -4.8226 H       1  UNL1        0.0661
     49 H           7.1303   -1.3282    0.4656 H       1  UNL1        0.0280
     50 H           7.3206   -2.7940   -0.4883 H       1  UNL1        0.0280
     51 H           7.0040   -2.8735    1.2775 H       1  UNL1        0.0280
     52 H           6.1900   -4.6834    0.1425 H       1  UNL1        0.2921
     53 H           2.7323   -4.5814   -0.5218 H       1  UNL1        0.0654
     54 H           1.4070   -2.5839    0.0454 H       1  UNL1        0.0626
@<TRIPOS>UNITY_ATOM_ATTR
22 1
charge -1
@<TRIPOS>BOND
     1     1     2    1
     2     2     3   ar
     3     3     4    1
     4     4     5    1
     5     5     6    2
     6     5     7   am
     7     7     8    1
     8     8     9    1
     9     9    10    1
    10    10    11   ar
    11    11    12   ar
    12    12    13   ar
    13    13    14   ar
    14    14    15   ar
    15    15    16   ar
    16    16    17    1
    17    16    18   ar
    18    18    19   ar
    19    10    19   ar
    20    13    19   ar
    21     8    20    1
    22    20    21   ar
    23    20    22   ar
    24     3    23   ar
    25    23    24    2
    26    23    25   ar
    27    25    26   ar
    28    26    27   ar
    29    27    28    1
    30    27    29   ar
    31    29    30    1
    32    29    31   ar
    33    31    32   ar
    34    32    33   ar
    35     2    33   ar
    36    26    33   ar
    37     1    34    1
    38     1    35    1
    39     1    36    1
    40     4    37    1
    41     4    38    1
    42     7    39    1
    43     8    40    1
    44     9    41    1
    45     9    42    1
    46    11    43    1
    47    12    44    1
    48    14    45    1
    49    15    46    1
    50    17    47    1
    51    18    48    1
    52    28    49    1
    53    28    50    1
    54    28    51    1
    55    30    52    1
    56    31    53    1
    57    32    54    1
