REMARK  6 active torsions:
REMARK  status: ('A' for Active; 'I' for Inactive)
REMARK    1  A    between atoms: C_2  and  C_3 
REMARK    2  A    between atoms: C_3  and  N_5 
REMARK       I    between atoms: N_5  and  C_6 
REMARK    3  A    between atoms: C_6  and  C_8 
REMARK    4  A    between atoms: C_8  and  C_9 
REMARK    5  A    between atoms: C_9  and  C_10 
REMARK    6  A    between atoms: C_14  and  N_15 
ROOT
ATOM      1  C   UNL d   1       7.283   2.874  -2.799  0.00  0.00     0.048 C 
ENDROOT
BRANCH   1   2
ATOM      2  C   UNL d   1       6.692   1.873  -1.794  0.00  0.00     0.107 C 
BRANCH   2   3
ATOM      3  C   UNL d   1       5.185   1.895  -1.869  0.00  0.00     0.218 C 
ATOM      4  N   UNL d   1       4.536   1.074  -0.966  0.00  0.00    -0.357 N 
ATOM      5  H   UNL d   1       5.073   0.463  -0.362  0.00  0.00     0.162 HD
ATOM      6  O   UNL d   1       4.585   2.596  -2.684  0.00  0.00    -0.274 OA
BRANCH   4   7
ATOM      7  C   UNL d   1       3.072   1.047  -0.911  0.00  0.00     0.080 C 
ATOM      8  C   UNL d   1       2.534   2.435  -0.543  0.00  0.00     0.032 C 
BRANCH   7   9
ATOM      9  C   UNL d   1       2.547  -0.007   0.084  0.00  0.00     0.020 C 
ATOM     10  C   UNL d   1       1.021  -0.071   0.114  0.00  0.00     0.007 C 
ENDBRANCH   7   9
ENDBRANCH   4   7
ENDBRANCH   2   3
ENDBRANCH   1   2
BRANCH   1  11
ATOM     11  C   UNL d   1       8.790   2.898  -2.810  0.00  0.00    -0.056 A 
ATOM     12  C   UNL d   1       9.485   4.113  -2.826  0.00  0.00     0.007 A 
ATOM     13  C   UNL d   1      10.880   4.122  -2.848  0.00  0.00     0.003 A 
ATOM     14  C   UNL d   1      11.588   2.918  -2.863  0.00  0.00     0.029 A 
ATOM     15  C   UNL d   1      10.915   1.698  -2.865  0.00  0.00     0.026 A 
ATOM     16  C   UNL d   1       9.521   1.702  -2.851  0.00  0.00     0.036 A 
BRANCH  15  17
ATOM     17  N   UNL d   1      11.604   0.501  -2.837  0.00  0.00    -0.399 N 
ATOM     18  H   UNL d   1      12.612   0.489  -2.875  0.00  0.00     0.156 HD
ATOM     19  H   UNL d   1      11.104  -0.377  -2.865  0.00  0.00     0.156 HD
ENDBRANCH  15  17
ENDBRANCH   1  11
TORSDOF 6
