REMARK  7 active torsions:
REMARK  status: ('A' for Active; 'I' for Inactive)
REMARK    1  A    between atoms: C_2  and  C_3 
REMARK    2  A    between atoms: C_3  and  C_4 
REMARK    3  A    between atoms: C_4  and  N_5 
REMARK    4  A    between atoms: C_11  and  C_12 
REMARK    5  A    between atoms: C_17  and  O_18 
REMARK    6  A    between atoms: C_20  and  C_21 
REMARK    7  A    between atoms: C_25  and  O_26 
ROOT
ATOM      1  N   UNL d   1       5.094   2.886   0.694  0.00  0.00    -0.334 N 
ATOM      2  C   UNL d   1       6.306   3.180   1.340  0.00  0.00     0.273 A 
ATOM      3  O   UNL d   1       7.144   2.405   1.773  0.00  0.00    -0.266 OA
ATOM      4  C   UNL d   1       6.338   4.598   1.373  0.00  0.00     0.129 A 
ATOM      5  N   UNL d   1       7.104   5.608   1.819  0.00  0.00    -0.272 N 
ATOM      6  N   UNL d   1       6.568   6.823   1.511  0.00  0.00    -0.173 NA
ATOM      7  C   UNL d   1       5.393   6.539   0.898  0.00  0.00     0.101 A 
ATOM      8  C   UNL d   1       5.246   5.153   0.781  0.00  0.00     0.034 A 
ATOM      9  C   UNL d   1       4.331   4.108   0.304  0.00  0.00     0.159 A 
ATOM     10  H   UNL d   1       7.982   5.572   2.326  0.00  0.00     0.189 HD
ENDROOT
BRANCH   7  11
ATOM     11  C   UNL d   1       4.475   7.567   0.425  0.00  0.00     0.028 A 
ATOM     12  C   UNL d   1       4.907   8.488  -0.539  0.00  0.00     0.017 A 
ATOM     13  C   UNL d   1       4.025   9.440  -1.059  0.00  0.00     0.001 A 
ATOM     14  C   UNL d   1       2.709   9.494  -0.602  0.00  0.00     0.003 A 
ATOM     15  C   UNL d   1       2.267   8.589   0.367  0.00  0.00     0.037 A 
ATOM     16  C   UNL d   1       3.144   7.621   0.866  0.00  0.00     0.078 A 
BRANCH  16  17
ATOM     17  O   UNL d   1       2.701   6.704   1.784  0.00  0.00    -0.360 OA
ATOM     18  H   UNL d   1       1.783   6.904   2.024  0.00  0.00     0.217 HD
ENDBRANCH  16  17
ENDBRANCH   7  11
BRANCH   9  19
ATOM     19  C   UNL d   1       4.128   4.277  -1.180  0.00  0.00    -0.028 A 
ATOM     20  C   UNL d   1       5.169   4.213  -2.119  0.00  0.00     0.010 A 
ATOM     21  C   UNL d   1       4.898   4.345  -3.484  0.00  0.00     0.003 A 
ATOM     22  C   UNL d   1       3.585   4.518  -3.932  0.00  0.00     0.036 A 
ATOM     23  C   UNL d   1       2.551   4.561  -3.006  0.00  0.00     0.066 A 
ATOM     24  C   UNL d   1       2.816   4.458  -1.649  0.00  0.00     0.046 A 
BRANCH  23  25
ATOM     25  O   UNL d   1       1.243   4.691  -3.370  0.00  0.00    -0.361 OA
ATOM     26  H   UNL d   1       1.186   4.744  -4.337  0.00  0.00     0.217 HD
ENDBRANCH  23  25
ENDBRANCH   9  19
BRANCH   1  27
ATOM     27  C   UNL d   1       4.623   1.535   0.397  0.00  0.00     0.127 C 
BRANCH  27  28
ATOM     28  C   UNL d   1       3.098   1.429   0.386  0.00  0.00     0.020 C 
BRANCH  28  29
ATOM     29  C   UNL d   1       2.585   0.029   0.082  0.00  0.00    -0.003 C 
ATOM     30  C   UNL d   1       1.063   0.025   0.070  0.00  0.00     0.005 C 
ENDBRANCH  28  29
ENDBRANCH  27  28
ENDBRANCH   1  27
TORSDOF 7
