REMARK  9 active torsions:
REMARK  status: ('A' for Active; 'I' for Inactive)
REMARK    1  A    between atoms: C_2  and  O_4 
REMARK    2  A    between atoms: O_4  and  C_5 
REMARK    3  A    between atoms: C_5  and  C_6 
REMARK    4  A    between atoms: C_10  and  N_11 
REMARK       I    between atoms: N_11  and  C_12 
REMARK       I    between atoms: C_12  and  N_14 
REMARK    5  A    between atoms: N_14  and  C_15 
REMARK    6  A    between atoms: C_15  and  C_16 
REMARK    7  A    between atoms: C_16  and  C_17 
REMARK    8  A    between atoms: C_17  and  C_18 
REMARK    9  A    between atoms: C_21  and  N_22 
ROOT
ATOM      1  C   UNL d   1      -2.238   9.108   2.568  0.00  0.00     0.079 A 
ATOM      2  N   UNL d   1      -1.667  10.291   2.295  0.00  0.00    -0.176 NA
ATOM      3  N   UNL d   1      -2.564  11.194   2.726  0.00  0.00    -0.261 N 
ATOM      4  C   UNL d   1      -3.688  10.635   3.272  0.00  0.00     0.138 A 
ATOM      5  C   UNL d   1      -3.507   9.276   3.169  0.00  0.00     0.115 A 
ATOM      6  C   UNL d   1      -4.413   8.258   3.589  0.00  0.00     0.105 C 
ATOM      7  N   UNL d   1      -5.146   7.430   3.925  0.00  0.00    -0.191 NA
ATOM      8  H   UNL d   1      -2.346  12.178   2.626  0.00  0.00     0.191 HD
ENDROOT
BRANCH   4   9
ATOM      9  N   UNL d   1      -4.686  11.389   3.770  0.00  0.00    -0.383 N 
ATOM     10  H   UNL d   1      -4.685  12.405   3.786  0.00  0.00     0.157 HD
ATOM     11  H   UNL d   1      -5.508  10.968   4.201  0.00  0.00     0.157 HD
ENDBRANCH   4   9
BRANCH   1  12
ATOM     12  C   UNL d   1      -1.547   7.815   2.255  0.00  0.00     0.064 C 
BRANCH  12  13
ATOM     13  C   UNL d   1      -0.233   8.010   1.497  0.00  0.00     0.026 C 
BRANCH  13  14
ATOM     14  C   UNL d   1       0.456   6.699   1.192  0.00  0.00     0.125 C 
BRANCH  14  15
ATOM     15  N   UNL d   1       1.712   6.883   0.462  0.00  0.00    -0.343 N 
ATOM     16  C   UNL d   1       2.419   5.755   0.137  0.00  0.00     0.320 C 
ATOM     17  N   UNL d   1       3.600   5.953  -0.571  0.00  0.00    -0.309 N 
ATOM     18  O   UNL d   1       1.947   4.682   0.502  0.00  0.00    -0.247 OA
ATOM     19  H   UNL d   1       3.902   6.891  -0.783  0.00  0.00     0.170 HD
ATOM     20  H   UNL d   1       2.036   7.805   0.222  0.00  0.00     0.164 HD
BRANCH  17  21
ATOM     21  C   UNL d   1       4.467   4.889  -0.972  0.00  0.00     0.036 A 
ATOM     22  C   UNL d   1       5.686   5.094  -1.628  0.00  0.00     0.029 A 
ATOM     23  C   UNL d   1       6.528   4.000  -1.935  0.00  0.00     0.003 A 
ATOM     24  C   UNL d   1       6.128   2.690  -1.666  0.00  0.00     0.009 A 
ATOM     25  C   UNL d   1       4.929   2.481  -1.000  0.00  0.00    -0.032 A 
ATOM     26  C   UNL d   1       4.135   3.576  -0.679  0.00  0.00     0.038 A 
BRANCH  25  27
ATOM     27  C   UNL d   1       4.478   1.141  -0.509  0.00  0.00     0.206 C 
BRANCH  27  28
ATOM     28  O   UNL d   1       3.047   1.066  -0.530  0.00  0.00    -0.382 OA
BRANCH  28  29
ATOM     29  C   UNL d   1       2.546  -0.159  -0.010  0.00  0.00     0.113 C 
ATOM     30  C   UNL d   1       1.022  -0.100   0.003  0.00  0.00     0.039 C 
ATOM     31  C   UNL d   1       3.004  -1.297  -0.908  0.00  0.00     0.039 C 
ENDBRANCH  28  29
ENDBRANCH  27  28
ENDBRANCH  25  27
ENDBRANCH  17  21
ENDBRANCH  14  15
ENDBRANCH  13  14
ENDBRANCH  12  13
ENDBRANCH   1  12
TORSDOF 9
