REMARK  9 active torsions:
REMARK  status: ('A' for Active; 'I' for Inactive)
REMARK    1  A    between atoms: C_9  and  O_10 
REMARK    2  A    between atoms: C_12  and  O_13 
REMARK    3  A    between atoms: C_16  and  C_17 
REMARK    4  A    between atoms: C_17  and  N_18 
REMARK    5  A    between atoms: N_18  and  N_19 
REMARK    6  A    between atoms: N_19  and  C_20 
REMARK    7  A    between atoms: C_20  and  N_21 
REMARK    8  A    between atoms: C_23  and  O_24 
REMARK    9  A    between atoms: C_27  and  C_28 
ROOT
ATOM      1  C   UNL d   1       0.767   0.102  -0.169  0.00  0.00     0.019 C 
ATOM      2  C   UNL d   1       2.328   0.062   0.058  0.00  0.00    -0.005 C 
ATOM      3  C   UNL d   1       2.885   1.179  -0.808  0.00  0.00     0.013 C 
ATOM      4  C   UNL d   1       4.374   1.158  -0.878  0.00  0.00     0.007 C 
ATOM      5  C   UNL d   1       4.665  -0.167  -1.549  0.00  0.00     0.009 C 
ATOM      6  C   UNL d   1       4.258  -1.448  -0.571  0.00  0.00     0.026 C 
ATOM      7  C   UNL d   1       4.701  -2.777  -1.259  0.00  0.00     0.011 C 
ATOM      8  C   UNL d   1       6.202  -2.887  -1.363  0.00  0.00     0.039 C 
ATOM      9  C   UNL d   1       6.605  -1.798  -2.245  0.00  0.00     0.073 C 
ATOM     10  C   UNL d   1       5.883  -1.649  -3.550  0.00  0.00     0.070 C 
ATOM     11  C   UNL d   1       6.931  -3.020  -3.981  0.00  0.00     0.121 C 
ATOM     12  C   UNL d   1       6.830  -1.703  -4.442  0.00  0.00     0.033 C 
ATOM     13  C   UNL d   1       7.279  -0.536  -2.590  0.00  0.00     0.021 C 
ATOM     14  C   UNL d   1       6.094  -0.037  -2.033  0.00  0.00     0.031 C 
ATOM     15  C   UNL d   1       2.606  -1.410  -0.177  0.00  0.00     0.070 C 
ATOM     16  C   UNL d   1       1.802  -1.693   1.436  0.00  0.00     0.040 C 
ATOM     17  C   UNL d   1       2.971  -1.265   2.199  0.00  0.00     0.013 C 
ATOM     18  C   UNL d   1       3.081   0.114   1.477  0.00  0.00     0.028 C 
ENDROOT
BRANCH  14  19
ATOM     19  C   UNL d   1       6.723   1.356  -2.668  0.00  0.00     0.124 C 
BRANCH  19  20
ATOM     20  N   UNL d   1       8.025   1.500  -2.794  0.00  0.00    -0.188 NA
BRANCH  20  21
ATOM     21  N   UNL d   1       8.538   2.482  -3.518  0.00  0.00    -0.254 N 
ATOM     22  H   UNL d   1       7.896   3.137  -3.927  0.00  0.00     0.191 HD
BRANCH  21  23
ATOM     23  C   UNL d   1       9.865   2.628  -3.802  0.00  0.00     0.185 C 
ATOM     24  S   UNL d   1      10.361   3.929  -4.708  0.00  0.00    -0.040 SA
BRANCH  23  25
ATOM     25  N   UNL d   1      10.765   1.727  -3.344  0.00  0.00    -0.375 N 
ATOM     26  H   UNL d   1      10.480   0.908  -2.823  0.00  0.00     0.158 HD
ATOM     27  H   UNL d   1      11.751   1.853  -3.549  0.00  0.00     0.158 HD
ENDBRANCH  23  25
ENDBRANCH  21  23
ENDBRANCH  20  21
ENDBRANCH  19  20
ENDBRANCH  14  19
BRANCH   9  28
ATOM     28  O   UNL d   1       8.397  -2.119  -2.392  0.00  0.00    -0.389 OA
ATOM     29  H   UNL d   1       8.735  -2.734  -3.068  0.00  0.00     0.210 HD
ENDBRANCH   9  28
BRANCH  11  30
ATOM     30  O   UNL d   1       6.160  -4.162  -4.146  0.00  0.00    -0.395 OA
ATOM     31  H   UNL d   1       5.318  -4.018  -3.700  0.00  0.00     0.210 HD
ENDBRANCH  11  30
BRANCH  15  32
ATOM     32  O   UNL d   1       1.955  -1.851  -1.361  0.00  0.00    -0.389 OA
ATOM     33  H   UNL d   1       2.528  -1.587  -2.112  0.00  0.00     0.210 HD
ENDBRANCH  15  32
BRANCH  18  34
ATOM     34  C   UNL d   1       2.690   1.314   2.239  0.00  0.00    -0.045 A 
ATOM     35  C   UNL d   1       3.221   1.588   3.419  0.00  0.00     0.087 A 
ATOM     36  C   UNL d   1       2.528   2.770   3.891  0.00  0.00     0.283 A 
ATOM     37  O   UNL d   1       2.702   3.272   4.982  0.00  0.00    -0.260 OA
ATOM     38  O   UNL d   1       1.644   3.210   2.966  0.00  0.00    -0.314 OA
ATOM     39  C   UNL d   1       1.702   2.346   1.852  0.00  0.00     0.213 A 
ENDBRANCH  18  34
TORSDOF 9
