REMARK  7 active torsions:
REMARK  status: ('A' for Active; 'I' for Inactive)
REMARK    1  A    between atoms: C_4  and  C_5 
REMARK    2  A    between atoms: N_6  and  N_7 
REMARK       I    between atoms: N_7  and  C_8 
REMARK    3  A    between atoms: C_8  and  C_10 
REMARK    4  A    between atoms: N_21  and  C_22 
REMARK    5  A    between atoms: C_25  and  O_26 
REMARK    6  A    between atoms: O_26  and  C_27 
REMARK    7  A    between atoms: C_27  and  C_28 
ROOT
ATOM      1  C   UNL d   1       8.070   5.841   0.035  0.00  0.00     0.072 A 
ATOM      2  C   UNL d   1       9.122   5.582  -0.854  0.00  0.00     0.022 A 
ATOM      3  C   UNL d   1      10.223   6.457  -0.924  0.00  0.00     0.024 A 
ATOM      4  C   UNL d   1      10.339   7.530  -0.032  0.00  0.00     0.047 A 
ATOM      5  C   UNL d   1      11.558   8.292   0.046  0.00  0.00     0.099 C 
ATOM      6  N   UNL d   1      12.559   8.856   0.162  0.00  0.00    -0.191 NA
ATOM      7  C   UNL d   1       9.299   7.789   0.860  0.00  0.00     0.066 A 
ATOM      8  C   UNL d   1       8.169   6.963   0.872  0.00  0.00     0.133 A 
ATOM      9  F   UNL d   1       7.207   7.247   1.760  0.00  0.00    -0.205 F 
ENDROOT
BRANCH   1  10
ATOM     10  C   UNL d   1       6.803   5.051   0.017  0.00  0.00     0.274 C 
ATOM     11  N   UNL d   1       6.899   3.656  -0.020  0.00  0.00    -0.243 N 
ATOM     12  H   UNL d   1       7.789   3.175   0.025  0.00  0.00     0.192 HD
ATOM     13  O   UNL d   1       5.745   5.673   0.009  0.00  0.00    -0.266 OA
BRANCH  11  14
ATOM     14  N   UNL d   1       5.726   2.916  -0.024  0.00  0.00    -0.183 NA
ATOM     15  C   UNL d   1       5.819   1.623  -0.008  0.00  0.00     0.152 C 
BRANCH  15  16
ATOM     16  C   UNL d   1       4.608   0.799  -0.004  0.00  0.00     0.008 A 
ATOM     17  C   UNL d   1       3.256   1.234  -0.042  0.00  0.00     0.040 A 
ATOM     18  C   UNL d   1       2.425   0.127  -0.058  0.00  0.00     0.014 A 
ATOM     19  C   UNL d   1       0.936   0.088  -0.037  0.00  0.00     0.068 C 
ATOM     20  N   UNL d   1       3.223  -1.002   0.007  0.00  0.00    -0.319 N 
ATOM     21  C   UNL d   1       4.559  -0.595   0.029  0.00  0.00     0.025 A 
ATOM     22  C   UNL d   1       5.686  -1.572  -0.002  0.00  0.00     0.070 C 
BRANCH  20  23
ATOM     23  C   UNL d   1       2.766  -2.349  -0.018  0.00  0.00     0.039 A 
ATOM     24  C   UNL d   1       3.169  -3.248   0.972  0.00  0.00     0.033 A 
ATOM     25  C   UNL d   1       2.852  -4.606   0.846  0.00  0.00     0.039 A 
ATOM     26  C   UNL d   1       2.042  -5.053  -0.204  0.00  0.00     0.069 A 
ATOM     27  C   UNL d   1       1.635  -4.143  -1.181  0.00  0.00     0.039 A 
ATOM     28  C   UNL d   1       1.990  -2.795  -1.090  0.00  0.00     0.033 A 
BRANCH  26  29
ATOM     29  O   UNL d   1       1.689  -6.376  -0.170  0.00  0.00    -0.347 OA
BRANCH  29  30
ATOM     30  C   UNL d   1       0.754  -6.811  -1.168  0.00  0.00     0.214 C 
BRANCH  30  31
ATOM     31  C   UNL d   1       0.433  -8.265  -0.937  0.00  0.00    -0.034 A 
ATOM     32  C   UNL d   1      -0.252  -8.684   0.210  0.00  0.00     0.009 A 
ATOM     33  C   UNL d   1      -0.364 -10.045   0.499  0.00  0.00     0.001 A 
ATOM     34  C   UNL d   1       0.091 -10.995  -0.414  0.00  0.00     0.000 A 
ATOM     35  C   UNL d   1       0.714 -10.587  -1.590  0.00  0.00     0.001 A 
ATOM     36  C   UNL d   1       0.888  -9.229  -1.848  0.00  0.00     0.009 A 
ENDBRANCH  30  31
ENDBRANCH  29  30
ENDBRANCH  26  29
ENDBRANCH  20  23
ENDBRANCH  15  16
ENDBRANCH  11  14
ENDBRANCH   1  10
TORSDOF 7
