@<TRIPOS>MOLECULE
*****
 47 48 0 0 0
SMALL
GASTEIGER

@<TRIPOS>ATOM
      1 C           2.1748   -0.2256  -17.5890 C.3     1  UNL1        0.0004
      2 N           0.9541    0.4561  -17.1803 N.pl3   1  UNL1       -0.3360
      3 C          -0.2157    0.3838  -18.0452 C.3     1  UNL1        0.0004
      4 C           0.9841    1.3631  -16.1294 C.ar    1  UNL1        0.0292
      5 C          -0.0608    1.4458  -15.1941 C.ar    1  UNL1       -0.0401
      6 C          -0.0298    2.3577  -14.1172 C.ar    1  UNL1       -0.0514
      7 C           1.0842    3.1773  -13.9269 C.ar    1  UNL1       -0.0053
      8 C           1.2130    4.0390  -12.7153 C.2     1  UNL1        0.0528
      9 N           2.2828    4.7437  -12.5302 N.2     1  UNL1       -0.1877
     10 N           2.4170    5.4937  -11.3949 N.am    1  UNL1       -0.2070
     11 C           3.5955    6.2226  -11.2400 C.2     1  UNL1        0.2323
     12 O           4.5169    6.2383  -12.0625 O.2     1  UNL1       -0.2741
     13 C           3.6618    7.0427   -9.9683 C.3     1  UNL1        0.0282
     14 C           4.9633    7.8669   -9.8810 C.3     1  UNL1       -0.0144
     15 C           5.1020    8.7523   -8.6336 C.3     1  UNL1        0.0806
     16 O           4.6395    8.0563   -7.4773 O.3     1  UNL1       -0.3872
     17 C           4.3834   10.0793   -8.7727 C.ar    1  UNL1       -0.0191
     18 C           5.1056   11.2820   -8.8012 C.ar    1  UNL1       -0.0561
     19 C           4.4337   12.5071   -8.8390 C.ar    1  UNL1       -0.0614
     20 C           3.0449   12.5439   -8.9530 C.ar    1  UNL1       -0.0617
     21 C           2.3211   11.3602   -8.9781 C.ar    1  UNL1       -0.0614
     22 C           2.9853   10.1452   -8.8594 C.ar    1  UNL1       -0.0561
     23 C           2.1199    3.1294  -14.8598 C.ar    1  UNL1       -0.0514
     24 C           2.0649    2.2347  -15.9383 C.ar    1  UNL1       -0.0401
     25 H           2.0168   -0.8473  -18.4773 H       1  UNL1        0.0428
     26 H           2.5030   -0.8934  -16.7850 H       1  UNL1        0.0428
     27 H           2.9896    0.4632  -17.8306 H       1  UNL1        0.0428
     28 H          -0.0478   -0.2920  -18.8930 H       1  UNL1        0.0428
     29 H          -0.4604    1.3656  -18.4665 H       1  UNL1        0.0428
     30 H          -1.0854   -0.0003  -17.5041 H       1  UNL1        0.0428
     31 H          -0.8927    0.7472  -15.2604 H       1  UNL1        0.0636
     32 H          -0.8741    2.3938  -13.4351 H       1  UNL1        0.0624
     33 H           0.3821    4.0210  -11.9879 H       1  UNL1        0.0851
     34 H           1.6787    5.5016  -10.6989 H       1  UNL1        0.1772
     35 H           3.5796    6.3733   -9.1047 H       1  UNL1        0.0360
     36 H           2.7894    7.6954   -9.9837 H       1  UNL1        0.0360
     37 H           5.0873    8.4833  -10.7813 H       1  UNL1        0.0298
     38 H           5.8036    7.1592   -9.8804 H       1  UNL1        0.0298
     39 H           6.1692    8.9438   -8.4579 H       1  UNL1        0.0643
     40 H           3.6715    8.0226   -7.5189 H       1  UNL1        0.2102
     41 H           6.1945   11.2799   -8.7780 H       1  UNL1        0.0621
     42 H           4.9928   13.4363   -8.7679 H       1  UNL1        0.0618
     43 H           2.5237   13.4940   -9.0149 H       1  UNL1        0.0618
     44 H           1.2385   11.3706   -9.0621 H       1  UNL1        0.0618
     45 H           2.3771    9.2515   -8.8234 H       1  UNL1        0.0621
     46 H           2.9872    3.7790  -14.7584 H       1  UNL1        0.0624
     47 H           2.8897    2.2499  -16.6442 H       1  UNL1        0.0636
@<TRIPOS>BOND
     1     1     2    1
     2     2     3    1
     3     2     4    1
     4     4     5   ar
     5     5     6   ar
     6     6     7   ar
     7     7     8    1
     8     8     9    2
     9     9    10    1
    10    10    11   am
    11    11    12    2
    12    11    13    1
    13    13    14    1
    14    15    17    1
    15    17    18   ar
    16    18    19   ar
    17    19    20   ar
    18    20    21   ar
    19    21    22   ar
    20    17    22   ar
    21     7    23   ar
    22    23    24   ar
    23     4    24   ar
    24    15    16    1
    25    15    14    1
    26     1    25    1
    27     1    26    1
    28     1    27    1
    29     3    28    1
    30     3    29    1
    31     3    30    1
    32     5    31    1
    33     6    32    1
    34     8    33    1
    35    10    34    1
    36    13    35    1
    37    13    36    1
    38    14    37    1
    39    14    38    1
    40    15    39    1
    41    16    40    1
    42    18    41    1
    43    19    42    1
    44    20    43    1
    45    21    44    1
    46    22    45    1
    47    23    46    1
    48    24    47    1
