@<TRIPOS>MOLECULE
*****
 69 73 0 0 0
SMALL
GASTEIGER

@<TRIPOS>ATOM
      1 C           3.0681    0.6473    1.2092 C.3     1  UNL1        0.0122
      2 C           4.5252    0.9542    0.9985 C.2     1  UNL1        0.2104
      3 O           5.0836    1.8756    1.5908 O.2     1  UNL1       -0.2761
      4 N           5.2182    0.2228    0.0834 N.am    1  UNL1       -0.3043
      5 C           4.8073   -1.0047   -0.5986 C.3     1  UNL1        0.1138
      6 C           5.3856   -1.2206   -2.0415 C.3     1  UNL1        0.2231
      7 O           5.0601   -0.2095   -3.0312 O.3     1  UNL1       -0.4616
      8 C           5.2011    1.0724   -2.5604 C.ar    1  UNL1        0.1242
      9 C           6.4437    1.6581   -2.3530 C.ar    1  UNL1       -0.0195
     10 C           6.5076    2.8097   -1.5537 C.ar    1  UNL1       -0.0546
     11 C           5.3417    3.4334   -1.0176 C.ar    1  UNL1       -0.0406
     12 C           4.0938    2.8543   -1.2878 C.ar    1  UNL1       -0.0404
     13 C           4.0349    1.6978   -2.0962 C.ar    1  UNL1       -0.0164
     14 C           2.8322    3.3805   -0.6284 C.3     1  UNL1       -0.0270
     15 C           3.0329    4.5208    0.4257 C.3     1  UNL1       -0.0454
     16 C           4.0364    5.5918   -0.1876 C.3     1  UNL1       -0.0302
     17 C           4.0708    7.2309    0.3980 C.3     1  UNL1       -0.0252
     18 C           3.9584    8.9453   -0.2339 C.3     1  UNL1       -0.0424
     19 C           4.4993    9.0285   -1.6035 C.3     1  UNL1        0.0067
     20 C           5.4884    7.9664   -1.2715 C.2     1  UNL1        0.1395
     21 O           6.0232    7.4143   -2.1954 O.2     1  UNL1       -0.2968
     22 C           5.5392    7.5505    0.3713 C.3     1  UNL1        0.0293
     23 C           5.6266    8.4687    1.6773 C.3     1  UNL1       -0.0526
     24 C           6.7124    6.6369    0.4779 C.3     1  UNL1       -0.0401
     25 C           6.6436    5.4376   -0.4045 C.3     1  UNL1       -0.0450
     26 C           5.3990    4.6695   -0.0885 C.3     1  UNL1       -0.0124
     27 O           4.8637   -2.4924   -2.5111 O.3     1  UNL1       -0.3318
     28 C           5.3471   -3.6157   -1.7569 C.3     1  UNL1        0.1140
     29 C           4.7707   -4.9210   -2.3415 C.3     1  UNL1        0.0731
     30 O           5.2513   -6.0959   -1.6993 O.3     1  UNL1       -0.3924
     31 C           4.9844   -3.5155   -0.2684 C.3     1  UNL1        0.1113
     32 O           5.7049   -4.4874    0.4970 O.3     1  UNL1       -0.3865
     33 C           5.3125   -2.1415    0.2891 C.3     1  UNL1        0.1076
     34 O           4.7969   -2.0245    1.6227 O.3     1  UNL1       -0.3871
     35 H           2.6059    1.4916    1.7301 H       1  UNL1        0.0322
     36 H           2.9502   -0.2412    1.8185 H       1  UNL1        0.0322
     37 H           2.5395    0.5107    0.2599 H       1  UNL1        0.0322
     38 H           6.1568    0.5730   -0.0659 H       1  UNL1        0.1493
     39 H           3.7127   -1.0319   -0.6505 H       1  UNL1        0.0587
     40 H           6.4793   -1.3015   -2.0201 H       1  UNL1        0.1076
     41 H           7.3634    1.2039   -2.7151 H       1  UNL1        0.0654
     42 H           7.5036    3.1804   -1.3163 H       1  UNL1        0.0622
     43 H           3.0952    1.1663   -2.2210 H       1  UNL1        0.0657
     44 H           2.2934    2.5507   -0.1644 H       1  UNL1        0.0313
     45 H           2.1733    3.7332   -1.4220 H       1  UNL1        0.0313
     46 H           3.4364    4.0478    1.3456 H       1  UNL1        0.0271
     47 H           2.0547    4.9079    0.7164 H       1  UNL1        0.0271
     48 H           3.7633    5.6772   -1.2409 H       1  UNL1        0.0310
     49 H           3.5574    7.2362    1.3713 H       1  UNL1        0.0313
     50 H           4.7929    9.6078    0.1596 H       1  UNL1        0.0272
     51 H           3.1890    9.6336    0.1286 H       1  UNL1        0.0272
     52 H           5.1277    9.8812   -1.9120 H       1  UNL1        0.0342
     53 H           3.6877    8.8704   -2.3035 H       1  UNL1        0.0342
     54 H           4.6807    8.9892    1.9447 H       1  UNL1        0.0239
     55 H           6.3861    9.2376    1.5699 H       1  UNL1        0.0239
     56 H           5.7690    7.8745    2.5885 H       1  UNL1        0.0239
     57 H           6.8602    6.3145    1.5139 H       1  UNL1        0.0275
     58 H           7.5827    7.2310    0.1862 H       1  UNL1        0.0275
     59 H           7.5752    4.8903   -0.2476 H       1  UNL1        0.0271
     60 H           6.6238    5.6180   -1.4748 H       1  UNL1        0.0271
     61 H           5.5307    4.2939    0.9446 H       1  UNL1        0.0352
     62 H           6.4382   -3.6556   -1.8618 H       1  UNL1        0.0647
     63 H           5.0094   -5.0031   -3.4044 H       1  UNL1        0.0584
     64 H           3.6779   -4.9215   -2.2581 H       1  UNL1        0.0584
     65 H           6.2177   -6.0390   -1.6184 H       1  UNL1        0.2095
     66 H           3.9144   -3.7094   -0.1202 H       1  UNL1        0.0646
     67 H           6.6494   -4.2565    0.4869 H       1  UNL1        0.2100
     68 H           6.4011   -2.0425    0.3912 H       1  UNL1        0.0641
     69 H           3.8291   -2.1012    1.5824 H       1  UNL1        0.2100
@<TRIPOS>BOND
     1     1     2    1
     2     2     3    2
     3     2     4   am
     4     5     6    1
     5     6     7    1
     6     8     9   ar
     7     9    10   ar
     8    10    11   ar
     9    11    12   ar
    10    12    13   ar
    11     8    13   ar
    12    12    14    1
    13    14    15    1
    14    15    16    1
    15    16    17    1
    16    17    18    1
    17    18    19    1
    18    19    20    1
    19    20    22    1
    20    17    22    1
    21    22    24    1
    22    24    25    1
    23    25    26    1
    24    11    26    1
    25    16    26    1
    26     6    27    1
    27    27    28    1
    28    28    29    1
    29    29    30    1
    30    28    31    1
    31    31    32    1
    32    31    33    1
    33     5    33    1
    34    33    34    1
    35     7     8    1
    36    20    21    2
    37    22    23    1
    38     5     4    1
    39     1    35    1
    40     1    36    1
    41     1    37    1
    42     4    38    1
    43     5    39    1
    44     6    40    1
    45     9    41    1
    46    10    42    1
    47    13    43    1
    48    14    44    1
    49    14    45    1
    50    15    46    1
    51    15    47    1
    52    16    48    1
    53    17    49    1
    54    18    50    1
    55    18    51    1
    56    19    52    1
    57    19    53    1
    58    23    54    1
    59    23    55    1
    60    23    56    1
    61    24    57    1
    62    24    58    1
    63    25    59    1
    64    25    60    1
    65    26    61    1
    66    28    62    1
    67    29    63    1
    68    29    64    1
    69    30    65    1
    70    31    66    1
    71    32    67    1
    72    33    68    1
    73    34    69    1
