REMARK  3 active torsions:
REMARK  status: ('A' for Active; 'I' for Inactive)
REMARK    1  A    between atoms: C_2  and  O_4 
REMARK    2  A    between atoms: O_4  and  N_5 
REMARK       I    between atoms: N_5  and  C_6 
REMARK       I    between atoms: C_6  and  N_8 
REMARK    3  A    between atoms: N_8  and  C_9 
ROOT
ATOM      1  C   UNL d   1       7.165  -0.361   3.764  0.00  0.00     0.047 A 
ATOM      2  C   UNL d   1       6.787  -1.292   4.741  0.00  0.00     0.030 A 
ATOM      3  C   UNL d   1       7.466  -1.386   5.952  0.00  0.00     0.003 A 
ATOM      4  C   UNL d   1       8.541  -0.545   6.212  0.00  0.00     0.012 A 
ATOM      5  C   UNL d   1       8.982   0.368   5.246  0.00  0.00    -0.024 A 
ATOM      6  C   UNL d   1      10.088   1.188   5.534  0.00  0.00     0.012 A 
ATOM      7  C   UNL d   1      10.549   2.116   4.606  0.00  0.00     0.001 A 
ATOM      8  C   UNL d   1       9.904   2.238   3.382  0.00  0.00     0.001 A 
ATOM      9  C   UNL d   1       8.797   1.433   3.082  0.00  0.00     0.014 A 
ATOM     10  C   UNL d   1       8.307   0.468   3.993  0.00  0.00     0.001 A 
ENDROOT
BRANCH   1  11
ATOM     11  N   UNL d   1       6.393  -0.295   2.560  0.00  0.00    -0.306 N 
ATOM     12  C   UNL d   1       4.995  -0.296   2.579  0.00  0.00     0.344 C 
ATOM     13  N   UNL d   1       4.426  -0.219   1.323  0.00  0.00    -0.216 N 
ATOM     14  O   UNL d   1       4.321  -0.348   3.610  0.00  0.00    -0.245 OA
ATOM     15  H   UNL d   1       4.947  -0.116   0.468  0.00  0.00     0.199 HD
ATOM     16  H   UNL d   1       6.849   0.071   1.740  0.00  0.00     0.171 HD
BRANCH  13  17
ATOM     17  O   UNL d   1       3.004  -0.102   1.289  0.00  0.00    -0.272 OA
BRANCH  17  18
ATOM     18  C   UNL d   1       2.509   0.012  -0.055  0.00  0.00     0.144 C 
ATOM     19  C   UNL d   1       0.976  -0.018  -0.036  0.00  0.00     0.042 C 
ATOM     20  C   UNL d   1       2.962   1.325  -0.686  0.00  0.00     0.042 C 
ENDBRANCH  17  18
ENDBRANCH  13  17
ENDBRANCH   1  11
TORSDOF 3
