REMARK  4 active torsions:
REMARK  status: ('A' for Active; 'I' for Inactive)
REMARK       I    between atoms: C_2  and  N_3 
REMARK    1  A    between atoms: C_2  and  C_18 
REMARK    2  A    between atoms: N_3  and  C_4 
REMARK    3  A    between atoms: C_4  and  C_5 
REMARK    4  A    between atoms: C_8  and  N_9 
ROOT
ATOM      1  C   UNL d   1       3.313  -2.801   2.359  0.00  0.00    -0.025 A 
ATOM      2  C   UNL d   1       3.135  -4.190   2.342  0.00  0.00     0.014 A 
ATOM      3  C   UNL d   1       3.981  -5.031   3.084  0.00  0.00     0.049 A 
ATOM      4  C   UNL d   1       4.998  -4.481   3.866  0.00  0.00     0.102 A 
ATOM      5  N   UNL d   1       5.121  -3.144   3.849  0.00  0.00    -0.352 N 
ATOM      6  C   UNL d   1       4.337  -2.310   3.154  0.00  0.00     0.098 A 
ATOM      7  H   UNL d   1       5.896  -2.761   4.375  0.00  0.00     0.166 HD
ENDROOT
BRANCH   1   8
ATOM      8  C   UNL d   1       2.379  -1.868   1.623  0.00  0.00     0.162 C 
BRANCH   8   9
ATOM      9  N   UNL d   1       3.056  -0.825   0.864  0.00  0.00    -0.356 N 
ATOM     10  C   UNL d   1       2.290   0.032   0.083  0.00  0.00     0.224 C 
ATOM     11  O   UNL d   1       1.062  -0.026   0.113  0.00  0.00    -0.273 OA
ATOM     12  H   UNL d   1       4.049  -0.871   0.684  0.00  0.00     0.162 HD
BRANCH  10  13
ATOM     13  C   UNL d   1       3.075   1.053  -0.747  0.00  0.00     0.109 C 
ATOM     14  C   UNL d   1       3.073   2.449  -0.100  0.00  0.00     0.048 C 
ATOM     15  C   UNL d   1       2.305   3.291  -1.130  0.00  0.00     0.122 C 
ATOM     16  C   UNL d   1       3.190   3.564  -2.343  0.00  0.00     0.034 C 
ATOM     17  O   UNL d   1       1.384   2.330  -1.680  0.00  0.00    -0.380 OA
ATOM     18  C   UNL d   1       3.243   2.184  -3.005  0.00  0.00     0.035 C 
ATOM     19  C   UNL d   1       2.361   1.341  -2.077  0.00  0.00     0.135 C 
ENDBRANCH  10  13
ENDBRANCH   8   9
ENDBRANCH   1   8
BRANCH   4  20
ATOM     20  N   UNL d   1       5.906  -5.187   4.618  0.00  0.00    -0.367 N 
ATOM     21  C   UNL d   1       5.904  -5.032   6.077  0.00  0.00     0.124 C 
ATOM     22  C   UNL d   1       7.036  -4.086   6.478  0.00  0.00     0.020 C 
ATOM     23  C   UNL d   1       8.434  -4.696   6.396  0.00  0.00     0.002 C 
ATOM     24  C   UNL d   1       8.780  -5.346   5.054  0.00  0.00     0.002 C 
ATOM     25  C   UNL d   1       7.959  -6.606   4.764  0.00  0.00     0.020 C 
ATOM     26  C   UNL d   1       6.626  -6.331   4.045  0.00  0.00     0.124 C 
ENDBRANCH   4  20
TORSDOF 4
