REMARK  11 active torsions:
REMARK  status: ('A' for Active; 'I' for Inactive)
REMARK    1  A    between atoms: C_8  and  N_9 
REMARK       I    between atoms: N_9  and  C_10 
REMARK    2  A    between atoms: C_10  and  C_12 
REMARK    3  A    between atoms: C_12  and  C_13 
REMARK    4  A    between atoms: C_13  and  C_14 
REMARK       I    between atoms: C_14  and  N_16 
REMARK    5  A    between atoms: N_16  and  N_17 
REMARK    6  A    between atoms: N_17  and  C_18 
REMARK    7  A    between atoms: C_18  and  N_20 
REMARK       I    between atoms: N_20  and  C_21 
REMARK    8  A    between atoms: C_21  and  C_23 
REMARK    9  A    between atoms: C_23  and  O_24 
REMARK   10  A    between atoms: O_24  and  C_25 
REMARK   11  A    between atoms: C_28  and  C_29 
ROOT
ATOM      1  N   UNL d   1      -1.658  10.040  -0.074  0.00  0.00    -0.273 N 
ATOM      2  H   UNL d   1      -2.674  10.100  -0.089  0.00  0.00     0.189 HD
ENDROOT
BRANCH   1   3
ATOM      3  N   UNL d   1      -1.152   8.683  -0.059  0.00  0.00    -0.268 N 
ATOM      4  C   UNL d   1      -2.026   7.609  -0.063  0.00  0.00     0.236 C 
ATOM      5  O   UNL d   1      -3.246   7.754  -0.078  0.00  0.00    -0.272 OA
ATOM      6  H   UNL d   1      -0.133   8.585  -0.047  0.00  0.00     0.190 HD
BRANCH   4   7
ATOM      7  C   UNL d   1      -1.378   6.241  -0.046  0.00  0.00     0.114 C 
BRANCH   7   8
ATOM      8  C   UNL d   1      -2.415   5.051  -0.049  0.00  0.00     0.112 C 
BRANCH   8   9
ATOM      9  C   UNL d   1      -1.616   3.771  -0.027  0.00  0.00     0.222 C 
ATOM     10  N   UNL d   1      -2.223   2.522  -0.027  0.00  0.00    -0.327 N 
ATOM     11  H   UNL d   1      -3.239   2.504  -0.040  0.00  0.00     0.169 HD
ATOM     12  O   UNL d   1      -0.405   3.991  -0.007  0.00  0.00    -0.273 OA
BRANCH  10  13
ATOM     13  C   UNL d   1      -1.580   1.205  -0.012  0.00  0.00     0.042 A 
ATOM     14  C   UNL d   1      -2.424   0.066  -0.012  0.00  0.00     0.030 A 
ATOM     15  C   UNL d   1      -1.903  -1.246   0.004  0.00  0.00     0.004 A 
ATOM     16  C   UNL d   1      -0.532  -1.461   0.013  0.00  0.00     0.024 A 
ATOM     17  C   UNL d   1       0.323  -0.373   0.008  0.00  0.00     0.042 A 
ATOM     18  C   UNL d   1      -0.174   0.950   0.003  0.00  0.00    -0.013 A 
ATOM     19 CL   UNL d   1       2.022  -0.734   0.004  0.00  0.00    -0.084 Cl
ATOM     20  C   UNL d   1       0.853   2.031   0.015  0.00  0.00     0.052 C 
ENDBRANCH  10  13
ENDBRANCH   8   9
ENDBRANCH   7   8
ENDBRANCH   4   7
ENDBRANCH   1   3
BRANCH   1  21
ATOM     21  C   UNL d   1      -0.752  11.113  -0.075  0.00  0.00     0.193 C 
ATOM     22  S   UNL d   1       0.905  10.786  -0.052  0.00  0.00    -0.039 SA
BRANCH  21  23
ATOM     23  N   UNL d   1      -1.336  12.406  -0.097  0.00  0.00    -0.301 N 
ATOM     24  C   UNL d   1      -0.629  13.632  -0.108  0.00  0.00     0.248 C 
ATOM     25  O   UNL d   1       0.601  13.691  -0.071  0.00  0.00    -0.271 OA
ATOM     26  H   UNL d   1      -2.345  12.457  -0.109  0.00  0.00     0.171 HD
BRANCH  24  27
ATOM     27  C   UNL d   1      -1.426  14.960  -0.148  0.00  0.00     0.278 C 
BRANCH  27  28
ATOM     28  O   UNL d   1      -0.456  16.021  -0.298  0.00  0.00    -0.342 OA
BRANCH  28  29
ATOM     29  C   UNL d   1      -0.852  17.317  -0.152  0.00  0.00     0.069 A 
ATOM     30  C   UNL d   1      -0.151  18.275  -0.892  0.00  0.00     0.037 A 
ATOM     31  C   UNL d   1      -0.445  19.640  -0.762  0.00  0.00     0.011 A 
ATOM     32  C   UNL d   1      -1.488  20.073   0.071  0.00  0.00    -0.050 A 
ATOM     33  C   UNL d   1      -2.139  19.097   0.844  0.00  0.00     0.011 A 
ATOM     34  C   UNL d   1      -1.822  17.740   0.741  0.00  0.00     0.037 A 
BRANCH  32  35
ATOM     35  C   UNL d   1      -1.929  21.545   0.081  0.00  0.00    -0.024 C 
ATOM     36  C   UNL d   1      -0.779  22.459   0.542  0.00  0.00     0.019 C 
ATOM     37  C   UNL d   1      -2.357  21.955  -1.345  0.00  0.00     0.019 C 
ATOM     38  C   UNL d   1      -3.136  21.787   1.013  0.00  0.00     0.019 C 
ENDBRANCH  32  35
ENDBRANCH  28  29
ENDBRANCH  27  28
ENDBRANCH  24  27
ENDBRANCH  21  23
ENDBRANCH   1  21
TORSDOF 11
