@<TRIPOS>MOLECULE
*****
 41 44 0 0 0
SMALL
GASTEIGER

@<TRIPOS>ATOM
      1 N          -1.8944   -2.2085    0.0196 N.pl3   1  UNL1       -0.3575
      2 C          -1.4398   -0.8981   -0.0344 C.ar    1  UNL1        0.0324
      3 C          -2.4448    0.0882   -0.0501 C.ar    1  UNL1       -0.0404
      4 C          -2.1057    1.4024   -0.0208 C.ar    1  UNL1       -0.0594
      5 C          -0.7733    1.6890    0.0849 C.ar    1  UNL1       -0.0521
      6 C           0.2957    0.8244   -0.0168 C.ar    1  UNL1        0.0051
      7 C           1.6191    1.3302   -0.0352 C.ar    1  UNL1        0.0412
      8 N           1.9715    2.7474   -0.0632 N.am    1  UNL1       -0.2847
      9 C           1.1972    3.9476   -0.1421 C.2     1  UNL1        0.2209
     10 O           0.0407    4.1761   -0.3596 O.2     1  UNL1       -0.2751
     11 C           2.0076    5.1609    0.0729 C.3     1  UNL1        0.0432
     12 C           1.6129    6.5818    0.3720 C.3     1  UNL1       -0.0338
     13 C           1.9073    6.2192   -1.0507 C.3     1  UNL1       -0.0040
     14 C           0.7540    6.3934   -2.0825 C.ar    1  UNL1       -0.0435
     15 C           1.0284    6.2888   -3.4589 C.ar    1  UNL1       -0.0583
     16 C           0.0946    6.6600   -4.4396 C.ar    1  UNL1       -0.0615
     17 C          -1.1908    7.0459   -4.0766 C.ar    1  UNL1       -0.0617
     18 C          -1.5253    7.1040   -2.7315 C.ar    1  UNL1       -0.0615
     19 C          -0.5657    6.7885   -1.7575 C.ar    1  UNL1       -0.0583
     20 C           2.6585    0.3687   -0.0112 C.ar    1  UNL1       -0.0399
     21 C           2.3709   -1.0125   -0.0109 C.ar    1  UNL1       -0.0594
     22 C           1.0430   -1.4614   -0.0295 C.ar    1  UNL1       -0.0522
     23 C          -0.0384   -0.5490   -0.0374 C.ar    1  UNL1        0.0045
     24 H          -2.8934   -2.3663    0.0146 H       1  UNL1        0.1423
     25 H          -1.2623   -2.9878   -0.0052 H       1  UNL1        0.1423
     26 H          -3.5004   -0.1500   -0.0373 H       1  UNL1        0.0636
     27 H          -2.8020    2.2320    0.0026 H       1  UNL1        0.0618
     28 H          -0.6162    2.6770    0.4070 H       1  UNL1        0.0624
     29 H           2.9694    2.9033   -0.0300 H       1  UNL1        0.1548
     30 H           2.7572    4.9671    0.8282 H       1  UNL1        0.0400
     31 H           2.3640    7.1625    0.9027 H       1  UNL1        0.0279
     32 H           0.6176    6.8481    0.6942 H       1  UNL1        0.0279
     33 H           2.8744    6.4861   -1.4631 H       1  UNL1        0.0356
     34 H           2.0056    5.9410   -3.7825 H       1  UNL1        0.0620
     35 H           0.3825    6.6682   -5.4877 H       1  UNL1        0.0618
     36 H          -1.9270    7.2939   -4.8364 H       1  UNL1        0.0618
     37 H          -2.5227    7.4162   -2.4295 H       1  UNL1        0.0618
     38 H          -0.8828    6.8567   -0.7209 H       1  UNL1        0.0620
     39 H           3.7112    0.6506    0.0071 H       1  UNL1        0.0636
     40 H           3.1752   -1.7511   -0.0058 H       1  UNL1        0.0618
     41 H           0.8549   -2.5332   -0.0337 H       1  UNL1        0.0624
@<TRIPOS>BOND
     1     1     2    1
     2     2     3   ar
     3     3     4   ar
     4     4     5   ar
     5     5     6   ar
     6     6     7   ar
     7     7     8    1
     8     8     9   am
     9     9    10    2
    10     9    11    1
    11    11    12    1
    12    12    13    1
    13    11    13    1
    14    13    14    1
    15    14    15   ar
    16    15    16   ar
    17    16    17   ar
    18    17    18   ar
    19    18    19   ar
    20    14    19   ar
    21     7    20   ar
    22    20    21   ar
    23    21    22   ar
    24    22    23   ar
    25     2    23   ar
    26     6    23   ar
    27     1    24    1
    28     1    25    1
    29     3    26    1
    30     4    27    1
    31     5    28    1
    32     8    29    1
    33    11    30    1
    34    12    31    1
    35    12    32    1
    36    13    33    1
    37    15    34    1
    38    16    35    1
    39    17    36    1
    40    18    37    1
    41    19    38    1
    42    20    39    1
    43    21    40    1
    44    22    41    1
