REMARK  4 active torsions:
REMARK  status: ('A' for Active; 'I' for Inactive)
REMARK    1  A    between atoms: O_2  and  C_3 
REMARK    2  A    between atoms: C_6  and  N_7 
REMARK       I    between atoms: N_7  and  C_8 
REMARK       I    between atoms: C_8  and  N_10 
REMARK    3  A    between atoms: N_10  and  C_11 
REMARK    4  A    between atoms: C_16  and  O_17 
ROOT
ATOM      1  N   UNL d   1       5.659   2.784   3.873  0.00  0.00    -0.308 N 
ATOM      2  C   UNL d   1       7.028   3.112   3.845  0.00  0.00     0.325 C 
ATOM      3  O   UNL d   1       7.886   2.544   3.163  0.00  0.00    -0.247 OA
ATOM      4  N   UNL d   1       7.334   4.278   4.574  0.00  0.00    -0.306 N 
ATOM      5  H   UNL d   1       5.191   2.957   4.751  0.00  0.00     0.170 HD
ATOM      6  H   UNL d   1       7.192   4.196   5.572  0.00  0.00     0.171 HD
ENDROOT
BRANCH   1   7
ATOM      7  C   UNL d   1       4.862   2.132   2.843  0.00  0.00     0.042 A 
ATOM      8  C   UNL d   1       3.617   1.574   3.224  0.00  0.00     0.033 A 
ATOM      9  C   UNL d   1       2.781   0.876   2.310  0.00  0.00     0.039 A 
ATOM     10  C   UNL d   1       3.143   0.752   0.977  0.00  0.00     0.068 A 
ATOM     11  C   UNL d   1       4.316   1.363   0.564  0.00  0.00     0.045 A 
ATOM     12  C   UNL d   1       5.171   2.056   1.464  0.00  0.00    -0.033 A 
ATOM     13  C   UNL d   1       6.331   2.708   0.778  0.00  0.00     0.050 C 
BRANCH  10  14
ATOM     14  O   UNL d   1       2.512   0.001   0.026  0.00  0.00    -0.356 OA
ATOM     15  C   UNL d   1       1.092  -0.019   0.063  0.00  0.00     0.210 C 
ENDBRANCH  10  14
ENDBRANCH   1   7
BRANCH   4  16
ATOM     16  C   UNL d   1       8.479   5.057   4.174  0.00  0.00     0.069 A 
ATOM     17  C   UNL d   1       9.629   5.074   4.993  0.00  0.00     0.032 A 
ATOM     18  C   UNL d   1      10.754   5.855   4.662  0.00  0.00     0.002 A 
ATOM     19  C   UNL d   1      10.766   6.599   3.489  0.00  0.00     0.003 A 
ATOM     20  C   UNL d   1       9.644   6.579   2.663  0.00  0.00     0.039 A 
ATOM     21  C   UNL d   1       8.492   5.833   2.993  0.00  0.00     0.095 A 
BRANCH  21  22
ATOM     22  O   UNL d   1       7.498   6.024   2.066  0.00  0.00    -0.354 OA
ATOM     23  C   UNL d   1       6.176   5.632   2.367  0.00  0.00     0.210 C 
ENDBRANCH  21  22
ENDBRANCH   4  16
TORSDOF 4
