@<TRIPOS>MOLECULE
*****
 64 67 0 0 0
SMALL
GASTEIGER

@<TRIPOS>ATOM
      1 C           1.1749   -0.0474    0.0935 C.3     1  UNL1        0.0820
      2 O           2.6147   -0.0757    0.1532 O.3     1  UNL1       -0.4644
      3 C           3.1622    0.4980    1.2588 C.2     1  UNL1        0.3390
      4 O           2.5346    1.0349    2.1695 O.2     1  UNL1       -0.2450
      5 C           4.6596    0.4603    1.2524 C.ar    1  UNL1        0.0609
      6 C           5.4423    0.3051    2.3706 C.ar    1  UNL1       -0.0459
      7 C           6.8431    0.4838    2.2637 C.ar    1  UNL1       -0.0381
      8 C           7.5188    0.7955    1.0375 C.ar    1  UNL1        0.0516
      9 N           8.9113    0.8172    1.0446 N.pl3   1  UNL1       -0.3183
     10 C           9.7226    1.9723    0.6651 C.3     1  UNL1        0.0525
     11 C          10.6532    1.5699   -0.5025 C.3     1  UNL1       -0.0160
     12 N          11.4901    0.3392   -0.1581 N.4     1  UNL1        0.2353
     13 C          12.3337   -0.0852   -1.3283 C.3     1  UNL1       -0.0430
     14 C          10.6125   -0.8204    0.3534 C.3     1  UNL1       -0.0160
     15 C           9.6871   -0.3534    1.5064 C.3     1  UNL1        0.0525
     16 C           6.6946    0.9985   -0.1078 C.ar    1  UNL1        0.0547
     17 N           7.1900    1.4005   -1.4281 N.am    1  UNL1       -0.2951
     18 C           6.4357    1.6784   -2.6113 C.2     1  UNL1        0.1411
     19 S           4.7595    1.5934   -2.7850 S.2     1  UNL1       -0.0182
     20 N           7.2004    2.0517   -3.7364 N.am    1  UNL1       -0.2636
     21 C           6.6070    2.3703   -4.9787 C.2     1  UNL1        0.2495
     22 O           5.4223    2.2981   -5.2933 O.2     1  UNL1       -0.2698
     23 C           7.4127    2.7995   -6.1086 C.ar    1  UNL1        0.0371
     24 C           6.8569    3.7840   -6.9457 C.ar    1  UNL1       -0.0490
     25 C           7.4407    4.0523   -8.1731 C.ar    1  UNL1       -0.0533
     26 C           8.6224    3.3954   -8.5383 C.ar    1  UNL1       -0.0178
     27 C           9.3326    3.7931   -9.7514 C.ar    1  UNL1       -0.0179
     28 C           9.7873    5.1143   -9.9042 C.ar    1  UNL1       -0.0540
     29 C          10.4046    5.5212  -11.0854 C.ar    1  UNL1       -0.0612
     30 C          10.6490    4.5922  -12.0930 C.ar    1  UNL1       -0.0617
     31 C          10.2305    3.2714  -11.9423 C.ar    1  UNL1       -0.0612
     32 C           9.5670    2.8763  -10.7820 C.ar    1  UNL1       -0.0540
     33 C           9.1225    2.3691   -7.7143 C.ar    1  UNL1       -0.0533
     34 C           8.5134    2.0561   -6.5038 C.ar    1  UNL1       -0.0490
     35 C           5.3164    0.7745    0.0765 C.ar    1  UNL1       -0.0247
     36 H           0.8397   -0.5740   -0.8084 H       1  UNL1        0.0661
     37 H           0.7992    0.9808    0.0399 H       1  UNL1        0.0661
     38 H           0.7505   -0.5646    0.9596 H       1  UNL1        0.0661
     39 H           4.9672    0.0512    3.3138 H       1  UNL1        0.0626
     40 H           7.4079    0.4245    3.1941 H       1  UNL1        0.0637
     41 H          10.3505    2.2657    1.5195 H       1  UNL1        0.0516
     42 H           9.1124    2.8410    0.4041 H       1  UNL1        0.0516
     43 H          11.3414    2.3789   -0.7608 H       1  UNL1        0.0830
     44 H          10.0809    1.2865   -1.3887 H       1  UNL1        0.0830
     45 H          12.1243    0.6022    0.6084 H       1  UNL1        0.2032
     46 H          11.6692   -0.3830   -2.1452 H       1  UNL1        0.0778
     47 H          12.9635   -0.9195   -1.0126 H       1  UNL1        0.0778
     48 H          12.9516    0.7658   -1.6273 H       1  UNL1        0.0778
     49 H          11.2942   -1.6125    0.6785 H       1  UNL1        0.0830
     50 H          10.0179   -1.1618   -0.5010 H       1  UNL1        0.0830
     51 H          10.3109   -0.0732    2.3674 H       1  UNL1        0.0516
     52 H           9.0534   -1.1897    1.8213 H       1  UNL1        0.0516
     53 H           8.1765    1.5690   -1.4454 H       1  UNL1        0.1539
     54 H           8.1959    2.1847   -3.6636 H       1  UNL1        0.1568
     55 H           5.9341    4.2969   -6.6677 H       1  UNL1        0.0625
     56 H           6.9597    4.7546   -8.8537 H       1  UNL1        0.0624
     57 H           9.6629    5.8358   -9.0981 H       1  UNL1        0.0624
     58 H          10.6861    6.5619  -11.2224 H       1  UNL1        0.0618
     59 H          11.1644    4.8987  -12.9991 H       1  UNL1        0.0618
     60 H          10.4014    2.5510  -12.7370 H       1  UNL1        0.0618
     61 H           9.2201    1.8499  -10.6885 H       1  UNL1        0.0624
     62 H           9.9873    1.7944   -8.0346 H       1  UNL1        0.0624
     63 H           8.8513    1.2045   -5.9259 H       1  UNL1        0.0625
     64 H           4.6048    0.8412   -0.7057 H       1  UNL1        0.0645
@<TRIPOS>UNITY_ATOM_ATTR
12 1
charge 1
@<TRIPOS>BOND
     1     1     2    1
     2     2     3    1
     3     3     4    2
     4     3     5    1
     5     5     6   ar
     6     6     7   ar
     7     7     8   ar
     8     8     9    1
     9     9    10    1
    10    10    11    1
    11    11    12    1
    12    12    13    1
    13    12    14    1
    14    14    15    1
    15     9    15    1
    16     8    16   ar
    17    16    17    1
    18    17    18    1
    19    18    19    2
    20    18    20    1
    21    20    21   am
    22    21    22    2
    23    21    23    1
    24    23    24   ar
    25    24    25   ar
    26    25    26   ar
    27    26    27    1
    28    27    28   ar
    29    28    29   ar
    30    29    30   ar
    31    30    31   ar
    32    31    32   ar
    33    27    32   ar
    34    26    33   ar
    35    33    34   ar
    36    23    34   ar
    37    16    35   ar
    38     5    35   ar
    39     1    36    1
    40     1    37    1
    41     1    38    1
    42     6    39    1
    43     7    40    1
    44    10    41    1
    45    10    42    1
    46    11    43    1
    47    11    44    1
    48    12    45    1
    49    13    46    1
    50    13    47    1
    51    13    48    1
    52    14    49    1
    53    14    50    1
    54    15    51    1
    55    15    52    1
    56    17    53    1
    57    20    54    1
    58    24    55    1
    59    25    56    1
    60    28    57    1
    61    29    58    1
    62    30    59    1
    63    31    60    1
    64    32    61    1
    65    33    62    1
    66    34    63    1
    67    35    64    1
