@<TRIPOS>MOLECULE
*****
 41 41 0 0 0
SMALL
GASTEIGER

@<TRIPOS>ATOM
      1 C           1.1587   -0.0791   -0.0541 C.3     1  UNL1        0.0015
      2 N           2.6163   -0.0292   -0.1230 N.am    1  UNL1       -0.3022
      3 C           3.2083    0.7214   -1.1214 C.2     1  UNL1        0.3057
      4 O           2.4953    1.3215   -1.9255 O.2     1  UNL1       -0.2524
      5 N           4.5921    0.7324   -1.1378 N.am    1  UNL1       -0.2389
      6 C           5.3162    1.4564   -2.0922 C.2     1  UNL1        0.2375
      7 O           4.7946    2.1146   -2.9976 O.2     1  UNL1       -0.2736
      8 C           6.8702    1.4045   -2.0140 C.3     1  UNL1        0.0862
      9 N           7.4677    2.3293   -2.9985 N.pl3   1  UNL1       -0.3354
     10 C           8.8037    2.3879   -3.3487 C.ar    1  UNL1        0.0275
     11 C           9.3692    3.6105   -3.7408 C.ar    1  UNL1       -0.0401
     12 C          10.7274    3.7155   -4.0996 C.ar    1  UNL1       -0.0479
     13 C          11.5782    2.6033   -4.0246 C.ar    1  UNL1        0.0368
     14 C          13.0426    2.7925   -4.2974 C.2     1  UNL1        0.2443
     15 O          13.4485    3.9020   -4.6447 O.2     1  UNL1       -0.2702
     16 N          13.8977    1.7173   -4.1041 N.am    1  UNL1       -0.3090
     17 C          15.3475    1.8301   -4.2720 C.3     1  UNL1        0.0178
     18 C          15.9530    2.8176   -3.2736 C.3     1  UNL1       -0.0469
     19 C          16.0301    0.4705   -4.0943 C.3     1  UNL1       -0.0469
     20 C          11.0186    1.3803   -3.6491 C.ar    1  UNL1       -0.0479
     21 C           9.6556    1.2835   -3.3110 C.ar    1  UNL1       -0.0401
     22 H           0.8366   -0.7054    0.7824 H       1  UNL1        0.0426
     23 H           0.7575   -0.4900   -0.9875 H       1  UNL1        0.0426
     24 H           0.7585    0.9326    0.0777 H       1  UNL1        0.0426
     25 H           3.1391   -0.5422    0.5696 H       1  UNL1        0.1499
     26 H           5.0817    0.2116   -0.4279 H       1  UNL1        0.1591
     27 H           7.1929    0.3737   -2.1833 H       1  UNL1        0.0557
     28 H           7.1888    1.7379   -1.0220 H       1  UNL1        0.0557
     29 H           6.7999    2.7285   -3.6659 H       1  UNL1        0.1466
     30 H           8.7651    4.5172   -3.7291 H       1  UNL1        0.0636
     31 H          11.1175    4.6804   -4.4245 H       1  UNL1        0.0626
     32 H          13.5355    0.8163   -3.8365 H       1  UNL1        0.1493
     33 H          15.5293    2.1885   -5.2923 H       1  UNL1        0.0493
     34 H          15.7712    2.4911   -2.2440 H       1  UNL1        0.0247
     35 H          15.5265    3.8184   -3.3793 H       1  UNL1        0.0247
     36 H          17.0339    2.9082   -3.4224 H       1  UNL1        0.0247
     37 H          15.8667    0.0742   -3.0849 H       1  UNL1        0.0247
     38 H          17.1125    0.5553   -4.2468 H       1  UNL1        0.0247
     39 H          15.6465   -0.2677   -4.8057 H       1  UNL1        0.0247
     40 H          11.6064    0.4722   -3.6128 H       1  UNL1        0.0626
     41 H           9.2688    0.3056   -3.0470 H       1  UNL1        0.0636
@<TRIPOS>BOND
     1     1     2    1
     2     2     3   am
     3     3     4    2
     4     3     5   am
     5     5     6   am
     6     6     7    2
     7     6     8    1
     8     8     9    1
     9     9    10    1
    10    10    11   ar
    11    11    12   ar
    12    12    13   ar
    13    13    14    1
    14    14    15    2
    15    14    16   am
    16    16    17    1
    17    17    18    1
    18    17    19    1
    19    13    20   ar
    20    20    21   ar
    21    10    21   ar
    22     1    22    1
    23     1    23    1
    24     1    24    1
    25     2    25    1
    26     5    26    1
    27     8    27    1
    28     8    28    1
    29     9    29    1
    30    11    30    1
    31    12    31    1
    32    16    32    1
    33    17    33    1
    34    18    34    1
    35    18    35    1
    36    18    36    1
    37    19    37    1
    38    19    38    1
    39    19    39    1
    40    20    40    1
    41    21    41    1
