REMARK  14 active torsions:
REMARK  status: ('A' for Active; 'I' for Inactive)
REMARK    1  A    between atoms: C_2  and  N_3 
REMARK       I    between atoms: N_3  and  C_4 
REMARK    2  A    between atoms: N_3  and  C_32 
REMARK    3  A    between atoms: C_4  and  C_6 
REMARK    4  A    between atoms: C_9  and  N_10 
REMARK    5  A    between atoms: N_10  and  C_11 
REMARK    6  A    between atoms: C_11  and  N_13 
REMARK       I    between atoms: N_13  and  C_14 
REMARK    7  A    between atoms: C_14  and  C_16 
REMARK    8  A    between atoms: C_16  and  C_17 
REMARK    9  A    between atoms: C_17  and  C_18 
REMARK   10  A    between atoms: C_18  and  O_20 
REMARK   11  A    between atoms: O_20  and  C_21 
REMARK   12  A    between atoms: C_21  and  C_22 
REMARK   13  A    between atoms: C_22  and  C_23 
REMARK   14  A    between atoms: C_23  and  C_24 
ROOT
ATOM      1  C   UNL d   1      -4.153   1.246  -0.186  0.00  0.00     0.178 C 
ATOM      2  S   UNL d   1      -3.177   1.935   1.015  0.00  0.00    -0.040 SA
ENDROOT
BRANCH   1   3
ATOM      3  N   UNL d   1      -3.659   0.632  -1.388  0.00  0.00    -0.333 N 
ATOM      4  H   UNL d   1      -4.289   0.067  -1.950  0.00  0.00     0.168 HD
BRANCH   3   5
ATOM      5  C   UNL d   1      -2.262   0.622  -1.860  0.00  0.00     0.034 C 
ATOM      6  C   UNL d   1      -1.785  -0.195  -2.901  0.00  0.00     0.030 C 
ATOM      7  C   UNL d   1      -0.373  -0.308  -3.153  0.00  0.00     0.019 C 
ATOM      8  C   UNL d   1       0.556   0.502  -2.477  0.00  0.00     0.032 C 
ATOM      9  C   UNL d   1       0.057   1.502  -1.692  0.00  0.00     0.019 C 
ATOM     10  C   UNL d   1      -1.284   1.456  -1.318  0.00  0.00     0.030 C 
BRANCH   8  11
ATOM     11  C   UNL d   1       2.033   0.395  -2.588  0.00  0.00     0.258 C 
ATOM     12  N   UNL d   1       2.876   0.255  -1.438  0.00  0.00    -0.314 N 
ATOM     13  O   UNL d   1       2.440   0.447  -3.751  0.00  0.00    -0.267 OA
BRANCH  12  14
ATOM     14  C   UNL d   1       2.497  -0.013  -0.008  0.00  0.00     0.128 C 
ATOM     15  C   UNL d   1       1.048  -0.223   0.370  0.00  0.00     0.027 C 
ENDBRANCH  12  14
BRANCH  12  16
ATOM     16  C   UNL d   1       4.317   0.284  -1.666  0.00  0.00     0.037 A 
ATOM     17  C   UNL d   1       4.889   1.190  -2.572  0.00  0.00     0.029 A 
ATOM     18  C   UNL d   1       6.245   1.112  -2.919  0.00  0.00     0.002 A 
ATOM     19  C   UNL d   1       7.072   0.173  -2.311  0.00  0.00     0.000 A 
ATOM     20  C   UNL d   1       6.540  -0.693  -1.363  0.00  0.00     0.002 A 
ATOM     21  C   UNL d   1       5.179  -0.631  -1.038  0.00  0.00     0.029 A 
ENDBRANCH  12  16
ENDBRANCH   8  11
ENDBRANCH   3   5
ENDBRANCH   1   3
BRANCH   1  22
ATOM     22  N   UNL d   1      -5.566   1.232  -0.001  0.00  0.00    -0.304 N 
ATOM     23  C   UNL d   1      -6.206   1.867   1.092  0.00  0.00     0.224 C 
ATOM     24  O   UNL d   1      -5.630   2.563   1.932  0.00  0.00    -0.273 OA
ATOM     25  H   UNL d   1      -6.146   0.715  -0.648  0.00  0.00     0.171 HD
BRANCH  23  26
ATOM     26  C   UNL d   1      -7.700   1.758   1.292  0.00  0.00     0.113 C 
BRANCH  26  27
ATOM     27  C   UNL d   1      -8.077   2.565   2.583  0.00  0.00     0.120 C 
BRANCH  27  28
ATOM     28  C   UNL d   1      -9.547   2.530   2.865  0.00  0.00     0.259 C 
ATOM     29  O   UNL d   1     -10.357   1.924   2.148  0.00  0.00    -0.265 OA
BRANCH  28  30
ATOM     30  O   UNL d   1      -9.889   3.231   3.984  0.00  0.00    -0.321 OA
BRANCH  30  31
ATOM     31  C   UNL d   1     -11.303   3.208   4.267  0.00  0.00     0.179 C 
BRANCH  31  32
ATOM     32  C   UNL d   1     -11.627   4.010   5.524  0.00  0.00     0.031 C 
BRANCH  32  33
ATOM     33  C   UNL d   1     -13.135   4.000   5.832  0.00  0.00     0.041 C 
BRANCH  33  34
ATOM     34  C   UNL d   1     -13.397   4.781   7.096  0.00  0.00    -0.058 A 
ATOM     35  C   UNL d   1     -13.537   6.174   7.057  0.00  0.00     0.007 A 
ATOM     36  C   UNL d   1     -13.495   6.915   8.239  0.00  0.00     0.001 A 
ATOM     37  C   UNL d   1     -13.407   6.264   9.469  0.00  0.00     0.000 A 
ATOM     38  C   UNL d   1     -13.345   4.873   9.519  0.00  0.00     0.001 A 
ATOM     39  C   UNL d   1     -13.336   4.134   8.338  0.00  0.00     0.007 A 
ENDBRANCH  33  34
ENDBRANCH  32  33
ENDBRANCH  31  32
ENDBRANCH  30  31
ENDBRANCH  28  30
ENDBRANCH  27  28
ENDBRANCH  26  27
ENDBRANCH  23  26
ENDBRANCH   1  22
TORSDOF 14
