@<TRIPOS>MOLECULE
*****
 64 68 0 0 0
SMALL
GASTEIGER

@<TRIPOS>ATOM
      1 C           0.9988   -0.1237   -0.0808 C.3     1  UNL1        0.0007
      2 N           2.4544   -0.0518   -0.1771 N.pl3   1  UNL1       -0.3329
      3 C           3.1628    1.1490   -0.6450 C.3     1  UNL1        0.0133
      4 C           2.2298    2.2514   -1.1641 C.3     1  UNL1       -0.0216
      5 C           2.9816    3.4503   -1.7203 C.3     1  UNL1        0.0130
      6 N           2.0893    4.4964   -2.2242 N.am    1  UNL1       -0.3146
      7 C           2.6362    5.6402   -2.7886 C.2     1  UNL1        0.2231
      8 O           3.8552    5.8075   -2.8190 O.2     1  UNL1       -0.2749
      9 C           1.6340    6.6866   -3.3035 C.3     1  UNL1        0.0755
     10 S           2.5198    8.1674   -4.0136 S.3     1  UNL1       -0.0827
     11 C           1.1876    9.3221   -4.4318 C.3     1  UNL1        0.2383
     12 N           1.5632   10.1675   -5.5685 N.pl3   1  UNL1       -0.1245
     13 N           1.6134   11.5139   -5.3166 N.2     1  UNL1        0.0444
     14 C           1.4111   11.6251   -4.0482 C.2     1  UNL1        0.3482
     15 C           1.5991   12.8326   -3.2325 C.2     1  UNL1        0.1224
     16 C           2.5443   12.9513   -2.2916 C.ar    1  UNL1        0.0627
     17 C           3.4947   12.0613   -1.7100 C.ar    1  UNL1       -0.0476
     18 C           4.3423   12.5351   -0.7841 C.ar    1  UNL1       -0.0608
     19 C           4.3412   13.9318   -0.3770 C.ar    1  UNL1       -0.0555
     20 C           3.5111   14.8545   -0.9025 C.ar    1  UNL1        0.0098
     21 C           2.5580   14.3888   -1.9276 C.ar    1  UNL1        0.2091
     22 N           1.7008   15.0640   -2.6068 N.2     1  UNL1       -0.2363
     23 C           0.9909   14.1628   -3.5537 C.3     1  UNL1        0.1772
     24 N           1.0276   10.3940   -3.4198 N.pl3   1  UNL1       -0.1853
     25 C           0.3040   10.2607   -2.1895 C.3     1  UNL1        0.0944
     26 C          -0.4486    9.0012   -1.8373 C.3     1  UNL1       -0.0100
     27 C           0.8248    9.3351   -1.1230 C.3     1  UNL1       -0.0100
     28 C           3.1793   -1.1105    0.3822 C.ar    1  UNL1        0.0294
     29 C           2.7852   -2.4471    0.1928 C.ar    1  UNL1       -0.0407
     30 C           3.4311   -3.5108    0.8384 C.ar    1  UNL1       -0.0600
     31 C           4.5482   -3.2702    1.6278 C.ar    1  UNL1       -0.0616
     32 C           5.0230   -1.9707    1.7532 C.ar    1  UNL1       -0.0600
     33 C           4.3235   -0.9053    1.1687 C.ar    1  UNL1       -0.0407
     34 H           0.4887    0.7610   -0.4673 H       1  UNL1        0.0428
     35 H           0.6792   -0.2174    0.9628 H       1  UNL1        0.0428
     36 H           0.6011   -0.9580   -0.6653 H       1  UNL1        0.0428
     37 H           3.8408    0.8449   -1.4536 H       1  UNL1        0.0464
     38 H           3.7810    1.5771    0.1521 H       1  UNL1        0.0464
     39 H           1.5848    2.5938   -0.3449 H       1  UNL1        0.0295
     40 H           1.5847    1.8469   -1.9530 H       1  UNL1        0.0295
     41 H           3.6271    3.1400   -2.5489 H       1  UNL1        0.0462
     42 H           3.6161    3.8944   -0.9448 H       1  UNL1        0.0462
     43 H           1.0881    4.3503   -2.1654 H       1  UNL1        0.1487
     44 H           1.0467    6.9578   -2.4288 H       1  UNL1        0.0473
     45 H           0.9802    6.2453   -4.0608 H       1  UNL1        0.0473
     46 H           0.2367    8.8208   -4.6345 H       1  UNL1        0.1142
     47 H           1.2289    9.8753   -6.4852 H       1  UNL1        0.1999
     48 H           3.5306   11.0215   -2.0193 H       1  UNL1        0.0626
     49 H           5.0724   11.8739   -0.3188 H       1  UNL1        0.0618
     50 H           5.0739   14.2099    0.3820 H       1  UNL1        0.0620
     51 H           3.5604   15.8903   -0.5806 H       1  UNL1        0.0683
     52 H           1.5699   16.0672   -2.4886 H       1  UNL1        0.4460
     53 H           1.1889   14.5173   -4.5680 H       1  UNL1        0.1083
     54 H          -0.0736   14.2031   -3.3087 H       1  UNL1        0.1083
     55 H          -0.1260   11.1888   -1.8211 H       1  UNL1        0.0764
     56 H          -0.4986    8.2066   -2.5669 H       1  UNL1        0.0306
     57 H          -1.3646    9.0488   -1.2597 H       1  UNL1        0.0306
     58 H           1.7474    8.8049   -1.3222 H       1  UNL1        0.0306
     59 H           0.7639    9.6593   -0.0899 H       1  UNL1        0.0306
     60 H           1.9786   -2.6887   -0.4939 H       1  UNL1        0.0636
     61 H           3.0658   -4.5270    0.7131 H       1  UNL1        0.0618
     62 H           5.0505   -4.0900    2.1347 H       1  UNL1        0.0618
     63 H           5.9301   -1.7774    2.3198 H       1  UNL1        0.0618
     64 H           4.6762    0.0968    1.3866 H       1  UNL1        0.0636
@<TRIPOS>UNITY_ATOM_ATTR
22 1
charge 1
@<TRIPOS>BOND
     1     1     2    1
     2     2     3    1
     3     3     4    1
     4     4     5    1
     5     5     6    1
     6     6     7   am
     7     7     8    2
     8     7     9    1
     9     9    10    1
    10    10    11    1
    11    11    12    1
    12    12    13    1
    13    13    14    2
    14    14    15    1
    15    15    16    2
    16    16    17   ar
    17    17    18   ar
    18    18    19   ar
    19    19    20   ar
    20    20    21   ar
    21    16    21   ar
    22    21    22    2
    23    22    23    1
    24    15    23    1
    25    14    24    1
    26    11    24    1
    27    24    25    1
    28    25    26    1
    29    26    27    1
    30    25    27    1
    31     2    28    1
    32    28    29   ar
    33    29    30   ar
    34    30    31   ar
    35    31    32   ar
    36    32    33   ar
    37    28    33   ar
    38     1    34    1
    39     1    35    1
    40     1    36    1
    41     3    37    1
    42     3    38    1
    43     4    39    1
    44     4    40    1
    45     5    41    1
    46     5    42    1
    47     6    43    1
    48     9    44    1
    49     9    45    1
    50    11    46    1
    51    12    47    1
    52    17    48    1
    53    18    49    1
    54    19    50    1
    55    20    51    1
    56    22    52    1
    57    23    53    1
    58    23    54    1
    59    25    55    1
    60    26    56    1
    61    26    57    1
    62    27    58    1
    63    27    59    1
    64    29    60    1
    65    30    61    1
    66    31    62    1
    67    32    63    1
    68    33    64    1
