REMARK  4 active torsions:
REMARK  status: ('A' for Active; 'I' for Inactive)
REMARK    1  A    between atoms: C_9  and  N_10 
REMARK       I    between atoms: N_10  and  C_11 
REMARK    2  A    between atoms: C_11  and  C_13 
REMARK       I    between atoms: C_13  and  N_15 
REMARK    3  A    between atoms: N_15  and  C_16 
REMARK    4  A    between atoms: C_16  and  C_18 
ROOT
ATOM      1  C   UNL d   1       1.141   0.382   0.049  0.00  0.00     0.050 C 
ATOM      2  C   UNL d   1       2.609   0.142   0.023  0.00  0.00    -0.035 C 
ATOM      3  C   UNL d   1       3.375   1.320   0.036  0.00  0.00     0.010 C 
ATOM      4  C   UNL d   1       4.735   1.283  -0.191  0.00  0.00     0.023 C 
ATOM      5  C   UNL d   1       5.369   0.048  -0.283  0.00  0.00     0.046 C 
ATOM      6  C   UNL d   1       6.782   0.050  -0.570  0.00  0.00     0.099 C 
ATOM      7  N   UNL d   1       7.906   0.116  -0.834  0.00  0.00    -0.191 NA
ATOM      8  C   UNL d   1       4.621  -1.154  -0.141  0.00  0.00     0.052 C 
ATOM      9  C   UNL d   1       3.203  -1.135  -0.066  0.00  0.00     0.042 C 
ENDROOT
BRANCH   9  10
ATOM     10  N   UNL d   1       2.461  -2.383  -0.124  0.00  0.00    -0.318 N 
ATOM     11  C   UNL d   1       1.068  -2.579  -0.159  0.00  0.00     0.314 C 
ATOM     12  O   UNL d   1       0.137  -1.781  -0.099  0.00  0.00    -0.262 OA
ATOM     13  H   UNL d   1       3.008  -3.238  -0.201  0.00  0.00     0.169 HD
BRANCH  11  14
ATOM     14  C   UNL d   1       0.494  -3.983  -0.290  0.00  0.00     0.310 C 
ATOM     15  O   UNL d   1       1.222  -4.953  -0.389  0.00  0.00    -0.262 OA
ATOM     16  N   UNL d   1      -0.904  -3.946  -0.258  0.00  0.00    -0.345 N 
ATOM     17  H   UNL d   1      -1.286  -3.007  -0.155  0.00  0.00     0.163 HD
BRANCH  16  18
ATOM     18  C   UNL d   1      -1.773  -5.104  -0.271  0.00  0.00     0.114 C 
ATOM     19  C   UNL d   1      -1.422  -5.982   0.926  0.00  0.00     0.037 C 
BRANCH  18  20
ATOM     20  C   UNL d   1      -3.285  -4.815  -0.289  0.00  0.00    -0.036 A 
ATOM     21  C   UNL d   1      -4.190  -5.902  -0.308  0.00  0.00     0.011 A 
ATOM     22  C   UNL d   1      -5.565  -5.713  -0.493  0.00  0.00     0.024 A 
ATOM     23  C   UNL d   1      -6.078  -4.425  -0.542  0.00  0.00     0.034 A 
ATOM     24 CL   UNL d   1      -7.753  -4.175  -0.840  0.00  0.00    -0.084 Cl
ATOM     25  C   UNL d   1      -5.230  -3.335  -0.384  0.00  0.00     0.024 A 
ATOM     26  C   UNL d   1      -3.841  -3.526  -0.323  0.00  0.00     0.011 A 
ENDBRANCH  18  20
ENDBRANCH  16  18
ENDBRANCH  11  14
ENDBRANCH   9  10
TORSDOF 4
