REMARK  9 active torsions:
REMARK  status: ('A' for Active; 'I' for Inactive)
REMARK    1  A    between atoms: S_2  and  C_3 
REMARK    2  A    between atoms: C_3  and  C_4 
REMARK    3  A    between atoms: C_4  and  C_5 
REMARK    4  A    between atoms: C_5  and  N_6 
REMARK    5  A    between atoms: C_5  and  C_19 
REMARK       I    between atoms: N_6  and  C_7 
REMARK    6  A    between atoms: C_7  and  C_9 
REMARK       I    between atoms: C_19  and  N_21 
REMARK    7  A    between atoms: N_21  and  C_22 
REMARK    8  A    between atoms: C_26  and  C_27 
REMARK       I    between atoms: C_27  and  N_29 
REMARK    9  A    between atoms: N_29  and  C_30 
ROOT
ATOM      1  C   UNL d   1       5.487   1.903  -2.569  0.00  0.00     0.178 C 
ENDROOT
BRANCH   1   2
ATOM      2  C   UNL d   1       4.991   1.019  -1.377  0.00  0.00     0.045 C 
BRANCH   2   3
ATOM      3  C   UNL d   1       3.478   0.884  -1.240  0.00  0.00     0.076 C 
BRANCH   3   4
ATOM      4  S   UNL d   1       2.960  -0.199   0.127  0.00  0.00    -0.173 SA
ATOM      5  C   UNL d   1       1.158   0.026  -0.012  0.00  0.00     0.089 C 
ENDBRANCH   3   4
ENDBRANCH   2   3
ENDBRANCH   1   2
BRANCH   1   6
ATOM      6  N   UNL d   1       4.961   3.280  -2.531  0.00  0.00    -0.342 N 
ATOM      7  C   UNL d   1       3.611   3.570  -2.674  0.00  0.00     0.271 C 
ATOM      8  O   UNL d   1       2.757   2.760  -3.038  0.00  0.00    -0.266 OA
ATOM      9  H   UNL d   1       5.583   4.048  -2.297  0.00  0.00     0.163 HD
BRANCH   7  10
ATOM     10  C   UNL d   1       3.163   4.941  -2.331  0.00  0.00     0.125 A 
ATOM     11  C   UNL d   1       2.103   5.138  -1.449  0.00  0.00     0.038 A 
ATOM     12  C   UNL d   1       1.612   6.431  -1.302  0.00  0.00     0.016 A 
ATOM     13  C   UNL d   1       2.174   7.466  -2.060  0.00  0.00    -0.007 A 
ATOM     14  C   UNL d   1       1.696   8.785  -1.990  0.00  0.00     0.014 A 
ATOM     15  C   UNL d   1       3.253   7.150  -2.922  0.00  0.00     0.068 A 
ATOM     16  C   UNL d   1       2.277   9.782  -2.771  0.00  0.00     0.001 A 
ATOM     17  C   UNL d   1       3.328   9.466  -3.627  0.00  0.00     0.002 A 
ATOM     18  C   UNL d   1       3.799   8.155  -3.696  0.00  0.00     0.032 A 
ATOM     19  N   UNL d   1       3.770   5.921  -3.035  0.00  0.00    -0.243 NA
ENDBRANCH   7  10
ENDBRANCH   1   6
BRANCH   1  20
ATOM     20  C   UNL d   1       7.052   1.863  -2.529  0.00  0.00     0.245 C 
ATOM     21  O   UNL d   1       7.640   1.178  -1.687  0.00  0.00    -0.271 OA
ATOM     22  N   UNL d   1       7.738   2.592  -3.495  0.00  0.00    -0.325 N 
ATOM     23  H   UNL d   1       7.233   3.244  -4.084  0.00  0.00     0.169 HD
BRANCH  22  24
ATOM     24  C   UNL d   1       9.156   2.561  -3.598  0.00  0.00     0.035 A 
ATOM     25  C   UNL d   1       9.877   3.706  -3.942  0.00  0.00     0.029 A 
ATOM     26  C   UNL d   1      11.272   3.643  -4.080  0.00  0.00     0.003 A 
ATOM     27  C   UNL d   1      11.948   2.436  -3.866  0.00  0.00     0.017 A 
ATOM     28  C   UNL d   1      11.232   1.271  -3.552  0.00  0.00     0.034 A 
ATOM     29  C   UNL d   1       9.846   1.356  -3.405  0.00  0.00     0.046 A 
BRANCH  28  30
ATOM     30  C   UNL d   1      11.957  -0.028  -3.436  0.00  0.00     0.252 C 
ATOM     31  O   UNL d   1      13.190  -0.021  -3.520  0.00  0.00    -0.268 OA
ATOM     32  N   UNL d   1      11.229  -1.208  -3.248  0.00  0.00    -0.352 N 
ATOM     33  H   UNL d   1      10.238  -1.190  -3.050  0.00  0.00     0.163 HD
BRANCH  32  34
ATOM     34  C   UNL d   1      11.951  -2.420  -3.005  0.00  0.00     0.084 A 
ATOM     35  C   UNL d   1      11.697  -3.867  -3.320  0.00  0.00     0.027 A 
ATOM     36  C   UNL d   1      12.499  -3.053  -4.272  0.00  0.00     0.027 A 
ENDBRANCH  32  34
ENDBRANCH  28  30
ENDBRANCH  22  24
ENDBRANCH   1  20
TORSDOF 9
