REMARK  7 active torsions:
REMARK  status: ('A' for Active; 'I' for Inactive)
REMARK    1  A    between atoms: O_2  and  C_3 
REMARK    2  A    between atoms: C_5  and  C_6 
REMARK    3  A    between atoms: C_13  and  C_14 
REMARK       I    between atoms: C_14  and  N_16 
REMARK    4  A    between atoms: N_16  and  N_17 
REMARK    5  A    between atoms: C_18  and  C_19 
REMARK    6  A    between atoms: C_24  and  O_25 
REMARK    7  A    between atoms: C_29  and  O_30 
ROOT
ATOM      1  C   UNL d   1       6.711   2.186   0.010  0.00  0.00     0.158 C 
ATOM      2  N   UNL d   1       7.271   2.832   1.192  0.00  0.00    -0.354 N 
ATOM      3  C   UNL d   1       8.497   3.400   1.212  0.00  0.00     0.172 C 
ATOM      4  S   UNL d   1       9.230   3.851   2.631  0.00  0.00    -0.041 SA
ATOM      5  N   UNL d   1       9.052   3.660   0.001  0.00  0.00    -0.337 N 
ATOM      6  C   UNL d   1       8.383   3.537  -1.207  0.00  0.00     0.021 C 
ATOM      7  C   UNL d   1       9.026   4.314  -2.325  0.00  0.00     0.069 C 
ATOM      8  C   UNL d   1       7.230   2.817  -1.274  0.00  0.00     0.060 C 
ATOM      9  H   UNL d   1       6.821   2.698   2.089  0.00  0.00     0.163 HD
ATOM     10  H   UNL d   1       9.947   4.140   0.029  0.00  0.00     0.168 HD
ENDROOT
BRANCH   8  11
ATOM     11  C   UNL d   1       6.500   2.664  -2.616  0.00  0.00     0.272 C 
ATOM     12  O   UNL d   1       6.930   3.253  -3.616  0.00  0.00    -0.266 OA
ATOM     13  N   UNL d   1       5.363   1.868  -2.691  0.00  0.00    -0.243 N 
ATOM     14  H   UNL d   1       4.996   1.343  -1.918  0.00  0.00     0.192 HD
BRANCH  13  15
ATOM     15  N   UNL d   1       4.661   1.767  -3.867  0.00  0.00    -0.183 NA
ATOM     16  C   UNL d   1       3.565   1.070  -3.867  0.00  0.00     0.153 C 
BRANCH  16  17
ATOM     17  C   UNL d   1       2.794   0.854  -5.124  0.00  0.00     0.016 A 
ATOM     18  C   UNL d   1       1.395   0.956  -5.111  0.00  0.00     0.016 A 
ATOM     19  C   UNL d   1       0.673   0.793  -6.301  0.00  0.00     0.001 A 
ATOM     20  C   UNL d   1       1.339   0.501  -7.489  0.00  0.00     0.003 A 
ATOM     21  C   UNL d   1       2.728   0.365  -7.495  0.00  0.00     0.037 A 
ATOM     22  C   UNL d   1       3.466   0.539  -6.318  0.00  0.00     0.080 A 
BRANCH  22  23
ATOM     23  O   UNL d   1       4.818   0.367  -6.228  0.00  0.00    -0.355 OA
ATOM     24  C   UNL d   1       5.542   0.148  -7.424  0.00  0.00     0.210 C 
ENDBRANCH  22  23
ENDBRANCH  16  17
ENDBRANCH  13  15
ENDBRANCH   8  11
BRANCH   1  25
ATOM     25  C   UNL d   1       5.208   2.247   0.173  0.00  0.00    -0.028 A 
ATOM     26  C   UNL d   1       4.441   1.072   0.233  0.00  0.00     0.049 A 
ATOM     27  C   UNL d   1       3.045   1.135   0.178  0.00  0.00     0.101 A 
ATOM     28  C   UNL d   1       2.422   2.391   0.144  0.00  0.00     0.099 A 
ATOM     29  C   UNL d   1       3.178   3.563   0.129  0.00  0.00     0.040 A 
ATOM     30  C   UNL d   1       4.563   3.491   0.137  0.00  0.00     0.012 A 
BRANCH  27  31
ATOM     31  O   UNL d   1       2.452  -0.098   0.106  0.00  0.00    -0.353 OA
ATOM     32  C   UNL d   1       1.031  -0.119   0.086  0.00  0.00     0.210 C 
ENDBRANCH  27  31
BRANCH  28  33
ATOM     33  O   UNL d   1       1.060   2.510   0.104  0.00  0.00    -0.358 OA
ATOM     34  H   UNL d   1       0.811   3.446   0.168  0.00  0.00     0.217 HD
ENDBRANCH  28  33
ENDBRANCH   1  25
TORSDOF 7
