@<TRIPOS>MOLECULE
*****
 37 39 0 0 0
SMALL
GASTEIGER

@<TRIPOS>ATOM
      1 O           1.0663   -0.2041    0.0319 O.2     1  UNL1       -0.2699
      2 C           2.2854   -0.0264    0.0481 C.2     1  UNL1        0.2483
      3 N           2.9822    0.9259   -0.6932 N.am    1  UNL1       -0.2785
      4 C           2.3083    1.8374   -1.5450 C.ar    1  UNL1        0.0770
      5 C           2.7433    1.9904   -2.8671 C.ar    1  UNL1       -0.0185
      6 C           2.0260    2.8168   -3.7400 C.ar    1  UNL1        0.0430
      7 CL          2.5049    2.9487   -5.3902 Cl      1  UNL1       -0.0835
      8 C           0.9060    3.5226   -3.3002 C.ar    1  UNL1       -0.0398
      9 C           0.5028    3.4177   -1.9699 C.ar    1  UNL1       -0.0170
     10 C           1.2114    2.5902   -1.0981 C.ar    1  UNL1        0.1381
     11 O           0.8971    2.5927    0.2338 O.3     1  UNL1       -0.5049
     12 C           3.1242   -1.0192    0.7750 C.ar    1  UNL1        0.0373
     13 C           4.3245   -0.6689    1.3985 C.ar    1  UNL1       -0.0462
     14 C           5.1464   -1.6681    1.9456 C.ar    1  UNL1       -0.0186
     15 C           4.7306   -3.0075    1.9656 C.ar    1  UNL1        0.1285
     16 O           5.5711   -3.8993    2.6094 O.3     1  UNL1       -0.4545
     17 C           5.2010   -5.2196    2.6917 C.ar    1  UNL1        0.1464
     18 C           5.0693   -6.0231    1.5608 C.ar    1  UNL1       -0.0164
     19 C           4.6716   -7.3498    1.7033 C.ar    1  UNL1       -0.0401
     20 C           4.4783   -7.8448    2.9830 C.ar    1  UNL1        0.0278
     21 N           4.6421   -7.1075    4.1040 N.ar    1  UNL1       -0.2596
     22 C           5.0022   -5.8093    3.9334 C.ar    1  UNL1        0.0698
     23 C           3.4991   -3.3363    1.3937 C.ar    1  UNL1       -0.0186
     24 C           2.7059   -2.3538    0.7963 C.ar    1  UNL1       -0.0462
     25 H           3.9524    0.7269   -0.8995 H       1  UNL1        0.1552
     26 H           3.5905    1.4267   -3.2463 H       1  UNL1        0.0652
     27 H           0.3506    4.1611   -3.9829 H       1  UNL1        0.0633
     28 H          -0.3505    3.9928   -1.6249 H       1  UNL1        0.0655
     29 H           0.0338    3.0148    0.3580 H       1  UNL1        0.2922
     30 H           4.6116    0.3759    1.4863 H       1  UNL1        0.0626
     31 H           6.1119   -1.3909    2.3639 H       1  UNL1        0.0654
     32 H           5.2349   -5.6083    0.5716 H       1  UNL1        0.0655
     33 H           4.5132   -7.9798    0.8354 H       1  UNL1        0.0634
     34 H           4.1817   -8.8784    3.1423 H       1  UNL1        0.0829
     35 H           5.1179   -5.2455    4.8544 H       1  UNL1        0.0867
     36 H           3.1233   -4.3538    1.3843 H       1  UNL1        0.0654
     37 H           1.7575   -2.6428    0.3468 H       1  UNL1        0.0626
@<TRIPOS>BOND
     1     1     2    2
     2     2     3   am
     3     3     4    1
     4     4     5   ar
     5     5     6   ar
     6     6     7    1
     7     6     8   ar
     8     8     9   ar
     9     9    10   ar
    10     4    10   ar
    11    10    11    1
    12     2    12    1
    13    12    13   ar
    14    13    14   ar
    15    14    15   ar
    16    15    16    1
    17    16    17    1
    18    17    18   ar
    19    18    19   ar
    20    19    20   ar
    21    20    21   ar
    22    21    22   ar
    23    17    22   ar
    24    15    23   ar
    25    23    24   ar
    26    12    24   ar
    27     3    25    1
    28     5    26    1
    29     8    27    1
    30     9    28    1
    31    11    29    1
    32    13    30    1
    33    14    31    1
    34    18    32    1
    35    19    33    1
    36    20    34    1
    37    22    35    1
    38    23    36    1
    39    24    37    1
