REMARK  4 active torsions:
REMARK  status: ('A' for Active; 'I' for Inactive)
REMARK    1  A    between atoms: C_4  and  O_5 
REMARK    2  A    between atoms: O_5  and  C_6 
REMARK    3  A    between atoms: C_16  and  N_17 
REMARK       I    between atoms: N_17  and  C_18 
REMARK    4  A    between atoms: C_18  and  C_20 
ROOT
ATOM      1  C   UNL d   1      -3.238  -2.399  -0.050  0.00  0.00     0.190 A 
ATOM      2  N   UNL d   1      -3.867  -2.972   1.008  0.00  0.00    -0.235 NA
ATOM      3  C   UNL d   1      -5.219  -2.929   1.023  0.00  0.00     0.119 A 
ATOM      4  C   UNL d   1      -5.976  -2.315   0.040  0.00  0.00     0.021 A 
ATOM      5  C   UNL d   1      -5.314  -1.782  -1.061  0.00  0.00     0.028 A 
ATOM      6  C   UNL d   1      -3.923  -1.866  -1.139  0.00  0.00     0.097 A 
ATOM      7  C   UNL d   1      -3.244  -1.344  -2.288  0.00  0.00     0.104 C 
ATOM      8  N   UNL d   1      -2.714  -0.873  -3.201  0.00  0.00    -0.191 NA
ENDROOT
BRANCH   1   9
ATOM      9  O   UNL d   1      -1.861  -2.393   0.033  0.00  0.00    -0.291 OA
BRANCH   9  10
ATOM     10  C   UNL d   1      -1.199  -1.180   0.045  0.00  0.00     0.078 A 
ATOM     11  C   UNL d   1       0.183  -1.254   0.018  0.00  0.00     0.046 A 
ATOM     12  C   UNL d   1       0.980  -0.091   0.010  0.00  0.00    -0.033 A 
ATOM     13  C   UNL d   1       2.443  -0.346  -0.004  0.00  0.00     0.050 C 
ATOM     14  C   UNL d   1       0.416   1.203   0.013  0.00  0.00     0.041 A 
ATOM     15  C   UNL d   1      -0.990   1.262   0.033  0.00  0.00     0.033 A 
ATOM     16  C   UNL d   1      -1.778   0.089   0.073  0.00  0.00     0.039 A 
BRANCH  14  17
ATOM     17  N   UNL d   1       1.159   2.443   0.009  0.00  0.00    -0.321 N 
ATOM     18  C   UNL d   1       2.543   2.634  -0.047  0.00  0.00     0.272 C 
ATOM     19  O   UNL d   1       3.434   1.808  -0.113  0.00  0.00    -0.266 OA
ATOM     20  H   UNL d   1       0.602   3.289   0.001  0.00  0.00     0.169 HD
BRANCH  18  21
ATOM     21  C   UNL d   1       3.066   3.964  -0.062  0.00  0.00     0.100 A 
ATOM     22  C   UNL d   1       2.856   5.048   0.754  0.00  0.00     0.036 A 
ATOM     23  C   UNL d   1       3.878   5.987   0.460  0.00  0.00     0.019 A 
ATOM     24  C   UNL d   1       4.701   5.444  -0.502  0.00  0.00     0.088 A 
ATOM     25  N   UNL d   1       4.214   4.207  -0.796  0.00  0.00    -0.361 N 
ATOM     26  H   UNL d   1       4.665   3.500  -1.371  0.00  0.00     0.165 HD
ENDBRANCH  18  21
ENDBRANCH  14  17
ENDBRANCH   9  10
ENDBRANCH   1   9
TORSDOF 4
