@<TRIPOS>MOLECULE
*****
 37 37 0 0 0
SMALL
GASTEIGER

@<TRIPOS>ATOM
      1 C           1.0479    0.0788    0.0514 C.3     1  UNL1       -0.0627
      2 C           2.5814    0.0955    0.0308 C.3     1  UNL1       -0.0463
      3 C           3.0576    0.4156   -1.3859 C.3     1  UNL1       -0.0627
      4 C           3.1240    1.1133    1.0559 C.3     1  UNL1       -0.0424
      5 C           4.6630    1.1729    1.1321 C.3     1  UNL1        0.0256
      6 C           5.1566    2.2097    2.1393 C.2     1  UNL1        0.2291
      7 O           4.3947    2.9018    2.8154 O.2     1  UNL1       -0.2743
      8 N           6.5372    2.3419    2.2268 N.am    1  UNL1       -0.2342
      9 N           7.0597    3.3393    3.0927 N.am    1  UNL1       -0.2303
     10 C           8.4274    3.4747    3.2900 C.2     1  UNL1        0.2618
     11 O           9.2647    2.8618    2.6248 O.2     1  UNL1       -0.2686
     12 C           8.8911    4.4225    4.3654 C.ar    1  UNL1        0.0628
     13 C          10.0505    5.2130    4.1481 C.ar    1  UNL1        0.0291
     14 C          10.5456    6.0535    5.1723 C.ar    1  UNL1        0.2740
     15 N          11.7550    6.8760    4.9704 N.pl3   1  UNL1        0.0796
     16 O          12.3106    6.8238    3.8664 O.2     1  UNL1        0.0414
     17 O          12.1408    7.5749    5.9202 O.co2   1  UNL1       -0.5760
     18 C           9.9008    6.1128    6.4118 C.ar    1  UNL1        0.0170
     19 C           8.7671    5.3306    6.6278 C.ar    1  UNL1       -0.0362
     20 C           8.2661    4.4878    5.6221 C.ar    1  UNL1        0.0535
     21 CL          6.9068    3.5167    6.0620 Cl      1  UNL1       -0.0828
     22 H           0.6561   -0.6572   -0.6602 H       1  UNL1        0.0232
     23 H           0.6381    1.0575   -0.2223 H       1  UNL1        0.0232
     24 H           0.6671   -0.1824    1.0440 H       1  UNL1        0.0232
     25 H           2.9345   -0.9072    0.3037 H       1  UNL1        0.0296
     26 H           2.7263    1.4147   -1.6894 H       1  UNL1        0.0232
     27 H           2.6637   -0.3087   -2.1059 H       1  UNL1        0.0232
     28 H           4.1474    0.3802   -1.4606 H       1  UNL1        0.0232
     29 H           2.7242    0.8636    2.0479 H       1  UNL1        0.0272
     30 H           2.7324    2.1097    0.8119 H       1  UNL1        0.0272
     31 H           5.0755    1.4496    0.1569 H       1  UNL1        0.0359
     32 H           5.0517    0.1848    1.4033 H       1  UNL1        0.0359
     33 H           7.2048    1.7852    1.6966 H       1  UNL1        0.1728
     34 H           6.3652    3.7855    3.6946 H       1  UNL1        0.1731
     35 H          10.5660    5.1655    3.1881 H       1  UNL1        0.0693
     36 H          10.2689    6.7451    7.2202 H       1  UNL1        0.0686
     37 H           8.2816    5.3657    7.6020 H       1  UNL1        0.0634
@<TRIPOS>UNITY_ATOM_ATTR
15 1
charge 1
17 1
charge -1
@<TRIPOS>BOND
     1     1     2    1
     2     2     3    1
     3     2     4    1
     4     4     5    1
     5     5     6    1
     6     6     7    2
     7     6     8   am
     8     8     9    1
     9     9    10   am
    10    10    11    2
    11    10    12    1
    12    12    13   ar
    13    13    14   ar
    14    14    15    1
    15    15    16    2
    16    15    17    1
    17    14    18   ar
    18    18    19   ar
    19    19    20   ar
    20    12    20   ar
    21    20    21    1
    22     1    22    1
    23     1    23    1
    24     1    24    1
    25     2    25    1
    26     3    26    1
    27     3    27    1
    28     3    28    1
    29     4    29    1
    30     4    30    1
    31     5    31    1
    32     5    32    1
    33     8    33    1
    34     9    34    1
    35    13    35    1
    36    18    36    1
    37    19    37    1
