@<TRIPOS>MOLECULE
*****
 37 38 0 0 0
SMALL
GASTEIGER

@<TRIPOS>ATOM
      1 C           1.0827   -0.0746    0.1411 C.3     1  UNL1        0.0789
      2 O           2.4986   -0.1263   -0.0317 O.3     1  UNL1       -0.4932
      3 C           3.0887   -1.3681   -0.0640 C.ar    1  UNL1        0.1426
      4 C           4.1974   -1.5279    0.7967 C.ar    1  UNL1        0.0005
      5 C           4.9515   -2.7142    0.8104 C.ar    1  UNL1        0.0474
      6 CL          6.2746   -2.8382    1.9136 Cl      1  UNL1       -0.0831
      7 C           4.6261   -3.7570   -0.0511 C.ar    1  UNL1       -0.0302
      8 C           5.3607   -5.0662   -0.1568 C.3     1  UNL1       -0.0383
      9 C           3.5321   -3.5771   -0.9102 C.ar    1  UNL1       -0.0326
     10 C           2.7590   -2.4050   -0.9548 C.ar    1  UNL1        0.0762
     11 N           1.7198   -2.2778   -1.9157 N.am    1  UNL1       -0.2785
     12 C           1.2390   -3.2767   -2.7389 C.2     1  UNL1        0.2483
     13 O           1.6665   -4.4274   -2.8417 O.2     1  UNL1       -0.2699
     14 C           0.0732   -2.9613   -3.5910 C.ar    1  UNL1        0.0371
     15 C          -0.8468   -3.9910   -3.8260 C.ar    1  UNL1       -0.0490
     16 C          -1.8398   -3.8499   -4.7977 C.ar    1  UNL1       -0.0516
     17 C          -1.9987   -2.6384   -5.4831 C.ar    1  UNL1        0.0030
     18 C          -3.1550   -2.4273   -6.4208 C.2     1  UNL1        0.0768
     19 N          -4.0499   -3.4557   -6.5982 N.am    1  UNL1       -0.3518
     20 S          -3.5003   -1.0057   -7.2403 S.2     1  UNL1       -0.0352
     21 C          -1.0697   -1.6083   -5.2269 C.ar    1  UNL1       -0.0516
     22 C          -0.0381   -1.7632   -4.2898 C.ar    1  UNL1       -0.0490
     23 H           0.7997    0.9780    0.2534 H       1  UNL1        0.0660
     24 H           0.7494   -0.6267    1.0234 H       1  UNL1        0.0660
     25 H           0.5289   -0.4084   -0.7341 H       1  UNL1        0.0660
     26 H           4.4859   -0.7194    1.4664 H       1  UNL1        0.0669
     27 H           6.2042   -5.1518    0.5296 H       1  UNL1        0.0278
     28 H           5.7517   -5.1967   -1.1733 H       1  UNL1        0.0278
     29 H           4.6757   -5.8947    0.0579 H       1  UNL1        0.0278
     30 H           3.3309   -4.4007   -1.5845 H       1  UNL1        0.0640
     31 H           1.2976   -1.3689   -2.0039 H       1  UNL1        0.1552
     32 H          -0.7693   -4.9264   -3.2715 H       1  UNL1        0.0625
     33 H          -2.4534   -4.7189   -5.0055 H       1  UNL1        0.0624
     34 H          -4.0129   -4.3606   -6.1535 H       1  UNL1        0.1428
     35 H          -4.8558   -3.2854   -7.1908 H       1  UNL1        0.1428
     36 H          -1.1112   -0.6693   -5.7743 H       1  UNL1        0.0624
     37 H           0.6873   -0.9653   -4.1624 H       1  UNL1        0.0625
@<TRIPOS>BOND
     1     1     2    1
     2     2     3    1
     3     3     4   ar
     4     4     5   ar
     5     5     6    1
     6     5     7   ar
     7     7     8    1
     8     7     9   ar
     9     9    10   ar
    10     3    10   ar
    11    10    11    1
    12    11    12   am
    13    12    13    2
    14    12    14    1
    15    14    15   ar
    16    15    16   ar
    17    16    17   ar
    18    17    18    1
    19    18    19    1
    20    18    20    2
    21    17    21   ar
    22    21    22   ar
    23    14    22   ar
    24     1    23    1
    25     1    24    1
    26     1    25    1
    27     4    26    1
    28     8    27    1
    29     8    28    1
    30     8    29    1
    31     9    30    1
    32    11    31    1
    33    15    32    1
    34    16    33    1
    35    19    34    1
    36    19    35    1
    37    21    36    1
    38    22    37    1
