REMARK  6 active torsions:
REMARK  status: ('A' for Active; 'I' for Inactive)
REMARK    1  A    between atoms: C_5  and  C_6 
REMARK    2  A    between atoms: C_9  and  C_10 
REMARK    3  A    between atoms: C_11  and  C_14 
REMARK       I    between atoms: C_14  and  N_16 
REMARK    4  A    between atoms: N_16  and  C_17 
REMARK    5  A    between atoms: C_19  and  C_20 
REMARK    6  A    between atoms: C_29  and  N_30 
ROOT
ATOM      1  C   UNL d   1      -6.597  -0.707   1.223  0.00  0.00     0.064 C 
ATOM      2  C   UNL d   1      -7.863  -0.440   0.801  0.00  0.00     0.101 C 
ATOM      3  C   UNL d   1      -8.003   0.313  -0.512  0.00  0.00     0.025 C 
ATOM      4  N   UNL d   1      -8.119   0.938  -1.602  0.00  0.00    -0.096 N 
ENDROOT
BRANCH   2   5
ATOM      5  C   UNL d   1      -9.068  -0.845   1.602  0.00  0.00     0.265 C 
ATOM      6  O   UNL d   1      -8.895  -1.448   2.663  0.00  0.00    -0.267 OA
ATOM      7  N   UNL d   1     -10.334  -0.579   1.080  0.00  0.00    -0.321 N 
ATOM      8  H   UNL d   1     -10.451  -0.315   0.105  0.00  0.00     0.169 HD
BRANCH   7   9
ATOM      9  C   UNL d   1     -11.540  -0.940   1.766  0.00  0.00     0.057 A 
ATOM     10  C   UNL d   1     -11.634  -0.770   3.153  0.00  0.00     0.047 A 
ATOM     11  C   UNL d   1     -12.798  -1.110   3.867  0.00  0.00     0.050 A 
ATOM     12  C   UNL d   1     -13.892  -1.644   3.175  0.00  0.00     0.018 A 
ATOM     13  C   UNL d   1     -13.824  -1.814   1.790  0.00  0.00     0.027 A 
ATOM     14  C   UNL d   1     -12.664  -1.446   1.087  0.00  0.00     0.060 A 
ATOM     15 CL   UNL d   1     -12.626  -1.734  -0.616  0.00  0.00    -0.082 Cl
BRANCH  11  16
ATOM     16  C   UNL d   1     -12.859  -0.908   5.363  0.00  0.00     0.417 C 
ATOM     17  F   UNL d   1     -13.886  -0.095   5.734  0.00  0.00    -0.166 F 
ATOM     18  F   UNL d   1     -13.040  -2.076   6.038  0.00  0.00    -0.166 F 
ATOM     19  F   UNL d   1     -11.733  -0.344   5.881  0.00  0.00    -0.166 F 
ENDBRANCH  11  16
ENDBRANCH   7   9
ENDBRANCH   2   5
BRANCH   1  20
ATOM     20  C   UNL d   1      -5.408  -0.334   0.473  0.00  0.00     0.077 A 
ATOM     21  C   UNL d   1      -5.281   0.331  -0.745  0.00  0.00     0.040 A 
ATOM     22  C   UNL d   1      -3.960   0.446  -1.129  0.00  0.00     0.041 A 
ATOM     23  C   UNL d   1      -3.257  -0.038  -0.071  0.00  0.00     0.088 A 
ATOM     24  O   UNL d   1      -4.085  -0.573   0.881  0.00  0.00    -0.310 OA
BRANCH  23  25
ATOM     25  C   UNL d   1      -1.830   0.022   0.123  0.00  0.00     0.031 A 
ATOM     26  C   UNL d   1      -1.124  -1.190   0.087  0.00  0.00     0.017 A 
ATOM     27  C   UNL d   1       0.271  -1.202   0.041  0.00  0.00     0.008 A 
ATOM     28  C   UNL d   1       0.989  -0.003   0.023  0.00  0.00    -0.060 A 
ATOM     29  C   UNL d   1       2.487   0.002  -0.015  0.00  0.00     0.048 C 
ATOM     30  C   UNL d   1       0.295   1.213   0.042  0.00  0.00     0.043 A 
ATOM     31  C   UNL d   1      -1.108   1.239   0.093  0.00  0.00     0.116 A 
BRANCH  31  32
ATOM     32  N   UNL d   1      -1.756   2.577   0.091  0.00  0.00    -0.115 N 
ATOM     33  O   UNL d   1      -2.978   2.678   0.189  0.00  0.00    -0.532 OA
ATOM     34  O   UNL d   1      -1.004   3.566  -0.003  0.00  0.00    -0.532 OA
ENDBRANCH  31  32
ENDBRANCH  23  25
ENDBRANCH   1  20
TORSDOF 6
