REMARK  5 active torsions:
REMARK  status: ('A' for Active; 'I' for Inactive)
REMARK    1  A    between atoms: O_2  and  C_3 
REMARK    2  A    between atoms: C_6  and  N_7 
REMARK       I    between atoms: N_7  and  C_8 
REMARK    3  A    between atoms: C_10  and  C_8 
REMARK    4  A    between atoms: C_10  and  N_12 
REMARK       I    between atoms: N_12  and  C_13 
REMARK    5  A    between atoms: C_13  and  C_15 
ROOT
ATOM      1  N   UNL d   1       6.507   7.522  -2.877  0.00  0.00    -0.325 N 
ATOM      2  C   UNL d   1       5.401   7.741  -2.049  0.00  0.00     0.244 C 
ATOM      3  O   UNL d   1       4.287   8.122  -2.416  0.00  0.00    -0.271 OA
ATOM      4  H   UNL d   1       7.375   7.213  -2.453  0.00  0.00     0.169 HD
ENDROOT
BRANCH   2   5
ATOM      5  C   UNL d   1       5.593   7.428  -0.555  0.00  0.00     0.173 C 
ATOM      6  C   UNL d   1       4.827   6.128  -0.280  0.00  0.00     0.042 C 
BRANCH   5   7
ATOM      7  N   UNL d   1       5.032   8.530   0.245  0.00  0.00    -0.344 N 
ATOM      8  C   UNL d   1       5.519   9.819   0.126  0.00  0.00     0.252 C 
ATOM      9  O   UNL d   1       6.464  10.121  -0.599  0.00  0.00    -0.268 OA
ATOM     10  H   UNL d   1       4.143   8.384   0.711  0.00  0.00     0.163 HD
BRANCH   8  11
ATOM     11  C   UNL d   1       4.814  10.863   0.922  0.00  0.00     0.032 A 
ATOM     12  C   UNL d   1       4.525  10.617   2.269  0.00  0.00     0.018 A 
ATOM     13  C   UNL d   1       3.840  11.572   3.027  0.00  0.00     0.025 A 
ATOM     14  C   UNL d   1       3.449  12.776   2.442  0.00  0.00     0.034 A 
ATOM     15 CL   UNL d   1       2.558  13.919   3.370  0.00  0.00    -0.084 Cl
ATOM     16  C   UNL d   1       3.773  13.051   1.113  0.00  0.00     0.025 A 
ATOM     17  C   UNL d   1       4.467  12.097   0.352  0.00  0.00     0.018 A 
ENDBRANCH   8  11
ENDBRANCH   5   7
ENDBRANCH   2   5
BRANCH   1  18
ATOM     18  C   UNL d   1       6.540   7.828  -4.267  0.00  0.00     0.037 A 
ATOM     19  C   UNL d   1       7.700   7.624  -5.031  0.00  0.00     0.032 A 
ATOM     20  C   UNL d   1       7.712   7.944  -6.409  0.00  0.00     0.042 A 
ATOM     21  C   UNL d   1       6.584   8.495  -7.028  0.00  0.00     0.106 A 
ATOM     22  C   UNL d   1       5.440   8.670  -6.266  0.00  0.00     0.151 A 
ATOM     23  C   UNL d   1       5.424   8.347  -4.919  0.00  0.00     0.074 A 
ATOM     24  F   UNL d   1       4.294   9.122  -6.791  0.00  0.00    -0.203 F 
BRANCH  21  25
ATOM     25  O   UNL d   1       6.665   8.761  -8.368  0.00  0.00    -0.353 OA
ATOM     26  C   UNL d   1       6.028   9.976  -8.770  0.00  0.00     0.210 C 
ENDBRANCH  21  25
ENDBRANCH   1  18
TORSDOF 5
