REMARK  4 active torsions:
REMARK  status: ('A' for Active; 'I' for Inactive)
REMARK    1  A    between atoms: C_2  and  C_3 
REMARK    2  A    between atoms: C_6  and  N_7 
REMARK       I    between atoms: N_7  and  C_8 
REMARK       I    between atoms: C_8  and  N_10 
REMARK    3  A    between atoms: N_10  and  N_11 
REMARK       I    between atoms: N_11  and  C_12 
REMARK    4  A    between atoms: C_12  and  C_14 
ROOT
ATOM      1  N   UNL d   1       4.268   2.633  -4.896  0.00  0.00    -0.308 N 
ATOM      2  C   UNL d   1       3.910   3.943  -5.217  0.00  0.00     0.339 C 
ATOM      3  O   UNL d   1       3.296   4.729  -4.490  0.00  0.00    -0.245 OA
ATOM      4  N   UNL d   1       4.304   4.403  -6.465  0.00  0.00    -0.248 N 
ATOM      5  H   UNL d   1       4.721   2.070  -5.602  0.00  0.00     0.170 HD
ATOM      6  H   UNL d   1       4.740   3.857  -7.202  0.00  0.00     0.192 HD
ENDROOT
BRANCH   1   7
ATOM      7  C   UNL d   1       3.936   1.971  -3.663  0.00  0.00     0.036 A 
ATOM      8  C   UNL d   1       4.238   0.613  -3.443  0.00  0.00     0.030 A 
ATOM      9  C   UNL d   1       3.783  -0.057  -2.277  0.00  0.00     0.009 A 
ATOM     10  C   UNL d   1       3.091   0.638  -1.279  0.00  0.00    -0.058 A 
ATOM     11  C   UNL d   1       2.854   1.995  -1.473  0.00  0.00     0.009 A 
ATOM     12  C   UNL d   1       3.266   2.638  -2.637  0.00  0.00     0.030 A 
BRANCH  10  13
ATOM     13  C   UNL d   1       2.586   0.006  -0.006  0.00  0.00     0.034 C 
ATOM     14  C   UNL d   1       1.062   0.008   0.041  0.00  0.00     0.010 C 
ENDBRANCH  10  13
ENDBRANCH   1   7
BRANCH   4  15
ATOM     15  N   UNL d   1       3.970   5.773  -6.783  0.00  0.00    -0.261 N 
ATOM     16  C   UNL d   1       4.248   6.303  -8.038  0.00  0.00     0.288 C 
ATOM     17  O   UNL d   1       4.815   5.635  -8.909  0.00  0.00    -0.264 OA
ATOM     18  H   UNL d   1       3.408   6.250  -6.076  0.00  0.00     0.190 HD
BRANCH  16  19
ATOM     19  C   UNL d   1       3.824   7.739  -8.300  0.00  0.00     0.125 A 
ATOM     20  C   UNL d   1       4.045   8.750  -7.365  0.00  0.00     0.037 A 
ATOM     21  C   UNL d   1       3.646  10.057  -7.676  0.00  0.00     0.004 A 
ATOM     22  C   UNL d   1       3.048  10.323  -8.903  0.00  0.00     0.019 A 
ATOM     23  C   UNL d   1       2.888   9.267  -9.784  0.00  0.00     0.117 A 
ATOM     24  N   UNL d   1       3.260   7.990  -9.515  0.00  0.00    -0.255 NA
ENDBRANCH  16  19
ENDBRANCH   4  15
TORSDOF 4
