@<TRIPOS>MOLECULE
*****
 67 70 0 0 0
SMALL
GASTEIGER

@<TRIPOS>ATOM
      1 C           1.1062    0.5427   -0.4102 C.3     1  UNL1        0.0790
      2 O           2.5053    0.3229   -0.2432 O.3     1  UNL1       -0.4914
      3 C           3.0679   -0.0769    0.9432 C.ar    1  UNL1        0.1617
      4 C           4.2449    0.5888    1.3504 C.ar    1  UNL1       -0.0131
      5 C           5.0806    0.1421    2.4399 C.ar    1  UNL1       -0.0195
      6 C           4.8230   -1.0535    3.0930 C.ar    1  UNL1        0.1035
      7 N           5.3904   -1.4557    4.3607 N.pl3   1  UNL1       -0.2449
      8 C           4.9196   -2.4176    5.2844 C.2     1  UNL1        0.3842
      9 N           3.8644   -3.1776    5.2516 N.am    1  UNL1        0.0006
     10 C           2.7929   -2.7173    4.5426 C.2     1  UNL1        0.3405
     11 O           2.3718   -1.5835    4.6651 O.2     1  UNL1       -0.2484
     12 C           1.8890   -3.7677    3.9634 C.ar    1  UNL1        0.0562
     13 C           1.6963   -4.2891    2.6497 C.ar    1  UNL1       -0.0463
     14 C           0.4193   -4.7597    2.2481 C.ar    1  UNL1       -0.0397
     15 C          -0.6070   -4.7853    3.1825 C.ar    1  UNL1        0.0334
     16 N          -1.8256   -5.4271    2.9232 N.am    1  UNL1       -0.2857
     17 C          -2.7795   -5.8585    3.8131 C.2     1  UNL1        0.2141
     18 C          -2.7268   -5.5788    5.3039 C.3     1  UNL1        0.0125
     19 O          -3.7254   -6.5219    3.3750 O.2     1  UNL1       -0.2758
     20 C          -0.3757   -4.1656    4.3957 C.ar    1  UNL1       -0.0397
     21 C           0.8559   -3.8029    4.8478 C.ar    1  UNL1       -0.0463
     22 N           5.6873   -2.6304    6.4411 N.pl3   1  UNL1       -0.2767
     23 C           5.1646   -3.5545    7.4883 C.3     1  UNL1        0.0684
     24 C           6.0355   -3.6647    8.7317 C.3     1  UNL1        0.0059
     25 C           5.6421   -4.6843    9.7777 C.2     1  UNL1        0.0106
     26 C           6.4177   -4.8813   10.8462 C.ar    1  UNL1        0.0510
     27 C           7.6415   -4.2702   11.2201 C.ar    1  UNL1       -0.0482
     28 C           8.3190   -4.7859   12.2495 C.ar    1  UNL1       -0.0608
     29 C           7.7496   -5.8415   13.0716 C.ar    1  UNL1       -0.0555
     30 C           6.5577   -6.4269   12.8232 C.ar    1  UNL1        0.0098
     31 C           5.8105   -5.9620   11.6310 C.ar    1  UNL1        0.2086
     32 N           4.6999   -6.3397   11.1197 N.2     1  UNL1       -0.2369
     33 C           4.4593   -5.6192    9.8216 C.3     1  UNL1        0.1661
     34 C           3.8838   -1.8034    2.4033 C.ar    1  UNL1        0.0222
     35 C           2.8401   -1.2604    1.5929 C.ar    1  UNL1        0.1647
     36 O           1.6972   -1.9852    1.7091 O.3     1  UNL1       -0.4913
     37 C           0.6256   -1.8754    0.8245 C.3     1  UNL1        0.0790
     38 H           0.9391    1.0824   -1.3428 H       1  UNL1        0.0660
     39 H           0.6585    1.0639    0.4395 H       1  UNL1        0.0660
     40 H           0.5269   -0.3401   -0.6727 H       1  UNL1        0.0660
     41 H           4.5221    1.4956    0.8202 H       1  UNL1        0.0656
     42 H           5.9580    0.7262    2.6981 H       1  UNL1        0.0653
     43 H           6.0681   -0.7929    4.7106 H       1  UNL1        0.2646
     44 H           2.4204   -4.1640    1.8391 H       1  UNL1        0.0626
     45 H           0.2120   -4.9508    1.1897 H       1  UNL1        0.0636
     46 H          -1.9788   -5.8023    1.9913 H       1  UNL1        0.1548
     47 H          -1.7789   -5.2829    5.7248 H       1  UNL1        0.0323
     48 H          -2.8895   -6.5016    5.8581 H       1  UNL1        0.0323
     49 H          -3.4733   -4.8189    5.5535 H       1  UNL1        0.0323
     50 H          -1.1582   -3.8036    5.0357 H       1  UNL1        0.0636
     51 H           0.9544   -3.3288    5.8182 H       1  UNL1        0.0626
     52 H           6.3620   -1.9371    6.7416 H       1  UNL1        0.2577
     53 H           5.1012   -4.5546    7.0471 H       1  UNL1        0.0658
     54 H           4.1578   -3.2640    7.8215 H       1  UNL1        0.0658
     55 H           6.0753   -2.6876    9.2326 H       1  UNL1        0.0343
     56 H           7.0610   -3.8955    8.4126 H       1  UNL1        0.0343
     57 H           8.0224   -3.4384   10.6393 H       1  UNL1        0.0626
     58 H           9.3107   -4.4052   12.4784 H       1  UNL1        0.0618
     59 H           8.3464   -6.1167   13.9401 H       1  UNL1        0.0620
     60 H           6.1855   -7.2121   13.4715 H       1  UNL1        0.0683
     61 H           4.0998   -7.0301   11.5727 H       1  UNL1        0.4459
     62 H           3.4992   -5.0993    9.8732 H       1  UNL1        0.1077
     63 H           4.4645   -6.3605    9.0149 H       1  UNL1        0.1077
     64 H           3.8668   -2.8631    2.6044 H       1  UNL1        0.0690
     65 H          -0.1362   -2.6542    0.9033 H       1  UNL1        0.0660
     66 H           1.0430   -2.0166   -0.1732 H       1  UNL1        0.0660
     67 H           0.0659   -0.9744    1.0816 H       1  UNL1        0.0660
@<TRIPOS>UNITY_ATOM_ATTR
32 1
charge 1
@<TRIPOS>BOND
     1     1     2    1
     2     2     3    1
     3     3     4   ar
     4     4     5   ar
     5     5     6   ar
     6     6     7    1
     7     7     8    1
     8     8     9    2
     9     9    10    1
    10    10    11    2
    11    10    12    1
    12    12    13   ar
    13    13    14   ar
    14    14    15   ar
    15    15    16    1
    16    16    17   am
    17    17    18    1
    18    17    19    2
    19    15    20   ar
    20    20    21   ar
    21    12    21   ar
    22     8    22    1
    23    22    23    1
    24    23    24    1
    25    24    25    1
    26    25    26    2
    27    26    27   ar
    28    27    28   ar
    29    28    29   ar
    30    29    30   ar
    31    30    31   ar
    32    26    31   ar
    33    31    32    2
    34    32    33    1
    35    25    33    1
    36     6    34   ar
    37    34    35   ar
    38     3    35   ar
    39    35    36    1
    40    36    37    1
    41     1    38    1
    42     1    39    1
    43     1    40    1
    44     4    41    1
    45     5    42    1
    46     7    43    1
    47    13    44    1
    48    14    45    1
    49    16    46    1
    50    18    47    1
    51    18    48    1
    52    18    49    1
    53    20    50    1
    54    21    51    1
    55    22    52    1
    56    23    53    1
    57    23    54    1
    58    24    55    1
    59    24    56    1
    60    27    57    1
    61    28    58    1
    62    29    59    1
    63    30    60    1
    64    32    61    1
    65    33    62    1
    66    33    63    1
    67    34    64    1
    68    37    65    1
    69    37    66    1
    70    37    67    1
