REMARK  6 active torsions:
REMARK  status: ('A' for Active; 'I' for Inactive)
REMARK    1  A    between atoms: O_2  and  C_3 
REMARK    2  A    between atoms: C_6  and  N_7 
REMARK    3  A    between atoms: N_10  and  C_11 
REMARK    4  A    between atoms: C_11  and  C_12 
REMARK    5  A    between atoms: C_11  and  C_26 
REMARK    6  A    between atoms: N_30  and  C_31 
ROOT
ATOM      1  C   UNL d   1       5.605   9.019   1.749  0.00  0.00     0.298 C 
ENDROOT
BRANCH   1   2
ATOM      2  N   UNL d   1       6.122   7.302   1.443  0.00  0.00    -0.052 N 
ATOM      3  C   UNL d   1       5.596   6.298   2.488  0.00  0.00     0.256 C 
ATOM      4  C   UNL d   1       6.032   4.842   2.209  0.00  0.00     0.150 C 
ATOM      5  N   UNL d   1       5.669   4.375   0.890  0.00  0.00    -0.378 N 
ATOM      6  C   UNL d   1       6.244   5.137  -0.163  0.00  0.00     0.150 C 
ATOM      7  C   UNL d   1       5.788   6.534   0.115  0.00  0.00     0.256 C 
ATOM      8  H   UNL d   1       7.139   7.386   1.516  0.00  0.00     0.281 HD
BRANCH   5   9
ATOM      9  C   UNL d   1       4.775   3.385   0.592  0.00  0.00     0.030 A 
ATOM     10  C   UNL d   1       5.080   2.493  -0.444  0.00  0.00     0.032 A 
ATOM     11  C   UNL d   1       4.263   1.408  -0.732  0.00  0.00     0.039 A 
ATOM     12  C   UNL d   1       3.124   1.182   0.030  0.00  0.00     0.068 A 
ATOM     13  C   UNL d   1       2.771   2.088   1.029  0.00  0.00     0.039 A 
ATOM     14  C   UNL d   1       3.586   3.193   1.296  0.00  0.00     0.032 A 
BRANCH  12  15
ATOM     15  O   UNL d   1       2.500  -0.009  -0.197  0.00  0.00    -0.356 OA
ATOM     16  C   UNL d   1       1.083   0.010  -0.093  0.00  0.00     0.210 C 
ENDBRANCH  12  15
ENDBRANCH   5   9
ENDBRANCH   1   2
BRANCH   1  17
ATOM     17  C   UNL d   1       5.754   9.334   3.284  0.00  0.00     0.043 C 
ATOM     18  C   UNL d   1       5.382   8.557   4.345  0.00  0.00     0.028 C 
ATOM     19  C   UNL d   1       5.564   8.957   5.756  0.00  0.00    -0.014 C 
ATOM     20  C   UNL d   1       5.791   8.168   6.913  0.00  0.00     0.035 C 
ATOM     21  C   UNL d   1       5.513  10.325   5.925  0.00  0.00     0.028 C 
ATOM     22  C   UNL d   1       6.181   8.834   8.107  0.00  0.00     0.171 C 
ATOM     23  C   UNL d   1       6.710  10.080   7.959  0.00  0.00     0.093 C 
ATOM     24  O   UNL d   1       5.303   9.110   9.263  0.00  0.00    -0.341 OA
ATOM     25  C   UNL d   1       5.997  10.881   7.080  0.00  0.00     0.060 C 
ATOM     26  O   UNL d   1       7.124  10.587   9.168  0.00  0.00    -0.327 OA
ATOM     27  C   UNL d   1       5.861  10.398   9.780  0.00  0.00     0.346 C 
ATOM     28  N   UNL d   1       5.293  11.146   4.807  0.00  0.00    -0.224 NA
ATOM     29  C   UNL d   1       6.085  10.746   3.726  0.00  0.00     0.234 C 
ATOM     30  H   UNL d   1       5.342  12.140   5.000  0.00  0.00     0.137 HD
ATOM     31  O   UNL d   1       6.979  11.405   3.314  0.00  0.00    -0.274 OA
ENDBRANCH   1  17
BRANCH   1  32
ATOM     32  C   UNL d   1       6.052  10.255   0.644  0.00  0.00     0.184 C 
ATOM     33  N   UNL d   1       6.450  11.473   0.986  0.00  0.00    -0.111 NA
ATOM     34  N   UNL d   1       6.714  12.211  -0.136  0.00  0.00    -0.023 NA
ATOM     35  N   UNL d   1       6.406  11.532  -1.215  0.00  0.00    -0.043 NA
ATOM     36  N   UNL d   1       5.886  10.385  -0.769  0.00  0.00    -0.223 N 
BRANCH  36  37
ATOM     37  C   UNL d   1       5.398   9.456  -1.781  0.00  0.00     0.048 C 
ATOM     38  C   UNL d   1       4.183   9.811  -2.602  0.00  0.00     0.040 C 
ATOM     39  C   UNL d   1       6.575   8.809  -2.567  0.00  0.00     0.040 C 
ATOM     40  C   UNL d   1       4.722   8.433  -0.988  0.00  0.00     0.040 C 
ENDBRANCH  36  37
ENDBRANCH   1  32
TORSDOF 6
