@<TRIPOS>MOLECULE
*****
 33 34 0 0 0
SMALL
GASTEIGER

@<TRIPOS>ATOM
      1 C           0.9414    0.0380    0.0553 C.3     1  UNL1       -0.0304
      2 C           2.4804    0.0678    0.0503 C.3     1  UNL1        0.1035
      3 O           2.9405   -0.4682   -1.1968 O.3     1  UNL1       -0.3827
      4 C           2.9802    1.5263    0.2017 C.3     1  UNL1        0.0443
      5 N           2.5707    2.4335   -0.8585 N.am    1  UNL1       -0.3120
      6 C           2.9126    3.7609   -0.7737 C.2     1  UNL1        0.2162
      7 O           3.6067    4.2315    0.1230 O.2     1  UNL1       -0.2755
      8 C           2.3805    4.6181   -1.8681 C.3     1  UNL1        0.0356
      9 C           2.3788    6.1234   -1.7061 C.3     1  UNL1       -0.0412
     10 C           3.3305    5.4785   -2.6716 C.3     1  UNL1       -0.0412
     11 C           2.9526   -0.8410    1.1848 C.ar    1  UNL1       -0.0149
     12 C           2.8780   -2.2373    1.0450 C.ar    1  UNL1       -0.0558
     13 C           3.0075   -3.0679    2.1583 C.ar    1  UNL1       -0.0614
     14 C           3.3217   -2.5269    3.4030 C.ar    1  UNL1       -0.0617
     15 C           3.4825   -1.1543    3.5428 C.ar    1  UNL1       -0.0614
     16 C           3.2997   -0.3205    2.4441 C.ar    1  UNL1       -0.0558
     17 H           0.5219    0.6454   -0.7521 H       1  UNL1        0.0261
     18 H           0.5421    0.4065    1.0076 H       1  UNL1        0.0261
     19 H           0.5582   -0.9773   -0.1018 H       1  UNL1        0.0261
     20 H           2.6632    0.1379   -1.9011 H       1  UNL1        0.2107
     21 H           4.0771    1.5483    0.2358 H       1  UNL1        0.0493
     22 H           2.6071    1.9657    1.1352 H       1  UNL1        0.0493
     23 H           1.9196    2.1347   -1.5690 H       1  UNL1        0.1488
     24 H           1.5393    4.1973   -2.4118 H       1  UNL1        0.0394
     25 H           2.7987    6.5454   -0.7977 H       1  UNL1        0.0273
     26 H           1.5406    6.6872   -2.0963 H       1  UNL1        0.0273
     27 H           4.3829    5.4732   -2.4056 H       1  UNL1        0.0273
     28 H           3.1502    5.6061   -3.7323 H       1  UNL1        0.0273
     29 H           2.6731   -2.6796    0.0709 H       1  UNL1        0.0621
     30 H           2.8319   -4.1353    2.0593 H       1  UNL1        0.0618
     31 H           3.4425   -3.1743    4.2656 H       1  UNL1        0.0618
     32 H           3.7117   -0.7181    4.5110 H       1  UNL1        0.0618
     33 H           3.4032    0.7466    2.6151 H       1  UNL1        0.0621
@<TRIPOS>BOND
     1     1     2    1
     2     2     3    1
     3     2     4    1
     4     4     5    1
     5     5     6   am
     6     6     7    2
     7     6     8    1
     8     8     9    1
     9     9    10    1
    10     8    10    1
    11     2    11    1
    12    11    12   ar
    13    12    13   ar
    14    13    14   ar
    15    14    15   ar
    16    15    16   ar
    17    11    16   ar
    18     1    17    1
    19     1    18    1
    20     1    19    1
    21     3    20    1
    22     4    21    1
    23     4    22    1
    24     5    23    1
    25     8    24    1
    26     9    25    1
    27     9    26    1
    28    10    27    1
    29    10    28    1
    30    12    29    1
    31    13    30    1
    32    14    31    1
    33    15    32    1
    34    16    33    1
