REMARK  7 active torsions:
REMARK  status: ('A' for Active; 'I' for Inactive)
REMARK    1  A    between atoms: O_2  and  C_3 
REMARK    2  A    between atoms: C_5  and  O_6 
REMARK    3  A    between atoms: C_9  and  C_10 
REMARK       I    between atoms: C_10  and  N_12 
REMARK       I    between atoms: C_13  and  N_14 
REMARK       I    between atoms: C_13  and  N_26 
REMARK    4  A    between atoms: N_14  and  C_15 
REMARK    5  A    between atoms: C_15  and  C_16 
REMARK    6  A    between atoms: C_16  and  C_17 
REMARK    7  A    between atoms: N_26  and  C_27 
ROOT
ATOM      1  C   UNL d   1       3.143  -3.697  -3.224  0.00  0.00     0.294 C 
ATOM      2  O   UNL d   1       3.864  -4.618  -3.574  0.00  0.00    -0.265 OA
ATOM      3  N   UNL d   1       2.059  -3.220  -3.930  0.00  0.00    -0.023 NA
ATOM      4  C   UNL d   1       1.701  -3.834  -5.020  0.00  0.00     0.704 C 
ATOM      5  N   UNL d   1       0.609  -3.366  -5.706  0.00  0.00    -0.224 N 
ATOM      6  N   UNL d   1       2.277  -4.965  -5.544  0.00  0.00    -0.190 N 
ATOM      7  H   UNL d   1       0.263  -3.943  -6.464  0.00  0.00     0.177 HD
ATOM      8  H   UNL d   1       3.116  -5.284  -5.051  0.00  0.00     0.184 HD
ENDROOT
BRANCH   5   9
ATOM      9  C   UNL d   1      -0.216  -2.277  -5.253  0.00  0.00     0.142 C 
BRANCH   9  10
ATOM     10  C   UNL d   1      -1.356  -2.031  -6.223  0.00  0.00     0.057 C 
BRANCH  10  11
ATOM     11  C   UNL d   1      -2.316  -0.941  -5.863  0.00  0.00    -0.048 A 
ATOM     12  C   UNL d   1      -3.327  -0.647  -6.678  0.00  0.00    -0.006 A 
ATOM     13  C   UNL d   1      -3.703  -1.215  -7.921  0.00  0.00     0.014 A 
ATOM     14  C   UNL d   1      -4.034   0.489  -6.081  0.00  0.00     0.038 A 
ATOM     15  C   UNL d   1      -4.681  -0.625  -8.614  0.00  0.00     0.001 A 
ATOM     16  C   UNL d   1      -5.433   0.486  -8.053  0.00  0.00     0.002 A 
ATOM     17  C   UNL d   1      -5.165   1.050  -6.854  0.00  0.00     0.030 A 
ATOM     18  N   UNL d   1      -3.525   0.815  -4.952  0.00  0.00    -0.385 N 
ATOM     19  C   UNL d   1      -2.326  -0.038  -4.662  0.00  0.00     0.155 A 
ATOM     20  H   UNL d   1      -3.916   1.552  -4.365  0.00  0.00     0.160 HD
ENDBRANCH  10  11
ENDBRANCH   9  10
ENDBRANCH   5   9
BRANCH   6  21
ATOM     21  C   UNL d   1       2.106  -5.556  -6.805  0.00  0.00     0.050 C 
ATOM     22  C   UNL d   1       2.103  -6.949  -6.942  0.00  0.00     0.036 C 
ATOM     23  C   UNL d   1       1.852  -7.537  -8.191  0.00  0.00    -0.059 C 
ATOM     24  C   UNL d   1       2.058  -9.003  -8.432  0.00  0.00     0.048 C 
ATOM     25  C   UNL d   1       1.487  -6.729  -9.274  0.00  0.00     0.013 C 
ATOM     26  C   UNL d   1       1.532  -5.343  -9.161  0.00  0.00    -0.059 C 
ATOM     27  C   UNL d   1       1.258  -4.447 -10.323  0.00  0.00     0.048 C 
ATOM     28  C   UNL d   1       1.887  -4.774  -7.941  0.00  0.00     0.036 C 
ENDBRANCH   6  21
BRANCH   1  29
ATOM     29  C   UNL d   1       3.447  -2.985  -1.946  0.00  0.00     0.040 A 
ATOM     30  C   UNL d   1       4.591  -3.375  -1.242  0.00  0.00     0.054 A 
ATOM     31  C   UNL d   1       5.002  -2.668  -0.116  0.00  0.00     0.071 A 
ATOM     32  C   UNL d   1       4.194  -1.636   0.372  0.00  0.00     0.073 A 
ATOM     33  C   UNL d   1       3.039  -1.246  -0.318  0.00  0.00     0.071 A 
ATOM     34  C   UNL d   1       2.673  -1.913  -1.487  0.00  0.00     0.054 A 
BRANCH  31  35
ATOM     35  O   UNL d   1       6.186  -2.881   0.540  0.00  0.00    -0.356 OA
ATOM     36  C   UNL d   1       7.096  -3.786  -0.091  0.00  0.00     0.210 C 
ENDBRANCH  31  35
BRANCH  33  37
ATOM     37  O   UNL d   1       2.413  -0.121   0.148  0.00  0.00    -0.356 OA
ATOM     38  C   UNL d   1       0.993  -0.121   0.063  0.00  0.00     0.210 C 
ENDBRANCH  33  37
ENDBRANCH   1  29
TORSDOF 7
