@<TRIPOS>MOLECULE
*****
 49 49 0 0 0
SMALL
GASTEIGER

@<TRIPOS>ATOM
      1 C           0.9813    0.0790   -0.0356 C.3     1  UNL1       -0.0465
      2 C           2.4728    0.0608   -0.0113 C.2     1  UNL1       -0.0865
      3 C           3.1991    0.5931    0.9857 C.2     1  UNL1       -0.0587
      4 C           4.6683    0.6393    0.9673 C.ar    1  UNL1       -0.0216
      5 C           5.4215    0.4331    2.1209 C.ar    1  UNL1       -0.0509
      6 C           6.8183    0.6047    2.0898 C.ar    1  UNL1       -0.0157
      7 C           7.4969    0.9217    0.8956 C.ar    1  UNL1        0.1626
      8 O           8.8727    0.9741    1.0059 O.3     1  UNL1       -0.4791
      9 C           9.6727    1.1492   -0.1769 C.3     1  UNL1        0.1668
     10 C          11.2048    1.0653    0.0811 C.2     1  UNL1        0.2667
     11 O          11.6865    0.8241    1.1904 O.2     1  UNL1       -0.2705
     12 N          12.0276    1.2856   -1.0279 N.am    1  UNL1       -0.2304
     13 N          13.4567    1.2454   -0.8668 N.am    1  UNL1       -0.2181
     14 C          14.2866    1.4699   -1.9546 C.2     1  UNL1        0.3160
     15 O          13.8413    1.7069   -3.0804 O.2     1  UNL1       -0.2513
     16 N          15.6413    1.4065   -1.6801 N.am    1  UNL1       -0.2982
     17 C          16.6479    1.6193   -2.7274 C.3     1  UNL1        0.0131
     18 C          18.1020    1.5106   -2.2403 C.3     1  UNL1       -0.0376
     19 C          19.1167    1.7412   -3.3737 C.3     1  UNL1       -0.0545
     20 C          20.5534    1.6303   -2.8756 C.3     1  UNL1       -0.0652
     21 C           6.7325    1.1463   -0.2592 C.ar    1  UNL1        0.1621
     22 O           7.3844    1.5310   -1.3980 O.3     1  UNL1       -0.4914
     23 C           6.6046    1.8031   -2.5506 C.3     1  UNL1        0.0790
     24 C           5.3364    1.0021   -0.2066 C.ar    1  UNL1       -0.0092
     25 H           0.6179   -0.4276   -0.9359 H       1  UNL1        0.0272
     26 H           0.6035    1.1061   -0.0565 H       1  UNL1        0.0272
     27 H           0.5749   -0.4445    0.8337 H       1  UNL1        0.0272
     28 H           2.9615   -0.4125   -0.8604 H       1  UNL1        0.0569
     29 H           2.7087    1.0641    1.8347 H       1  UNL1        0.0620
     30 H           4.9350    0.1287    3.0463 H       1  UNL1        0.0625
     31 H           7.3777    0.4940    3.0173 H       1  UNL1        0.0655
     32 H           9.4831    2.1489   -0.5842 H       1  UNL1        0.0795
     33 H           9.4295    0.3660   -0.9069 H       1  UNL1        0.0795
     34 H          11.6921    1.4895   -1.9688 H       1  UNL1        0.1729
     35 H          13.7887    1.0511    0.0736 H       1  UNL1        0.1744
     36 H          15.9525    1.2093   -0.7399 H       1  UNL1        0.1503
     37 H          16.4778    2.6123   -3.1598 H       1  UNL1        0.0462
     38 H          16.4691    0.8829   -3.5196 H       1  UNL1        0.0462
     39 H          18.2741    0.5195   -1.8033 H       1  UNL1        0.0280
     40 H          18.2829    2.2435   -1.4446 H       1  UNL1        0.0280
     41 H          18.9716    2.7346   -3.8150 H       1  UNL1        0.0263
     42 H          18.9628    1.0076   -4.1742 H       1  UNL1        0.0263
     43 H          20.7575    2.3740   -2.0987 H       1  UNL1        0.0230
     44 H          21.2613    1.7972   -3.6951 H       1  UNL1        0.0230
     45 H          20.7487    0.6366   -2.4601 H       1  UNL1        0.0230
     46 H           7.2907    2.1182   -3.3398 H       1  UNL1        0.0660
     47 H           5.9024    2.6235   -2.3685 H       1  UNL1        0.0660
     48 H           6.0901    0.8986   -2.8897 H       1  UNL1        0.0660
     49 H           4.7302    1.1852   -1.0872 H       1  UNL1        0.0661
@<TRIPOS>BOND
     1     1     2    1
     2     2     3    2
     3     3     4    1
     4     4     5   ar
     5     5     6   ar
     6     6     7   ar
     7     7     8    1
     8     8     9    1
     9     9    10    1
    10    10    11    2
    11    10    12   am
    12    12    13    1
    13    13    14   am
    14    14    15    2
    15    14    16   am
    16    16    17    1
    17    17    18    1
    18    18    19    1
    19    19    20    1
    20     7    21   ar
    21    21    22    1
    22    22    23    1
    23    21    24   ar
    24     4    24   ar
    25     1    25    1
    26     1    26    1
    27     1    27    1
    28     2    28    1
    29     3    29    1
    30     5    30    1
    31     6    31    1
    32     9    32    1
    33     9    33    1
    34    12    34    1
    35    13    35    1
    36    16    36    1
    37    17    37    1
    38    17    38    1
    39    18    39    1
    40    18    40    1
    41    19    41    1
    42    19    42    1
    43    20    43    1
    44    20    44    1
    45    20    45    1
    46    23    46    1
    47    23    47    1
    48    23    48    1
    49    24    49    1
