REMARK  6 active torsions:
REMARK  status: ('A' for Active; 'I' for Inactive)
REMARK    1  A    between atoms: O_2  and  C_3 
REMARK    2  A    between atoms: C_9  and  N_10 
REMARK       I    between atoms: N_10  and  C_11 
REMARK    3  A    between atoms: C_11  and  C_13 
REMARK    4  A    between atoms: C_16  and  C_17 
REMARK    5  A    between atoms: C_17  and  O_18 
REMARK    6  A    between atoms: N_26  and  C_27 
ROOT
ATOM      1  C   UNL d   1       4.461   1.802  -2.775  0.00  0.00     0.084 A 
ATOM      2  C   UNL d   1       3.548   2.098  -3.713  0.00  0.00     0.036 A 
ATOM      3  C   UNL d   1       3.912   2.341  -5.097  0.00  0.00     0.011 A 
ATOM      4  C   UNL d   1       2.963   2.675  -6.077  0.00  0.00    -0.004 A 
ATOM      5  C   UNL d   1       3.456   2.899  -7.357  0.00  0.00     0.127 A 
ATOM      6  N   UNL d   1       4.764   2.813  -7.700  0.00  0.00    -0.262 NA
ATOM      7  C   UNL d   1       5.657   2.465  -6.745  0.00  0.00     0.065 A 
ATOM      8  C   UNL d   1       7.090   2.361  -7.165  0.00  0.00     0.073 C 
ATOM      9  C   UNL d   1       5.261   2.228  -5.436  0.00  0.00     0.113 A 
ATOM     10  O   UNL d   1       6.228   1.889  -4.458  0.00  0.00    -0.290 OA
ATOM     11  C   UNL d   1       5.849   1.628  -3.150  0.00  0.00     0.164 A 
ATOM     12  N   UNL d   1       6.724   1.059  -2.403  0.00  0.00    -0.336 N 
ATOM     13  H   UNL d   1       6.458   0.634  -1.510  0.00  0.00     0.168 HD
ENDROOT
BRANCH   1  14
ATOM     14  C   UNL d   1       3.882   1.307  -1.514  0.00  0.00     0.260 C 
ATOM     15  N   UNL d   1       4.548   1.609  -0.338  0.00  0.00    -0.320 N 
ATOM     16  H   UNL d   1       5.286   2.305  -0.337  0.00  0.00     0.169 HD
ATOM     17  O   UNL d   1       2.888   0.610  -1.696  0.00  0.00    -0.267 OA
BRANCH  15  18
ATOM     18  C   UNL d   1       4.123   1.223   0.986  0.00  0.00     0.069 A 
ATOM     19  C   UNL d   1       4.876   1.696   2.091  0.00  0.00     0.039 A 
ATOM     20  C   UNL d   1       4.509   1.370   3.417  0.00  0.00    -0.060 A 
ATOM     21  C   UNL d   1       3.377   0.588   3.640  0.00  0.00     0.009 A 
ATOM     22  C   UNL d   1       5.291   1.836   4.616  0.00  0.00     0.048 C 
ATOM     23  C   UNL d   1       2.632   0.120   2.574  0.00  0.00     0.039 A 
ATOM     24  C   UNL d   1       3.001   0.414   1.265  0.00  0.00     0.095 A 
BRANCH  24  25
ATOM     25  O   UNL d   1       2.348  -0.297   0.304  0.00  0.00    -0.354 OA
ATOM     26  C   UNL d   1       0.945  -0.035   0.206  0.00  0.00     0.210 C 
ENDBRANCH  24  25
ENDBRANCH  15  18
ENDBRANCH   1  14
BRANCH  12  27
ATOM     27  C   UNL d   1       8.085   1.036  -2.691  0.00  0.00     0.034 C 
ATOM     28  C   UNL d   1       8.708  -0.207  -2.622  0.00  0.00     0.029 C 
ATOM     29  C   UNL d   1       9.923  -0.352  -3.276  0.00  0.00     0.002 C 
ATOM     30  C   UNL d   1      10.639   0.779  -3.670  0.00  0.00     0.000 C 
ATOM     31  C   UNL d   1      10.086   2.050  -3.534  0.00  0.00     0.002 C 
ATOM     32  C   UNL d   1       8.760   2.173  -3.141  0.00  0.00     0.029 C 
ENDBRANCH  12  27
BRANCH   4  33
ATOM     33  C   UNL d   1       1.491   2.786  -5.763  0.00  0.00     0.205 C 
BRANCH  33  34
ATOM     34  O   UNL d   1       0.708   3.176  -6.878  0.00  0.00    -0.396 OA
ATOM     35  H   UNL d   1       0.969   4.079  -7.127  0.00  0.00     0.209 HD
ENDBRANCH  33  34
ENDBRANCH   4  33
TORSDOF 6
