@<TRIPOS>MOLECULE
*****
 51 52 0 0 0
SMALL
GASTEIGER

@<TRIPOS>ATOM
      1 C           0.9023   -0.0384    0.0335 C.3     1  UNL1       -0.0612
      2 C           2.4211    0.0501    0.0311 C.3     1  UNL1       -0.0277
      3 C           2.9300    0.4469    1.3851 C.ar    1  UNL1       -0.0071
      4 C           3.4432   -0.3745    2.3959 C.ar    1  UNL1        0.1059
      5 C           3.7101   -1.8139    2.5385 C.2     1  UNL1        0.2607
      6 O           4.1677   -2.2741    3.5910 O.2     1  UNL1       -0.2686
      7 N           3.4391   -2.6543    1.4811 N.am    1  UNL1       -0.3076
      8 C           3.6894   -4.0904    1.4861 C.3     1  UNL1        0.0412
      9 C           3.3455   -4.7531    0.1317 C.3     1  UNL1        0.1045
     10 O           4.1156   -4.1253   -0.9051 O.3     1  UNL1       -0.3869
     11 C           3.6115   -6.2729    0.1806 C.3     1  UNL1        0.1169
     12 O           3.3380   -6.8593   -1.1005 O.3     1  UNL1       -0.4893
     13 C           3.4259   -8.2245   -1.1768 C.ar    1  UNL1        0.1210
     14 C           3.9077   -8.7448   -2.3841 C.ar    1  UNL1       -0.0135
     15 C           3.9116  -10.1258   -2.6177 C.ar    1  UNL1        0.0190
     16 C           3.4946  -10.9943   -1.6032 C.ar    1  UNL1        0.2734
     17 N           3.6252  -12.4471   -1.7811 N.pl3   1  UNL1        0.0796
     18 O           4.0899  -12.8583   -2.8538 O.2     1  UNL1        0.0414
     19 O           3.2899  -13.1754   -0.8357 O.co2   1  UNL1       -0.5760
     20 C           3.0037  -10.4836   -0.3954 C.ar    1  UNL1        0.0190
     21 C           2.9637   -9.0984   -0.1909 C.ar    1  UNL1       -0.0135
     22 N           3.6987    0.4803    3.4596 N.ar    1  UNL1       -0.3538
     23 C           3.3520    1.7827    3.1812 C.ar    1  UNL1        0.0242
     24 C           3.5043    2.8535    4.2073 C.3     1  UNL1       -0.0238
     25 C           2.8801    1.8262    1.8769 C.ar    1  UNL1        0.0412
     26 C           2.3882    3.0091    1.1201 C.2     1  UNL1        0.1621
     27 C           2.3176    4.3951    1.7124 C.3     1  UNL1       -0.0013
     28 O           2.0101    2.8983   -0.0510 O.2     1  UNL1       -0.2923
     29 H           0.5391   -0.3846   -0.9366 H       1  UNL1        0.0233
     30 H           0.4491    0.9368    0.2370 H       1  UNL1        0.0233
     31 H           0.5456   -0.7270    0.8076 H       1  UNL1        0.0233
     32 H           2.7760    0.7535   -0.7276 H       1  UNL1        0.0311
     33 H           2.8324   -0.8908   -0.3174 H       1  UNL1        0.0311
     34 H           3.1200   -2.2896    0.6055 H       1  UNL1        0.1491
     35 H           3.0980   -4.5314    2.2942 H       1  UNL1        0.0489
     36 H           4.7526   -4.2320    1.7108 H       1  UNL1        0.0489
     37 H           2.2941   -4.5750   -0.1262 H       1  UNL1        0.0643
     38 H           5.0512   -4.3527   -0.7671 H       1  UNL1        0.2100
     39 H           2.9740   -6.6984    0.9616 H       1  UNL1        0.0723
     40 H           4.6650   -6.4589    0.4171 H       1  UNL1        0.0723
     41 H           4.2901   -8.0720   -3.1495 H       1  UNL1        0.0656
     42 H           4.2373  -10.5030   -3.5854 H       1  UNL1        0.0686
     43 H           2.6376  -11.1439    0.3884 H       1  UNL1        0.0686
     44 H           2.5417   -8.7332    0.7388 H       1  UNL1        0.0656
     45 H           4.0728    0.1537    4.3436 H       1  UNL1        0.1657
     46 H           3.9080    2.4990    5.1570 H       1  UNL1        0.0292
     47 H           2.5272    3.3045    4.4223 H       1  UNL1        0.0292
     48 H           4.1837    3.6304    3.8364 H       1  UNL1        0.0292
     49 H           2.6616    4.4832    2.7302 H       1  UNL1        0.0309
     50 H           1.2789    4.7371    1.7009 H       1  UNL1        0.0309
     51 H           2.9382    5.0662    1.1124 H       1  UNL1        0.0309
@<TRIPOS>UNITY_ATOM_ATTR
17 1
charge 1
19 1
charge -1
@<TRIPOS>BOND
     1     1     2    1
     2     2     3    1
     3     3     4   ar
     4     4     5    1
     5     5     6    2
     6     5     7   am
     7     7     8    1
     8     8     9    1
     9     9    10    1
    10     9    11    1
    11    11    12    1
    12    12    13    1
    13    13    14   ar
    14    14    15   ar
    15    15    16   ar
    16    16    17    1
    17    17    18    2
    18    17    19    1
    19    16    20   ar
    20    20    21   ar
    21    13    21   ar
    22     4    22   ar
    23    22    23   ar
    24    23    24    1
    25    23    25   ar
    26     3    25   ar
    27    25    26    1
    28    26    27    1
    29    26    28    2
    30     1    29    1
    31     1    30    1
    32     1    31    1
    33     2    32    1
    34     2    33    1
    35     7    34    1
    36     8    35    1
    37     8    36    1
    38     9    37    1
    39    10    38    1
    40    11    39    1
    41    11    40    1
    42    14    41    1
    43    15    42    1
    44    20    43    1
    45    21    44    1
    46    22    45    1
    47    24    46    1
    48    24    47    1
    49    24    48    1
    50    27    49    1
    51    27    50    1
    52    27    51    1
