@<TRIPOS>MOLECULE
*****
 29 30 0 0 0
SMALL
GASTEIGER

@<TRIPOS>ATOM
      1 C           0.9748   -0.0441   -0.0822 C.3     1  UNL1       -0.0649
      2 C           2.4938   -0.0522   -0.0796 C.3     1  UNL1       -0.0504
      3 C           3.0460   -1.0660   -1.0816 C.3     1  UNL1       -0.0089
      4 C           4.5346   -1.0099   -1.1589 C.ar    1  UNL1        0.0635
      5 C           5.2964   -0.1646   -1.9966 C.ar    1  UNL1       -0.0089
      6 C           6.6177   -0.4385   -1.7155 C.ar    1  UNL1        0.1204
      7 C           7.8573    0.0917   -2.2327 C.2     1  UNL1        0.2621
      8 O           8.9435   -0.3133   -1.8191 O.2     1  UNL1       -0.2685
      9 N           7.7511    1.0763   -3.2127 N.am    1  UNL1       -0.3073
     10 C           8.9057    1.6929   -3.8101 C.3     1  UNL1        0.0236
     11 C           8.9811    1.9781   -5.2889 C.3     1  UNL1       -0.0328
     12 C           8.9002    3.1146   -4.3128 C.3     1  UNL1       -0.0328
     13 N           6.5677   -1.4121   -0.7441 N.ar    1  UNL1       -0.2723
     14 N           5.3166   -1.7761   -0.3924 N.ar    1  UNL1       -0.1782
     15 H           0.5983    0.6835    0.6432 H       1  UNL1        0.0230
     16 H           0.5790   -1.0292    0.1830 H       1  UNL1        0.0230
     17 H           0.5875    0.2286   -1.0694 H       1  UNL1        0.0230
     18 H           2.8572   -0.2845    0.9286 H       1  UNL1        0.0266
     19 H           2.8570    0.9543   -0.3233 H       1  UNL1        0.0266
     20 H           2.6431   -0.8412   -2.0780 H       1  UNL1        0.0329
     21 H           2.7041   -2.0773   -0.8300 H       1  UNL1        0.0329
     22 H           4.9082    0.5515   -2.7023 H       1  UNL1        0.0659
     23 H           6.8336    1.3777   -3.5120 H       1  UNL1        0.1493
     24 H           9.8363    1.3744   -3.3420 H       1  UNL1        0.0498
     25 H           8.1213    1.8142   -5.9268 H       1  UNL1        0.0284
     26 H           9.9277    1.7931   -5.7878 H       1  UNL1        0.0284
     27 H           7.9898    3.7007   -4.3099 H       1  UNL1        0.0284
     28 H           9.7938    3.7098   -4.1474 H       1  UNL1        0.0284
     29 H           7.3529   -1.8642   -0.2821 H       1  UNL1        0.1891
@<TRIPOS>BOND
     1     1     2    1
     2     2     3    1
     3     3     4    1
     4     4     5   ar
     5     5     6   ar
     6     6     7    1
     7     7     8    2
     8     7     9   am
     9     9    10    1
    10    10    11    1
    11    11    12    1
    12    10    12    1
    13     6    13   ar
    14    13    14   ar
    15     4    14   ar
    16     1    15    1
    17     1    16    1
    18     1    17    1
    19     2    18    1
    20     2    19    1
    21     3    20    1
    22     3    21    1
    23     5    22    1
    24     9    23    1
    25    10    24    1
    26    11    25    1
    27    11    26    1
    28    12    27    1
    29    12    28    1
    30    13    29    1
