@<TRIPOS>MOLECULE
*****
 50 52 0 0 0
SMALL
GASTEIGER

@<TRIPOS>ATOM
      1 N           1.0434   -0.1008   -0.0150 N.3     1  UNL1       -0.2544
      2 N           2.4568   -0.0353   -0.0032 N.am    1  UNL1       -0.2525
      3 C           3.1148    0.9496    0.7620 C.2     1  UNL1        0.2402
      4 O           2.5136    1.8720    1.3119 O.2     1  UNL1       -0.2731
      5 C           4.6609    0.7040    0.8179 C.3     1  UNL1        0.0751
      6 N           5.3707    1.6696    1.6341 N.3     1  UNL1       -0.2976
      7 C           6.7986    2.0048    1.4811 C.3     1  UNL1        0.0606
      8 C           7.6030    2.0123    0.1214 C.ar    1  UNL1       -0.0260
      9 C           7.7014    0.8778   -0.6786 C.ar    1  UNL1       -0.0568
     10 C           8.2368    0.9533   -1.9821 C.ar    1  UNL1       -0.0614
     11 C           8.5746    2.1733   -2.5626 C.ar    1  UNL1       -0.0617
     12 C           8.6251    3.2849   -1.7598 C.ar    1  UNL1       -0.0614
     13 C           8.2363    3.1725   -0.4229 C.ar    1  UNL1       -0.0568
     14 C           6.9644    3.3478    2.1948 C.ar    1  UNL1       -0.0038
     15 C           7.5361    3.2611    3.4972 C.ar    1  UNL1       -0.0410
     16 C           7.6878    4.3986    4.2688 C.ar    1  UNL1        0.0183
     17 BR          8.0246    4.2414    6.1236 Br      1  UNL1       -0.0503
     18 C           7.4721    5.6436    3.6960 C.ar    1  UNL1       -0.0460
     19 C           6.9610    5.7484    2.3861 C.ar    1  UNL1       -0.0391
     20 C           6.5979    4.6188    1.6311 C.ar    1  UNL1        0.0387
     21 N           6.0708    4.8853    0.2753 N.am    1  UNL1       -0.2812
     22 C           5.5172    3.9742   -0.6157 C.2     1  UNL1        0.2483
     23 O           4.9862    2.9157   -0.2754 O.2     1  UNL1       -0.2699
     24 C           5.4802    4.0187   -2.0903 C.ar    1  UNL1        0.0370
     25 C           4.8079    2.9257   -2.7271 C.ar    1  UNL1       -0.0496
     26 C           4.7934    2.7524   -4.0970 C.ar    1  UNL1       -0.0610
     27 C           5.4599    3.6842   -4.8679 C.ar    1  UNL1       -0.0617
     28 C           6.2340    4.6858   -4.2610 C.ar    1  UNL1       -0.0610
     29 C           6.2331    4.8741   -2.8726 C.ar    1  UNL1       -0.0496
     30 H           0.7153   -0.8573   -0.6152 H       1  UNL1        0.1405
     31 H           0.6880    0.7757   -0.4104 H       1  UNL1        0.1405
     32 H           2.9997   -0.7742   -0.4406 H       1  UNL1        0.1687
     33 H           4.9821    0.6930   -0.2287 H       1  UNL1        0.0520
     34 H           4.8574   -0.2755    1.2415 H       1  UNL1        0.0520
     35 H           4.8812    2.0126    2.4564 H       1  UNL1        0.1233
     36 H           7.2697    1.2051    2.0668 H       1  UNL1        0.0561
     37 H           7.2952   -0.0635   -0.3285 H       1  UNL1        0.0621
     38 H           8.3415    0.0547   -2.5775 H       1  UNL1        0.0618
     39 H           8.7613    2.2714   -3.6281 H       1  UNL1        0.0618
     40 H           8.8352    4.2676   -2.1798 H       1  UNL1        0.0618
     41 H           8.2715    4.1234    0.0938 H       1  UNL1        0.0621
     42 H           7.8266    2.2930    3.9099 H       1  UNL1        0.0632
     43 H           7.6653    6.5427    4.2756 H       1  UNL1        0.0629
     44 H           6.8182    6.7460    1.9824 H       1  UNL1        0.0636
     45 H           6.2251    5.8201   -0.0720 H       1  UNL1        0.1551
     46 H           4.3164    2.1473   -2.1380 H       1  UNL1        0.0625
     47 H           4.2766    1.8987   -4.5281 H       1  UNL1        0.0618
     48 H           5.3841    3.6219   -5.9475 H       1  UNL1        0.0618
     49 H           6.8717    5.3064   -4.8826 H       1  UNL1        0.0618
     50 H           6.8999    5.5970   -2.4200 H       1  UNL1        0.0625
@<TRIPOS>BOND
     1     1     2    1
     2     2     3   am
     3     3     4    2
     4     3     5    1
     5     5     6    1
     6     6     7    1
     7     7     8    1
     8     8     9   ar
     9     9    10   ar
    10    10    11   ar
    11    11    12   ar
    12    12    13   ar
    13     8    13   ar
    14     7    14    1
    15    14    15   ar
    16    15    16   ar
    17    16    17    1
    18    16    18   ar
    19    18    19   ar
    20    19    20   ar
    21    14    20   ar
    22    20    21    1
    23    21    22   am
    24    22    23    2
    25    22    24    1
    26    24    25   ar
    27    25    26   ar
    28    26    27   ar
    29    27    28   ar
    30    28    29   ar
    31    24    29   ar
    32     1    30    1
    33     1    31    1
    34     2    32    1
    35     5    33    1
    36     5    34    1
    37     6    35    1
    38     7    36    1
    39     9    37    1
    40    10    38    1
    41    11    39    1
    42    12    40    1
    43    13    41    1
    44    15    42    1
    45    18    43    1
    46    19    44    1
    47    21    45    1
    48    25    46    1
    49    26    47    1
    50    27    48    1
    51    28    49    1
    52    29    50    1
