REMARK  6 active torsions:
REMARK  status: ('A' for Active; 'I' for Inactive)
REMARK    1  A    between atoms: C_13  and  N_14 
REMARK    2  A    between atoms: N_17  and  C_18 
REMARK    3  A    between atoms: C_27  and  N_28 
REMARK    4  A    between atoms: N_28  and  C_29 
REMARK    5  A    between atoms: C_29  and  C_30 
REMARK    6  A    between atoms: C_30  and  O_31 
ROOT
ATOM      1  O   UNL d   1       1.059   0.492   0.038  0.00  0.00    -0.286 OA
ATOM      2  C   UNL d   1       2.243   0.262   0.007  0.00  0.00     0.196 A 
ATOM      3  C   UNL d   1       3.061   1.481   0.003  0.00  0.00     0.028 A 
ATOM      4  C   UNL d   1       2.352   2.686  -0.003  0.00  0.00     0.016 A 
ATOM      5  C   UNL d   1       3.045   3.870  -0.004  0.00  0.00     0.001 A 
ATOM      6  C   UNL d   1       4.439   3.832  -0.002  0.00  0.00     0.001 A 
ATOM      7  C   UNL d   1       5.154   2.613   0.003  0.00  0.00     0.015 A 
ATOM      8  C   UNL d   1       4.460   1.412   0.006  0.00  0.00     0.015 A 
ATOM      9  C   UNL d   1       4.994   0.068  -0.006  0.00  0.00     0.126 A 
ATOM     10  O   UNL d   1       6.311  -0.242  -0.001  0.00  0.00    -0.211 OA
ATOM     11  N   UNL d   1       6.444  -1.641  -0.047  0.00  0.00    -0.125 NA
ATOM     12  C   UNL d   1       5.191  -2.163  -0.087  0.00  0.00     0.125 A 
ATOM     13  C   UNL d   1       4.714  -3.510  -0.149  0.00  0.00     0.064 A 
ATOM     14  C   UNL d   1       3.275  -3.553  -0.109  0.00  0.00     0.062 A 
ATOM     15  C   UNL d   1       2.359  -2.406  -0.053  0.00  0.00     0.045 A 
ATOM     16  C   UNL d   1       2.895  -1.085  -0.029  0.00  0.00     0.057 A 
ATOM     17  C   UNL d   1       4.279  -1.089  -0.038  0.00  0.00     0.051 A 
ENDROOT
BRANCH  13  18
ATOM     18  N   UNL d   1       5.508  -4.633  -0.073  0.00  0.00    -0.376 N 
ATOM     19  C   UNL d   1       5.522  -5.809  -0.942  0.00  0.00     0.150 C 
ATOM     20  C   UNL d   1       5.411  -7.090  -0.074  0.00  0.00     0.255 C 
ATOM     21  N   UNL d   1       6.458  -7.111   1.086  0.00  0.00    -0.064 N 
ATOM     22  C   UNL d   1       6.670  -5.696   1.704  0.00  0.00     0.255 C 
ATOM     23  H   UNL d   1       7.361  -7.307   0.638  0.00  0.00     0.280 HD
ATOM     24  C   UNL d   1       6.687  -4.527   0.749  0.00  0.00     0.150 C 
BRANCH  21  25
ATOM     25  C   UNL d   1       6.244  -8.344   2.048  0.00  0.00     0.188 C 
ATOM     26  C   UNL d   1       7.298  -8.381   3.168  0.00  0.00     0.033 C 
ATOM     27  C   UNL d   1       7.132  -7.226   4.142  0.00  0.00     0.002 C 
ATOM     28  C   UNL d   1       5.681  -6.983   4.574  0.00  0.00     0.000 C 
ATOM     29  C   UNL d   1       4.564  -7.186   3.528  0.00  0.00     0.002 C 
ATOM     30  C   UNL d   1       4.836  -8.398   2.663  0.00  0.00     0.033 C 
ENDBRANCH  21  25
ENDBRANCH  13  18
BRANCH  15  31
ATOM     31  N   UNL d   1       0.989  -2.713   0.044  0.00  0.00    -0.387 N 
ATOM     32  H   UNL d   1       0.666  -3.663  -0.067  0.00  0.00     0.159 HD
BRANCH  31  33
ATOM     33  C   UNL d   1      -0.023  -1.663  -0.004  0.00  0.00     0.146 C 
BRANCH  33  34
ATOM     34  C   UNL d   1      -1.480  -2.067   0.001  0.00  0.00     0.183 C 
BRANCH  34  35
ATOM     35  O   UNL d   1      -2.322  -0.907  -0.001  0.00  0.00    -0.399 OA
ATOM     36  H   UNL d   1      -2.045  -0.318   0.726  0.00  0.00     0.209 HD
ENDBRANCH  34  35
ENDBRANCH  33  34
ENDBRANCH  31  33
ENDBRANCH  15  31
TORSDOF 6
