REMARK  8 active torsions:
REMARK  status: ('A' for Active; 'I' for Inactive)
REMARK    1  A    between atoms: C_2  and  C_3 
REMARK       I    between atoms: C_2  and  N_19 
REMARK    2  A    between atoms: C_3  and  C_4 
REMARK    3  A    between atoms: C_4  and  C_5 
REMARK    4  A    between atoms: C_8  and  C_9 
REMARK       I    between atoms: C_9  and  N_11 
REMARK    5  A    between atoms: N_11  and  C_12 
REMARK    6  A    between atoms: N_19  and  C_20 
REMARK    7  A    between atoms: C_20  and  C_21 
REMARK    8  A    between atoms: C_21  and  C_22 
ROOT
ATOM      1  C   UNL d   1       2.910   0.783  -0.985  0.00  0.00     0.105 C 
ENDROOT
BRANCH   1   2
ATOM      2  C   UNL d   1       2.146  -0.005   0.051  0.00  0.00     0.217 C 
ATOM      3  O   UNL d   1       0.933  -0.070   0.120  0.00  0.00    -0.274 OA
ATOM      4  N   UNL d   1       2.921  -0.691   0.945  0.00  0.00    -0.361 N 
ATOM      5  H   UNL d   1       2.374  -1.206   1.629  0.00  0.00     0.162 HD
BRANCH   4   6
ATOM      6  C   UNL d   1       4.362  -0.696   0.950  0.00  0.00     0.127 C 
BRANCH   6   7
ATOM      7  C   UNL d   1       4.888  -1.564   2.057  0.00  0.00     0.056 C 
BRANCH   7   8
ATOM      8  C   UNL d   1       6.370  -1.687   2.155  0.00  0.00    -0.048 A 
ATOM      9  C   UNL d   1       6.901  -2.361   3.172  0.00  0.00    -0.004 A 
ATOM     10  C   UNL d   1       6.274  -2.997   4.273  0.00  0.00     0.037 C 
ATOM     11  C   UNL d   1       8.352  -2.255   3.028  0.00  0.00     0.038 A 
ATOM     12  C   UNL d   1       7.045  -3.372   5.297  0.00  0.00     0.035 C 
ATOM     13 CL   UNL d   1       6.300  -3.832   6.775  0.00  0.00    -0.084 Cl
ATOM     14  C   UNL d   1       8.498  -3.319   5.197  0.00  0.00     0.026 C 
ATOM     15  C   UNL d   1       9.163  -2.817   4.130  0.00  0.00     0.031 C 
ATOM     16  N   UNL d   1       8.672  -1.649   1.946  0.00  0.00    -0.385 N 
ATOM     17  C   UNL d   1       7.444  -1.108   1.278  0.00  0.00     0.155 A 
ATOM     18  H   UNL d   1       9.636  -1.564   1.624  0.00  0.00     0.160 HD
ENDBRANCH   7   8
ENDBRANCH   6   7
ENDBRANCH   4   6
ENDBRANCH   1   2
BRANCH   1  19
ATOM     19  C   UNL d   1       1.975   1.481  -1.947  0.00  0.00     0.041 C 
BRANCH  19  20
ATOM     20  C   UNL d   1       2.713   2.346  -2.967  0.00  0.00     0.135 C 
ATOM     21  N   UNL d   1       4.176   2.125  -3.071  0.00  0.00    -0.245 NA
ATOM     22  N   UNL d   1       4.870   3.396  -3.385  0.00  0.00    -0.237 NA
ATOM     23  H   UNL d   1       4.360   1.392  -3.761  0.00  0.00     0.142 HD
ATOM     24  C   UNL d   1       3.896   4.505  -3.526  0.00  0.00     0.226 C 
ATOM     25  H   UNL d   1       5.458   3.329  -4.215  0.00  0.00     0.142 HD
ATOM     26  S   UNL d   1       2.500   4.073  -2.493  0.00  0.00    -0.117 SA
BRANCH  24  27
ATOM     27  C   UNL d   1       3.442   4.632  -5.002  0.00  0.00     0.251 C 
ATOM     28  O   UNL d   1       2.328   4.272  -5.389  0.00  0.00    -0.270 OA
ATOM     29  N   UNL d   1       4.417   5.112  -5.872  0.00  0.00    -0.325 N 
ATOM     30  H   UNL d   1       5.379   5.195  -5.571  0.00  0.00     0.169 HD
BRANCH  29  31
ATOM     31  C   UNL d   1       4.132   5.345  -7.234  0.00  0.00     0.034 A 
ATOM     32  C   UNL d   1       5.080   5.040  -8.211  0.00  0.00     0.029 A 
ATOM     33  C   UNL d   1       4.804   5.320  -9.554  0.00  0.00     0.002 A 
ATOM     34  C   UNL d   1       3.577   5.876  -9.922  0.00  0.00     0.000 A 
ATOM     35  C   UNL d   1       2.635   6.185  -8.947  0.00  0.00     0.002 A 
ATOM     36  C   UNL d   1       2.913   5.920  -7.610  0.00  0.00     0.029 A 
ENDBRANCH  29  31
ENDBRANCH  24  27
ENDBRANCH  19  20
ENDBRANCH   1  19
TORSDOF 8
