@<TRIPOS>MOLECULE
*****
 53 56 0 0 0
SMALL
GASTEIGER

@<TRIPOS>ATOM
      1 O           0.7789   -0.0305    0.2360 O.3     1  UNL1       -0.3847
      2 C           2.1858   -0.0543    0.0040 C.3     1  UNL1        0.1142
      3 C           2.4319    0.2932   -1.4524 C.3     1  UNL1        0.0725
      4 N           2.1440   -0.7561   -2.3860 N.ar    1  UNL1       -0.2669
      5 C           2.5685   -2.0388   -2.2854 C.ar    1  UNL1        0.0468
      6 C           2.1300   -2.6548   -3.4188 C.ar    1  UNL1        0.0714
      7 N           2.2580   -3.9739   -3.6907 N.pl3   1  UNL1       -0.2811
      8 C           2.8194   -4.9048   -2.8155 C.ar    1  UNL1        0.2226
      9 N           3.9291   -5.5400   -3.2177 N.ar    1  UNL1       -0.2225
     10 C           4.5568   -6.2924   -2.2998 C.ar    1  UNL1        0.0362
     11 C           4.0889   -6.4891   -1.0259 C.ar    1  UNL1        0.0186
     12 C           2.9311   -5.8230   -0.7009 C.ar    1  UNL1        0.2248
     13 O           2.2960   -5.8926    0.5210 O.3     1  UNL1       -0.4379
     14 C           2.8463   -6.6317    1.5399 C.ar    1  UNL1        0.1305
     15 C           4.1114   -6.3475    2.0676 C.ar    1  UNL1       -0.0166
     16 C           4.6116   -7.1135    3.1200 C.ar    1  UNL1       -0.0230
     17 C           3.8208   -8.1127    3.6764 C.ar    1  UNL1        0.1236
     18 F           4.2920   -8.8221    4.7093 F       1  UNL1       -0.2055
     19 C           2.5465   -8.3761    3.1853 C.ar    1  UNL1       -0.0230
     20 C           2.0561   -7.6342    2.1087 C.ar    1  UNL1       -0.0166
     21 N           2.3141   -5.0102   -1.5730 N.ar    1  UNL1       -0.1789
     22 C           1.5924   -1.6254   -4.2113 C.ar    1  UNL1        0.0706
     23 N           1.6391   -0.4434   -3.5817 N.ar    1  UNL1       -0.1777
     24 C           2.9113    0.9509    0.9248 C.3     1  UNL1       -0.0035
     25 N           4.4575    0.9919    0.8192 N.4     1  UNL1        0.2371
     26 C           5.0107    2.3337    0.3481 C.3     1  UNL1       -0.0316
     27 C           5.1528    2.1496   -1.1443 C.3     1  UNL1       -0.0077
     28 C           5.6735    0.7190   -1.2840 C.3     1  UNL1       -0.0077
     29 C           5.2003   -0.0393   -0.0322 C.3     1  UNL1       -0.0316
     30 H           0.3604   -0.6341   -0.4174 H       1  UNL1        0.2101
     31 H           2.5168   -1.0603    0.2808 H       1  UNL1        0.0665
     32 H           3.4749    0.4151   -1.6214 H       1  UNL1        0.0536
     33 H           1.9588    1.2291   -1.7580 H       1  UNL1        0.0536
     34 H           3.1038   -2.4279   -1.4259 H       1  UNL1        0.0845
     35 H           2.1705   -4.3426   -4.6238 H       1  UNL1        0.1551
     36 H           5.4918   -6.7459   -2.6182 H       1  UNL1        0.0832
     37 H           4.6255   -7.1296   -0.3454 H       1  UNL1        0.0686
     38 H           4.7213   -5.5518    1.6515 H       1  UNL1        0.0655
     39 H           5.6066   -6.9370    3.5159 H       1  UNL1        0.0647
     40 H           1.9448   -9.1538    3.6462 H       1  UNL1        0.0647
     41 H           1.0613   -7.8395    1.7196 H       1  UNL1        0.0655
     42 H           1.1673   -1.6627   -5.2020 H       1  UNL1        0.0867
     43 H           2.6864    0.7161    1.9743 H       1  UNL1        0.0841
     44 H           2.5302    1.9668    0.7618 H       1  UNL1        0.0841
     45 H           4.7847    0.8689    1.7893 H       1  UNL1        0.2034
     46 H           5.9910    2.4570    0.8203 H       1  UNL1        0.0814
     47 H           4.3450    3.1466    0.6482 H       1  UNL1        0.0814
     48 H           5.8185    2.8743   -1.6173 H       1  UNL1        0.0319
     49 H           4.1746    2.2942   -1.6183 H       1  UNL1        0.0319
     50 H           6.7637    0.6992   -1.3475 H       1  UNL1        0.0319
     51 H           5.3260    0.2541   -2.2172 H       1  UNL1        0.0319
     52 H           6.0472   -0.4062    0.5545 H       1  UNL1        0.0814
     53 H           4.5589   -0.8970   -0.2379 H       1  UNL1        0.0814
@<TRIPOS>UNITY_ATOM_ATTR
25 1
charge 1
@<TRIPOS>BOND
     1     1     2    1
     2     2     3    1
     3     3     4    1
     4     4     5   ar
     5     5     6   ar
     6     6     7    1
     7     7     8    1
     8     8     9   ar
     9     9    10   ar
    10    10    11   ar
    11    11    12   ar
    12    12    13    1
    13    13    14    1
    14    14    15   ar
    15    15    16   ar
    16    16    17   ar
    17    17    18    1
    18    17    19   ar
    19    19    20   ar
    20    14    20   ar
    21    12    21   ar
    22     8    21   ar
    23     6    22   ar
    24    22    23   ar
    25     4    23   ar
    26     2    24    1
    27    24    25    1
    28    25    26    1
    29    26    27    1
    30    27    28    1
    31    28    29    1
    32    25    29    1
    33     1    30    1
    34     2    31    1
    35     3    32    1
    36     3    33    1
    37     5    34    1
    38     7    35    1
    39    10    36    1
    40    11    37    1
    41    15    38    1
    42    16    39    1
    43    19    40    1
    44    20    41    1
    45    22    42    1
    46    24    43    1
    47    24    44    1
    48    25    45    1
    49    26    46    1
    50    26    47    1
    51    27    48    1
    52    27    49    1
    53    28    50    1
    54    28    51    1
    55    29    52    1
    56    29    53    1
