REMARK  10 active torsions:
REMARK  status: ('A' for Active; 'I' for Inactive)
REMARK    1  A    between atoms: C_2  and  C_3 
REMARK       I    between atoms: C_2  and  N_13 
REMARK    2  A    between atoms: C_3  and  S_4 
REMARK    3  A    between atoms: S_4  and  C_5 
REMARK    4  A    between atoms: C_5  and  C_6 
REMARK    5  A    between atoms: C_6  and  C_7 
REMARK    6  A    between atoms: N_13  and  N_14 
REMARK       I    between atoms: N_14  and  C_15 
REMARK       I    between atoms: C_15  and  N_17 
REMARK    7  A    between atoms: N_17  and  C_18 
REMARK    8  A    between atoms: C_18  and  C_19 
REMARK    9  A    between atoms: C_19  and  C_20 
REMARK   10  A    between atoms: C_20  and  N_21 
ROOT
ATOM      1  N   UNL d   1       4.455  -1.001   0.904  0.00  0.00    -0.249 N 
ATOM      2  C   UNL d   1       5.047  -1.932   1.748  0.00  0.00     0.334 C 
ATOM      3  O   UNL d   1       4.410  -2.712   2.456  0.00  0.00    -0.246 OA
ATOM      4  N   UNL d   1       6.429  -1.908   1.730  0.00  0.00    -0.342 N 
ATOM      5  H   UNL d   1       4.993  -0.373   0.327  0.00  0.00     0.192 HD
ATOM      6  H   UNL d   1       6.893  -1.258   1.115  0.00  0.00     0.164 HD
ENDROOT
BRANCH   1   7
ATOM      7  N   UNL d   1       3.050  -0.944   0.849  0.00  0.00    -0.265 N 
ATOM      8  C   UNL d   1       2.268  -0.101   0.084  0.00  0.00     0.245 C 
ATOM      9  O   UNL d   1       1.044  -0.215   0.187  0.00  0.00    -0.271 OA
ATOM     10  H   UNL d   1       2.540  -1.601   1.446  0.00  0.00     0.190 HD
BRANCH   8  11
ATOM     11  C   UNL d   1       2.949   0.921  -0.845  0.00  0.00     0.178 C 
BRANCH  11  12
ATOM     12  S   UNL d   1       1.682   1.909  -1.742  0.00  0.00    -0.159 SA
BRANCH  12  13
ATOM     13  C   UNL d   1       2.684   3.028  -2.781  0.00  0.00     0.079 C 
BRANCH  13  14
ATOM     14  C   UNL d   1       1.719   3.896  -3.611  0.00  0.00     0.049 C 
BRANCH  14  15
ATOM     15  C   UNL d   1       2.419   4.920  -4.475  0.00  0.00    -0.058 A 
ATOM     16  C   UNL d   1       3.468   4.575  -5.337  0.00  0.00     0.007 A 
ATOM     17  C   UNL d   1       4.147   5.564  -6.052  0.00  0.00     0.001 A 
ATOM     18  C   UNL d   1       3.721   6.889  -5.990  0.00  0.00     0.000 A 
ATOM     19  C   UNL d   1       2.644   7.235  -5.179  0.00  0.00     0.001 A 
ATOM     20  C   UNL d   1       2.000   6.258  -4.423  0.00  0.00     0.007 A 
ENDBRANCH  14  15
ENDBRANCH  13  14
ENDBRANCH  12  13
ENDBRANCH  11  12
ENDBRANCH   8  11
ENDBRANCH   1   7
BRANCH   4  21
ATOM     21  C   UNL d   1       7.211  -2.831   2.554  0.00  0.00     0.126 C 
BRANCH  21  22
ATOM     22  C   UNL d   1       8.723  -2.652   2.393  0.00  0.00     0.040 C 
BRANCH  22  23
ATOM     23  C   UNL d   1       9.530  -3.611   3.277  0.00  0.00     0.130 C 
BRANCH  23  24
ATOM     24  N   UNL d   1      10.989  -3.437   3.102  0.00  0.00    -0.352 N 
ATOM     25  C   UNL d   1      11.930  -4.463   3.002  0.00  0.00     0.108 A 
ATOM     26  C   UNL d   1      13.152  -3.871   2.843  0.00  0.00     0.106 A 
ATOM     27  N   UNL d   1      12.930  -2.517   2.871  0.00  0.00    -0.361 N 
ATOM     28  C   UNL d   1      11.633  -2.257   3.054  0.00  0.00     0.182 A 
ATOM     29  H   UNL d   1      13.646  -1.800   2.777  0.00  0.00     0.166 HD
ENDBRANCH  23  24
ENDBRANCH  22  23
ENDBRANCH  21  22
ENDBRANCH   4  21
TORSDOF 10
