REMARK  7 active torsions:
REMARK  status: ('A' for Active; 'I' for Inactive)
REMARK    1  A    between atoms: C_6  and  S_7 
REMARK    2  A    between atoms: S_7  and  C_8 
REMARK    3  A    between atoms: C_8  and  C_9 
REMARK    4  A    between atoms: C_12  and  C_13 
REMARK       I    between atoms: C_13  and  N_15 
REMARK    5  A    between atoms: N_15  and  N_16 
REMARK       I    between atoms: N_16  and  C_17 
REMARK    6  A    between atoms: C_17  and  C_19 
REMARK    7  A    between atoms: C_19  and  C_20 
ROOT
ATOM      1  C   UNL d   1      -3.682  -8.728   0.428  0.00  0.00     0.270 C 
ATOM      2  O   UNL d   1      -4.780  -9.005   0.912  0.00  0.00    -0.266 OA
ATOM      3  N   UNL d   1      -2.812  -9.733  -0.131  0.00  0.00    -0.263 N 
ATOM      4  H   UNL d   1      -1.920  -9.498  -0.553  0.00  0.00     0.190 HD
ENDROOT
BRANCH   1   5
ATOM      5  C   UNL d   1      -3.269  -7.229   0.400  0.00  0.00     0.033 A 
ATOM      6  C   UNL d   1      -4.125  -6.192   0.873  0.00  0.00     0.017 A 
ATOM      7  C   UNL d   1      -3.799  -4.812   0.728  0.00  0.00     0.009 A 
ATOM      8  C   UNL d   1      -2.556  -4.431   0.204  0.00  0.00    -0.048 A 
ATOM      9  C   UNL d   1      -1.728  -5.454  -0.272  0.00  0.00     0.009 A 
ATOM     10  C   UNL d   1      -2.061  -6.814  -0.155  0.00  0.00     0.017 A 
BRANCH   8  11
ATOM     11  C   UNL d   1      -2.117  -2.972   0.162  0.00  0.00     0.121 C 
BRANCH  11  12
ATOM     12  S   UNL d   1      -0.317  -2.739   0.111  0.00  0.00    -0.086 SA
BRANCH  12  13
ATOM     13  C   UNL d   1       0.034  -1.048   0.065  0.00  0.00     0.184 A 
ATOM     14  N   UNL d   1       1.302  -0.679  -0.047  0.00  0.00    -0.152 NA
ATOM     15  N   UNL d   1       1.286   0.680  -0.102  0.00  0.00    -0.293 N 
ATOM     16  C   UNL d   1      -0.048   1.192   0.055  0.00  0.00     0.267 A 
ATOM     17  H   UNL d   1       2.125   1.243  -0.066  0.00  0.00     0.184 HD
ATOM     18  N   UNL d   1      -0.858  -0.004   0.162  0.00  0.00    -0.346 N 
ATOM     19  C   UNL d   1      -2.259   0.039  -0.096  0.00  0.00     0.153 C 
ENDBRANCH  12  13
ENDBRANCH  11  12
ENDBRANCH   8  11
ENDBRANCH   1   5
BRANCH   3  20
ATOM     20  N   UNL d   1      -3.235 -11.254  -0.287  0.00  0.00    -0.267 N 
ATOM     21  C   UNL d   1      -2.377 -12.285  -0.953  0.00  0.00     0.237 C 
ATOM     22  O   UNL d   1      -1.247 -11.936  -1.312  0.00  0.00    -0.272 OA
ATOM     23  H   UNL d   1      -4.120 -11.427   0.185  0.00  0.00     0.190 HD
BRANCH  21  24
ATOM     24  C   UNL d   1      -3.037 -13.940  -1.170  0.00  0.00     0.121 C 
BRANCH  24  25
ATOM     25  C   UNL d   1      -2.229 -15.500  -1.719  0.00  0.00     0.028 C 
ATOM     26  C   UNL d   1      -1.586 -15.906  -0.581  0.00  0.00     0.094 C 
ATOM     27  N   UNL d   1      -0.513 -16.265  -1.323  0.00  0.00    -0.285 NA
ATOM     28  C   UNL d   1      -0.948 -17.456  -1.821  0.00  0.00     0.015 C 
ATOM     29  H   UNL d   1       0.020 -15.688  -1.958  0.00  0.00     0.128 HD
ATOM     30  C   UNL d   1      -0.031 -18.589  -1.754  0.00  0.00     0.024 C 
ATOM     31  C   UNL d   1      -2.415 -17.195  -2.217  0.00  0.00    -0.025 C 
ATOM     32  C   UNL d   1      -0.323 -19.877  -2.072  0.00  0.00     0.002 C 
ATOM     33  C   UNL d   1      -1.606 -19.981  -2.482  0.00  0.00     0.001 C 
ATOM     34  C   UNL d   1      -2.473 -18.722  -2.596  0.00  0.00     0.010 C 
ENDBRANCH  24  25
ENDBRANCH  21  24
ENDBRANCH   3  20
TORSDOF 7
