REMARK  8 active torsions:
REMARK  status: ('A' for Active; 'I' for Inactive)
REMARK       I    between atoms: C_2  and  N_3 
REMARK    1  A    between atoms: C_2  and  C_13 
REMARK    2  A    between atoms: N_3  and  N_4 
REMARK    3  A    between atoms: C_5  and  C_6 
REMARK    4  A    between atoms: C_11  and  O_12 
REMARK    5  A    between atoms: C_15  and  C_16 
REMARK    6  A    between atoms: C_19  and  O_20 
REMARK    7  A    between atoms: O_20  and  C_21 
REMARK    8  A    between atoms: C_21  and  C_22 
ROOT
ATOM      1  C   UNL d   1       2.951  -1.101  -0.626  0.00  0.00     0.121 A 
ATOM      2  C   UNL d   1       2.616  -1.756  -1.799  0.00  0.00     0.071 A 
ATOM      3  C   UNL d   1       3.594  -2.758  -2.012  0.00  0.00     0.089 A 
ATOM      4  N   UNL d   1       4.472  -2.766  -0.998  0.00  0.00    -0.174 NA
ATOM      5  N   UNL d   1       4.053  -1.777  -0.176  0.00  0.00    -0.272 N 
ATOM      6  H   UNL d   1       4.548  -1.660   0.702  0.00  0.00     0.189 HD
ENDROOT
BRANCH   3   7
ATOM      7  C   UNL d   1       3.683  -3.656  -3.165  0.00  0.00    -0.005 A 
ATOM      8  C   UNL d   1       3.765  -3.118  -4.457  0.00  0.00     0.016 A 
ATOM      9  C   UNL d   1       3.827  -3.949  -5.582  0.00  0.00     0.037 A 
ATOM     10  C   UNL d   1       3.798  -5.335  -5.434  0.00  0.00     0.069 A 
ATOM     11  C   UNL d   1       3.700  -5.878  -4.150  0.00  0.00     0.037 A 
ATOM     12  C   UNL d   1       3.648  -5.047  -3.020  0.00  0.00     0.016 A 
BRANCH  10  13
ATOM     13  O   UNL d   1       3.855  -6.244  -6.454  0.00  0.00    -0.347 OA
BRANCH  13  14
ATOM     14  C   UNL d   1       4.011  -5.718  -7.779  0.00  0.00     0.216 C 
BRANCH  14  15
ATOM     15  C   UNL d   1       4.127  -6.880  -8.734  0.00  0.00    -0.012 A 
ATOM     16  C   UNL d   1       3.091  -7.833  -8.761  0.00  0.00     0.011 A 
ATOM     17  C   UNL d   1       3.201  -8.989  -9.535  0.00  0.00     0.001 A 
ATOM     18  C   UNL d   1       4.312  -9.175 -10.350  0.00  0.00     0.002 A 
ATOM     19  C   UNL d   1       5.324  -8.216 -10.375  0.00  0.00     0.024 A 
ATOM     20  C   UNL d   1       5.236  -7.075  -9.572  0.00  0.00     0.042 A 
ATOM     21 CL   UNL d   1       6.534  -5.938  -9.675  0.00  0.00    -0.084 Cl
ENDBRANCH  14  15
ENDBRANCH  13  14
ENDBRANCH  10  13
ENDBRANCH   3   7
BRANCH   1  22
ATOM     22  C   UNL d   1       2.200  -0.046   0.026  0.00  0.00     0.289 C 
ATOM     23  O   UNL d   1       0.964  -0.063  -0.010  0.00  0.00    -0.264 OA
ATOM     24  N   UNL d   1       2.919   0.999   0.617  0.00  0.00    -0.242 N 
ATOM     25  H   UNL d   1       3.926   1.067   0.544  0.00  0.00     0.192 HD
BRANCH  24  26
ATOM     26  N   UNL d   1       2.209   2.058   1.153  0.00  0.00    -0.183 NA
ATOM     27  C   UNL d   1       2.855   3.087   1.604  0.00  0.00     0.153 C 
BRANCH  27  28
ATOM     28  C   UNL d   1       2.166   4.263   2.214  0.00  0.00     0.016 A 
ATOM     29  C   UNL d   1       2.667   5.548   1.955  0.00  0.00     0.016 A 
ATOM     30  C   UNL d   1       2.071   6.675   2.540  0.00  0.00     0.001 A 
ATOM     31  C   UNL d   1       0.983   6.524   3.399  0.00  0.00     0.003 A 
ATOM     32  C   UNL d   1       0.480   5.249   3.667  0.00  0.00     0.037 A 
ATOM     33  C   UNL d   1       1.070   4.125   3.076  0.00  0.00     0.077 A 
BRANCH  33  34
ATOM     34  O   UNL d   1       0.612   2.881   3.402  0.00  0.00    -0.360 OA
ATOM     35  H   UNL d   1      -0.230   2.948   3.877  0.00  0.00     0.217 HD
ENDBRANCH  33  34
ENDBRANCH  27  28
ENDBRANCH  24  26
ENDBRANCH   1  22
TORSDOF 8
