@<TRIPOS>MOLECULE
*****
 65 67 0 0 0
SMALL
GASTEIGER

@<TRIPOS>ATOM
      1 N           3.7599   -7.9250    5.3588 N.am    1  UNL1       -0.3120
      2 C           4.6791   -7.4525    4.4723 C.2     1  UNL1        0.3165
      3 O           4.5208   -6.3270    4.0129 O.2     1  UNL1       -0.2513
      4 N           5.7056   -8.3368    4.1869 N.am    1  UNL1       -0.1912
      5 N           6.6706   -7.9501    3.3069 N.2     1  UNL1       -0.1895
      6 C           7.6896   -8.7106    3.0600 C.2     1  UNL1        0.0437
      7 C           8.8166   -8.2488    2.0961 C.3     1  UNL1        0.0640
      8 C           9.9370   -9.3164    1.9983 C.3     1  UNL1       -0.0041
      9 C           9.7642  -10.4228    0.9788 C.ar    1  UNL1       -0.0453
     10 C           8.5554  -10.6334    0.3087 C.ar    1  UNL1       -0.0585
     11 C           8.3887  -11.7298   -0.5348 C.ar    1  UNL1       -0.0615
     12 C           9.4540  -12.5862   -0.7917 C.ar    1  UNL1       -0.0617
     13 C          10.6749  -12.3821   -0.1551 C.ar    1  UNL1       -0.0615
     14 C          10.8268  -11.3149    0.7357 C.ar    1  UNL1       -0.0585
     15 N           9.3618   -7.0067    2.6164 N.am    1  UNL1       -0.3057
     16 C           8.6597   -5.8237    2.5831 C.2     1  UNL1        0.2343
     17 O           7.5262   -5.7331    2.1220 O.2     1  UNL1       -0.2738
     18 C           9.3269   -4.6291    3.2726 C.3     1  UNL1        0.1064
     19 C           8.8383   -3.3641    2.5341 C.3     1  UNL1       -0.0005
     20 C           9.2592   -2.0672    3.1799 C.ar    1  UNL1       -0.0451
     21 C           9.8013   -2.0339    4.4731 C.ar    1  UNL1       -0.0585
     22 C          10.0762   -0.8343    5.1075 C.ar    1  UNL1       -0.0615
     23 C           9.8794    0.3578    4.4276 C.ar    1  UNL1       -0.0617
     24 C           9.3548    0.3486    3.1344 C.ar    1  UNL1       -0.0615
     25 C           9.0322   -0.8582    2.5130 C.ar    1  UNL1       -0.0585
     26 N          10.8008   -4.7232    3.3127 N.am    1  UNL1       -0.2695
     27 C          11.4539   -5.5462    4.1792 C.2     1  UNL1        0.4012
     28 O          10.8908   -6.3757    4.8923 O.2     1  UNL1       -0.2265
     29 O          12.7919   -5.4399    4.0505 O.3     1  UNL1       -0.4456
     30 C          13.5110   -6.4498    4.7838 C.3     1  UNL1        0.1191
     31 C          15.0009   -6.2473    4.6420 C.ar    1  UNL1       -0.0103
     32 C          15.8890   -7.3352    4.6311 C.ar    1  UNL1       -0.0554
     33 C          17.2706   -7.1195    4.6654 C.ar    1  UNL1       -0.0614
     34 C          17.7769   -5.8215    4.6319 C.ar    1  UNL1       -0.0617
     35 C          16.9047   -4.7368    4.6212 C.ar    1  UNL1       -0.0614
     36 C          15.5279   -4.9492    4.6436 C.ar    1  UNL1       -0.0554
     37 H           2.9924   -7.2959    5.5614 H       1  UNL1        0.1465
     38 H           3.7845   -8.8265    5.7997 H       1  UNL1        0.1465
     39 H           5.7800   -9.2200    4.6663 H       1  UNL1        0.1788
     40 H           7.7989   -9.7046    3.5214 H       1  UNL1        0.0817
     41 H           8.3949   -8.0036    1.1156 H       1  UNL1        0.0561
     42 H          10.8986   -8.8275    1.7830 H       1  UNL1        0.0335
     43 H          10.0487   -9.8025    2.9767 H       1  UNL1        0.0335
     44 H           7.7139   -9.9570    0.4254 H       1  UNL1        0.0620
     45 H           7.4171  -11.9122   -0.9853 H       1  UNL1        0.0618
     46 H           9.3283  -13.4083   -1.4907 H       1  UNL1        0.0618
     47 H          11.5009  -13.0644   -0.3427 H       1  UNL1        0.0618
     48 H          11.7853  -11.1898    1.2376 H       1  UNL1        0.0620
     49 H          10.3359   -6.9695    2.8755 H       1  UNL1        0.1494
     50 H           8.9527   -4.6270    4.3067 H       1  UNL1        0.0599
     51 H           9.1908   -3.3943    1.4931 H       1  UNL1        0.0336
     52 H           7.7384   -3.3540    2.4879 H       1  UNL1        0.0336
     53 H          10.0169   -2.9386    5.0320 H       1  UNL1        0.0620
     54 H          10.4286   -0.8495    6.1340 H       1  UNL1        0.0618
     55 H          10.1315    1.2937    4.9141 H       1  UNL1        0.0618
     56 H           9.1767    1.2876    2.6188 H       1  UNL1        0.0618
     57 H           8.5937   -0.8485    1.5160 H       1  UNL1        0.0620
     58 H          11.3424   -3.9685    2.9049 H       1  UNL1        0.1528
     59 H          13.2282   -7.4412    4.4060 H       1  UNL1        0.0749
     60 H          13.2634   -6.3838    5.8514 H       1  UNL1        0.0749
     61 H          15.5201   -8.3588    4.6075 H       1  UNL1        0.0621
     62 H          17.9558   -7.9615    4.7322 H       1  UNL1        0.0618
     63 H          18.8505   -5.6536    4.6164 H       1  UNL1        0.0618
     64 H          17.2918   -3.7220    4.6166 H       1  UNL1        0.0618
     65 H          14.8587   -4.0924    4.6673 H       1  UNL1        0.0621
@<TRIPOS>BOND
     1     1     2   am
     2     2     3    2
     3     2     4   am
     4     4     5    1
     5     5     6    2
     6     8     9    1
     7     9    10   ar
     8    10    11   ar
     9    11    12   ar
    10    12    13   ar
    11    13    14   ar
    12     9    14   ar
    13     7    15    1
    14    15    16   am
    15    16    17    2
    16    19    20    1
    17    20    21   ar
    18    21    22   ar
    19    22    23   ar
    20    23    24   ar
    21    24    25   ar
    22    20    25   ar
    23    18    26    1
    24    26    27   am
    25    27    28    2
    26    27    29    1
    27    29    30    1
    28    30    31    1
    29    31    32   ar
    30    32    33   ar
    31    33    34   ar
    32    34    35   ar
    33    35    36   ar
    34    31    36   ar
    35    18    19    1
    36    18    16    1
    37     7     8    1
    38     7     6    1
    39     1    37    1
    40     1    38    1
    41     4    39    1
    42     6    40    1
    43     7    41    1
    44     8    42    1
    45     8    43    1
    46    10    44    1
    47    11    45    1
    48    12    46    1
    49    13    47    1
    50    14    48    1
    51    15    49    1
    52    18    50    1
    53    19    51    1
    54    19    52    1
    55    21    53    1
    56    22    54    1
    57    23    55    1
    58    24    56    1
    59    25    57    1
    60    26    58    1
    61    30    59    1
    62    30    60    1
    63    32    61    1
    64    33    62    1
    65    34    63    1
    66    35    64    1
    67    36    65    1
