REMARK  4 active torsions:
REMARK  status: ('A' for Active; 'I' for Inactive)
REMARK    1  A    between atoms: C_2  and  C_3 
REMARK    2  A    between atoms: C_3  and  N_4 
REMARK       I    between atoms: N_4  and  C_5 
REMARK       I    between atoms: C_5  and  N_7 
REMARK    3  A    between atoms: N_7  and  N_8 
REMARK    4  A    between atoms: N_8  and  C_9 
ROOT
ATOM      1  C   UNL d   1       6.632  -3.953   2.993  0.00  0.00     0.049 A 
ATOM      2  C   UNL d   1       7.163  -4.338   1.757  0.00  0.00     0.031 A 
ATOM      3  C   UNL d   1       7.994  -5.466   1.635  0.00  0.00     0.004 A 
ATOM      4  C   UNL d   1       8.303  -6.242   2.750  0.00  0.00     0.023 A 
ATOM      5  C   UNL d   1       7.811  -5.869   4.001  0.00  0.00     0.046 A 
ATOM      6  C   UNL d   1       8.197  -6.626   5.163  0.00  0.00     0.099 C 
ATOM      7  N   UNL d   1       8.543  -7.237   6.083  0.00  0.00    -0.191 NA
ATOM      8  C   UNL d   1       6.974  -4.740   4.114  0.00  0.00     0.053 A 
ENDROOT
BRANCH   1   9
ATOM      9  N   UNL d   1       5.766  -2.857   3.150  0.00  0.00    -0.297 N 
ATOM     10  H   UNL d   1       5.839  -2.248   3.966  0.00  0.00     0.187 HD
BRANCH   9  11
ATOM     11  N   UNL d   1       4.788  -2.517   2.183  0.00  0.00    -0.251 N 
ATOM     12  C   UNL d   1       3.937  -1.442   2.474  0.00  0.00     0.334 C 
ATOM     13  N   UNL d   1       2.906  -1.258   1.568  0.00  0.00    -0.341 N 
ATOM     14  O   UNL d   1       4.109  -0.699   3.438  0.00  0.00    -0.246 OA
ATOM     15  H   UNL d   1       2.804  -1.907   0.804  0.00  0.00     0.164 HD
ATOM     16  H   UNL d   1       4.564  -3.225   1.496  0.00  0.00     0.191 HD
BRANCH  13  17
ATOM     17  C   UNL d   1       1.965  -0.119   1.652  0.00  0.00     0.133 C 
BRANCH  17  18
ATOM     18  C   UNL d   1       0.938  -0.048   0.487  0.00  0.00    -0.028 C 
ATOM     19  C   UNL d   1       1.711   0.034  -0.841  0.00  0.00     0.016 C 
ATOM     20  C   UNL d   1      -0.040   1.150   0.577  0.00  0.00     0.011 C 
ATOM     21  C   UNL d   1      -1.198   0.778  -0.356  0.00  0.00     0.001 C 
ATOM     22  C   UNL d   1      -1.235  -0.750  -0.378  0.00  0.00     0.001 C 
ATOM     23  C   UNL d   1      -0.052  -1.224   0.473  0.00  0.00     0.011 C 
ENDBRANCH  17  18
ENDBRANCH  13  17
ENDBRANCH   9  11
ENDBRANCH   1   9
TORSDOF 4
