@<TRIPOS>MOLECULE
*****
 53 56 0 0 0
SMALL
GASTEIGER

@<TRIPOS>ATOM
      1 O           1.1388   -0.0059    0.0381 O.2     1  UNL1       -0.2717
      2 C           2.3698   -0.0567    0.0919 C.2     1  UNL1        0.2549
      3 C           3.1340   -1.0688    0.9898 C.3     1  UNL1        0.1683
      4 O           2.3005   -1.8124    1.8650 O.3     1  UNL1       -0.4550
      5 C           2.7871   -2.9676    2.4040 C.2     1  UNL1        0.3108
      6 O           3.9681   -3.2846    2.4092 O.2     1  UNL1       -0.2505
      7 C           1.6404   -3.8174    2.9751 C.3     1  UNL1        0.0593
      8 C           1.5374   -5.2299    2.3607 C.3     1  UNL1       -0.0242
      9 C           1.1162   -5.1776    0.8880 C.3     1  UNL1        0.0157
     10 N          -0.1179   -4.3929    0.7341 N.am    1  UNL1       -0.2975
     11 C          -1.2507   -4.9224    0.1210 C.2     1  UNL1        0.2466
     12 O          -1.3314   -6.0842   -0.2661 O.2     1  UNL1       -0.2700
     13 C          -2.4456   -4.0436   -0.0490 C.ar    1  UNL1        0.0370
     14 C          -2.3747   -2.8647   -0.8068 C.ar    1  UNL1       -0.0483
     15 C          -3.4883   -2.0235   -0.9044 C.ar    1  UNL1       -0.0427
     16 C          -4.6811   -2.3774   -0.2758 C.ar    1  UNL1        0.0410
     17 CL         -6.0474   -1.3367   -0.3912 Cl      1  UNL1       -0.0835
     18 C          -4.7723   -3.5692    0.4444 C.ar    1  UNL1       -0.0427
     19 C          -3.6537   -4.4048    0.5591 C.ar    1  UNL1       -0.0483
     20 C          -0.0459   -3.0462    1.2680 C.3     1  UNL1        0.0157
     21 C           0.3093   -3.0807    2.7581 C.3     1  UNL1       -0.0242
     22 N           3.1126    0.8737   -0.6142 N.am    1  UNL1       -0.2826
     23 C           4.5130    0.9246   -0.7005 C.ar    1  UNL1        0.0356
     24 C           5.1723    2.1684   -0.5733 C.ar    1  UNL1       -0.0384
     25 C           6.5768    2.2396   -0.5669 C.ar    1  UNL1       -0.0345
     26 C           7.2646    1.0575   -0.7202 C.ar    1  UNL1        0.0669
     27 N           8.6303    0.8015   -0.7659 N.ar    1  UNL1       -0.3061
     28 C           8.8254   -0.5744   -0.9635 C.ar    1  UNL1        0.3250
     29 O           9.8961   -1.1559   -1.0642 O.2     1  UNL1       -0.2468
     30 N           7.5562   -1.1562   -1.0322 N.ar    1  UNL1       -0.3061
     31 C           6.6094   -0.1527   -0.8896 C.ar    1  UNL1        0.0686
     32 C           5.2461   -0.2467   -0.9144 C.ar    1  UNL1       -0.0150
     33 H           3.8312   -0.5099    1.6157 H       1  UNL1        0.0796
     34 H           3.6303   -1.7841    0.3366 H       1  UNL1        0.0796
     35 H           1.8260   -3.9148    4.0525 H       1  UNL1        0.0414
     36 H           0.7744   -5.8004    2.9118 H       1  UNL1        0.0288
     37 H           2.4792   -5.7801    2.4711 H       1  UNL1        0.0288
     38 H           1.0053   -6.1869    0.4785 H       1  UNL1        0.0465
     39 H           1.9068   -4.6799    0.3115 H       1  UNL1        0.0465
     40 H          -1.4450   -2.5790   -1.2934 H       1  UNL1        0.0625
     41 H          -3.4174   -1.0957   -1.4666 H       1  UNL1        0.0632
     42 H          -5.7100   -3.8509    0.9173 H       1  UNL1        0.0632
     43 H          -3.7254   -5.3299    1.1260 H       1  UNL1        0.0625
     44 H          -0.9548   -2.4634    1.1557 H       1  UNL1        0.0465
     45 H           0.6910   -2.5611    0.6250 H       1  UNL1        0.0465
     46 H          -0.4912   -3.5764    3.3183 H       1  UNL1        0.0288
     47 H           0.3747   -2.0587    3.1514 H       1  UNL1        0.0288
     48 H           2.5727    1.6521   -0.9808 H       1  UNL1        0.1549
     49 H           4.6021    3.0835   -0.4210 H       1  UNL1        0.0637
     50 H           7.0922    3.1834   -0.4344 H       1  UNL1        0.0639
     51 H           9.3827    1.4656   -0.6945 H       1  UNL1        0.1704
     52 H           7.3928   -2.1423   -1.1592 H       1  UNL1        0.1704
     53 H           4.7825   -1.1958   -1.1393 H       1  UNL1        0.0657
@<TRIPOS>BOND
     1     1     2    2
     2     2     3    1
     3     3     4    1
     4     4     5    1
     5     5     6    2
     6     5     7    1
     7     7     8    1
     8     8     9    1
     9     9    10    1
    10    10    11   am
    11    11    12    2
    12    11    13    1
    13    13    14   ar
    14    14    15   ar
    15    15    16   ar
    16    16    17    1
    17    16    18   ar
    18    18    19   ar
    19    13    19   ar
    20    10    20    1
    21    20    21    1
    22     7    21    1
    23     2    22   am
    24    22    23    1
    25    23    24   ar
    26    24    25   ar
    27    25    26   ar
    28    26    27   ar
    29    27    28   ar
    30    28    29    2
    31    28    30   ar
    32    30    31   ar
    33    26    31   ar
    34    31    32   ar
    35    23    32   ar
    36     3    33    1
    37     3    34    1
    38     7    35    1
    39     8    36    1
    40     8    37    1
    41     9    38    1
    42     9    39    1
    43    14    40    1
    44    15    41    1
    45    18    42    1
    46    19    43    1
    47    20    44    1
    48    20    45    1
    49    21    46    1
    50    21    47    1
    51    22    48    1
    52    24    49    1
    53    25    50    1
    54    27    51    1
    55    30    52    1
    56    32    53    1
