REMARK  8 active torsions:
REMARK  status: ('A' for Active; 'I' for Inactive)
REMARK    1  A    between atoms: N_2  and  C_4 
REMARK    2  A    between atoms: C_7  and  N_8 
REMARK       I    between atoms: N_8  and  C_9 
REMARK       I    between atoms: C_9  and  N_11 
REMARK    3  A    between atoms: N_11  and  C_12 
REMARK    4  A    between atoms: C_13  and  C_12 
REMARK    5  A    between atoms: C_17  and  C_18 
REMARK    6  A    between atoms: C_18  and  N_19 
REMARK       I    between atoms: N_19  and  C_20 
REMARK       I    between atoms: C_20  and  N_22 
REMARK    7  A    between atoms: N_22  and  C_23 
REMARK    8  A    between atoms: C_26  and  N_27 
ROOT
ATOM      1  C   UNL d   1       5.401   6.183  -7.638  0.00  0.00     0.004 C 
ATOM      2  C   UNL d   1       6.751   5.458  -7.725  0.00  0.00     0.006 C 
ATOM      3  C   UNL d   1       7.599   5.934  -8.906  0.00  0.00     0.001 C 
ATOM      4  C   UNL d   1       7.837   7.427  -8.835  0.00  0.00     0.006 C 
ATOM      5  C   UNL d   1       6.543   8.251  -8.651  0.00  0.00     0.004 C 
ATOM      6  C   UNL d   1       5.633   7.693  -7.537  0.00  0.00     0.012 C 
ENDROOT
BRANCH   1   7
ATOM      7  C   UNL d   1       4.513   5.845  -8.832  0.00  0.00     0.129 C 
BRANCH   7   8
ATOM      8  N   UNL d   1       3.950   4.501  -8.786  0.00  0.00    -0.342 N 
ATOM      9  C   UNL d   1       3.219   4.102  -9.878  0.00  0.00     0.320 C 
ATOM     10  N   UNL d   1       2.657   2.840  -9.798  0.00  0.00    -0.309 N 
ATOM     11  O   UNL d   1       3.113   4.886 -10.819  0.00  0.00    -0.247 OA
ATOM     12  H   UNL d   1       2.869   2.268  -8.994  0.00  0.00     0.170 HD
ATOM     13  H   UNL d   1       4.135   3.890  -8.006  0.00  0.00     0.164 HD
BRANCH  10  14
ATOM     14  C   UNL d   1       1.886   2.245 -10.846  0.00  0.00     0.036 A 
ATOM     15  C   UNL d   1       1.413   0.930 -10.759  0.00  0.00     0.032 A 
ATOM     16  C   UNL d   1       0.760   0.325 -11.867  0.00  0.00     0.031 A 
ATOM     17  C   UNL d   1       0.519   1.019 -13.063  0.00  0.00     0.029 A 
ATOM     18  C   UNL d   1       0.947   2.340 -13.100  0.00  0.00     0.031 A 
ATOM     19  C   UNL d   1       1.598   2.936 -12.020  0.00  0.00     0.032 A 
BRANCH  17  20
ATOM     20  N   UNL d   1      -0.101   0.437 -14.159  0.00  0.00    -0.390 N 
ATOM     21  C   UNL d   1       0.346   0.779 -15.505  0.00  0.00     0.149 C 
ATOM     22  C   UNL d   1      -1.386  -0.221 -13.988  0.00  0.00     0.149 C 
ENDBRANCH  17  20
ENDBRANCH  10  14
ENDBRANCH   7   8
ENDBRANCH   1   7
BRANCH   5  23
ATOM     23  C   UNL d   1       6.930   9.696  -8.315  0.00  0.00     0.129 C 
BRANCH  23  24
ATOM     24  N   UNL d   1       7.784   9.669  -7.135  0.00  0.00    -0.342 N 
ATOM     25  C   UNL d   1       8.869  10.469  -7.002  0.00  0.00     0.320 C 
ATOM     26  O   UNL d   1       9.028  11.465  -7.711  0.00  0.00    -0.247 OA
ATOM     27  N   UNL d   1       9.734  10.025  -6.019  0.00  0.00    -0.309 N 
ATOM     28  H   UNL d   1       9.720   9.055  -5.739  0.00  0.00     0.170 HD
ATOM     29  H   UNL d   1       7.789   8.834  -6.573  0.00  0.00     0.164 HD
BRANCH  27  30
ATOM     30  C   UNL d   1      10.801  10.821  -5.582  0.00  0.00     0.036 A 
ATOM     31  C   UNL d   1      12.034  10.288  -5.239  0.00  0.00     0.032 A 
ATOM     32  C   UNL d   1      13.042  11.140  -4.748  0.00  0.00     0.031 A 
ATOM     33  C   UNL d   1      12.879  12.536  -4.630  0.00  0.00     0.029 A 
ATOM     34  C   UNL d   1      11.599  13.009  -4.946  0.00  0.00     0.031 A 
ATOM     35  C   UNL d   1      10.588  12.179  -5.418  0.00  0.00     0.032 A 
BRANCH  33  36
ATOM     36  N   UNL d   1      13.893  13.389  -4.221  0.00  0.00    -0.390 N 
ATOM     37  C   UNL d   1      15.264  12.937  -3.993  0.00  0.00     0.149 C 
ATOM     38  C   UNL d   1      13.736  14.847  -4.211  0.00  0.00     0.149 C 
ENDBRANCH  33  36
ENDBRANCH  27  30
ENDBRANCH  23  24
ENDBRANCH   5  23
TORSDOF 8
