@<TRIPOS>MOLECULE
*****
 61 63 0 0 0
SMALL
GASTEIGER

@<TRIPOS>ATOM
      1 C           6.0767   -0.6373    8.9236 C.3     1  UNL1        0.0790
      2 O           5.9232   -1.9114    8.3028 O.3     1  UNL1       -0.4915
      3 C           5.9232   -2.0801    6.9386 C.ar    1  UNL1        0.1615
      4 C           4.7801   -2.7739    6.4999 C.ar    1  UNL1       -0.0159
      5 C           4.7061   -3.3474    5.2286 C.ar    1  UNL1       -0.0495
      6 C           5.7516   -3.1894    4.3152 C.ar    1  UNL1        0.0054
      7 C           5.6388   -3.6771    2.8828 C.3     1  UNL1        0.0204
      8 C           4.7288   -2.6831    2.0953 C.3     1  UNL1        0.0591
      9 N           5.1095   -1.2778    2.1001 N.am    1  UNL1       -0.3055
     10 C           4.2449   -0.3472    1.5339 C.2     1  UNL1        0.2487
     11 O           3.1528   -0.6531    1.0981 O.2     1  UNL1       -0.2700
     12 C           4.6791    1.0597    1.4994 C.ar    1  UNL1        0.0916
     13 C           3.7992    2.0763    1.8093 C.ar    1  UNL1        0.0455
     14 N           4.1272    3.3962    1.7977 N.ar    1  UNL1       -0.2295
     15 C           5.3805    3.6936    1.4273 C.ar    1  UNL1        0.1899
     16 S           5.9905    5.3456    1.4340 S.3     1  UNL1       -0.0813
     17 C           4.5460    6.3927    1.8527 C.3     1  UNL1        0.0262
     18 C           4.8973    7.8774    1.7673 C.ar    1  UNL1       -0.0370
     19 C           4.3076    8.8116    2.6376 C.ar    1  UNL1       -0.0551
     20 C           4.5437   10.1835    2.4729 C.ar    1  UNL1       -0.0262
     21 C           5.4289   10.6227    1.4951 C.ar    1  UNL1        0.1234
     22 F           5.7066   11.9281    1.3853 F       1  UNL1       -0.2055
     23 C           6.0354    9.7241    0.6347 C.ar    1  UNL1       -0.0262
     24 C           5.7478    8.3659    0.7540 C.ar    1  UNL1       -0.0551
     25 N           6.2980    2.7770    1.0798 N.ar    1  UNL1       -0.2095
     26 C           5.9226    1.4887    1.1192 C.ar    1  UNL1        0.1456
     27 CL          7.1903    0.4268    0.6317 Cl      1  UNL1       -0.0611
     28 N           5.0643   -5.1049    2.8104 N.4     1  UNL1        0.2375
     29 C           4.8640   -5.6115    1.4100 C.3     1  UNL1       -0.0427
     30 C           5.8900   -6.0889    3.6077 C.3     1  UNL1       -0.0427
     31 C           6.8893   -2.4983    4.7356 C.ar    1  UNL1       -0.0078
     32 C           6.9906   -1.9381    6.0261 C.ar    1  UNL1        0.1619
     33 O           8.2263   -1.3547    6.1460 O.3     1  UNL1       -0.4914
     34 C           8.4312   -0.6385    7.3309 C.3     1  UNL1        0.0790
     35 H           5.6647   -0.6805    9.9347 H       1  UNL1        0.0660
     36 H           5.6283    0.1824    8.3572 H       1  UNL1        0.0660
     37 H           7.1175   -0.4209    9.1586 H       1  UNL1        0.0660
     38 H           3.9292   -2.9027    7.1687 H       1  UNL1        0.0655
     39 H           3.8245   -3.9365    4.9901 H       1  UNL1        0.0623
     40 H           6.6311   -3.7363    2.4140 H       1  UNL1        0.0920
     41 H           4.6889   -2.9651    1.0396 H       1  UNL1        0.0522
     42 H           3.7074   -2.7436    2.4909 H       1  UNL1        0.0522
     43 H           6.0265   -0.9860    2.4249 H       1  UNL1        0.1492
     44 H           2.7732    1.8667    2.1057 H       1  UNL1        0.0839
     45 H           4.2251    6.1439    2.8704 H       1  UNL1        0.0429
     46 H           3.7085    6.2082    1.1693 H       1  UNL1        0.0429
     47 H           3.6585    8.4892    3.4493 H       1  UNL1        0.0621
     48 H           4.0407   10.9173    3.0956 H       1  UNL1        0.0646
     49 H           6.7165   10.0758   -0.1332 H       1  UNL1        0.0646
     50 H           6.2182    7.6895    0.0441 H       1  UNL1        0.0621
     51 H           4.1320   -5.0759    3.2390 H       1  UNL1        0.2035
     52 H           5.8369   -5.6447    0.9157 H       1  UNL1        0.0778
     53 H           4.1708   -4.9504    0.8880 H       1  UNL1        0.0778
     54 H           4.4094   -6.6030    1.4733 H       1  UNL1        0.0778
     55 H           6.8808   -6.1493    3.1518 H       1  UNL1        0.0778
     56 H           5.3781   -7.0541    3.5828 H       1  UNL1        0.0778
     57 H           5.9601   -5.7551    4.6449 H       1  UNL1        0.0778
     58 H           7.7495   -2.3906    4.0708 H       1  UNL1        0.0660
     59 H           9.4056   -0.1540    7.3836 H       1  UNL1        0.0660
     60 H           8.4095   -1.3626    8.1497 H       1  UNL1        0.0660
     61 H           7.7002    0.1763    7.3590 H       1  UNL1        0.0660
@<TRIPOS>UNITY_ATOM_ATTR
28 1
charge 1
@<TRIPOS>BOND
     1     1     2    1
     2     2     3    1
     3     3     4   ar
     4     4     5   ar
     5     5     6   ar
     6     8     9    1
     7     9    10   am
     8    10    11    2
     9    10    12    1
    10    12    13   ar
    11    13    14   ar
    12    14    15   ar
    13    15    16    1
    14    16    17    1
    15    17    18    1
    16    18    19   ar
    17    19    20   ar
    18    20    21   ar
    19    21    22    1
    20    21    23   ar
    21    23    24   ar
    22    18    24   ar
    23    15    25   ar
    24    25    26   ar
    25    12    26   ar
    26    26    27    1
    27     7    28    1
    28    28    29    1
    29    28    30    1
    30     6    31   ar
    31    31    32   ar
    32     3    32   ar
    33    32    33    1
    34    33    34    1
    35     7     8    1
    36     7     6    1
    37     1    35    1
    38     1    36    1
    39     1    37    1
    40     4    38    1
    41     5    39    1
    42     7    40    1
    43     8    41    1
    44     8    42    1
    45     9    43    1
    46    13    44    1
    47    17    45    1
    48    17    46    1
    49    19    47    1
    50    20    48    1
    51    23    49    1
    52    24    50    1
    53    28    51    1
    54    29    52    1
    55    29    53    1
    56    29    54    1
    57    30    55    1
    58    30    56    1
    59    30    57    1
    60    31    58    1
    61    34    59    1
    62    34    60    1
    63    34    61    1
