@<TRIPOS>MOLECULE
*****
 50 53 0 0 0
SMALL
GASTEIGER

@<TRIPOS>ATOM
      1 C           1.0969   -0.0570   -0.0504 C.3     1  UNL1       -0.0307
      2 C           2.6169   -0.0495   -0.0542 C.3     1  UNL1        0.0868
      3 O           3.0774   -0.7969   -1.1811 O.3     1  UNL1       -0.4922
      4 C           4.4296   -0.9970   -1.2535 C.ar    1  UNL1        0.1205
      5 C           4.9745   -1.0227   -2.5309 C.ar    1  UNL1       -0.0192
      6 C           6.3270   -1.3407   -2.6990 C.ar    1  UNL1       -0.0462
      7 C           7.1857   -1.5680   -1.5927 C.ar    1  UNL1        0.0373
      8 C           8.6430   -1.7557   -1.8970 C.2     1  UNL1        0.2495
      9 O           8.8968   -1.6986   -3.0873 O.2     1  UNL1       -0.2698
     10 N           9.6277   -1.9237   -0.8770 N.am    1  UNL1       -0.2636
     11 C          11.0148   -2.1288   -1.1289 C.2     1  UNL1        0.1411
     12 S          11.6381   -2.3213   -2.6920 S.2     1  UNL1       -0.0182
     13 N          11.8342   -2.2203    0.0340 N.am    1  UNL1       -0.2966
     14 C          13.2850   -2.3215   -0.0234 C.ar    1  UNL1        0.0335
     15 C          14.0166   -3.2247    0.7369 C.ar    1  UNL1       -0.0370
     16 C          15.4303   -3.2631    0.5994 C.ar    1  UNL1       -0.0177
     17 C          16.1280   -2.4461   -0.3409 C.ar    1  UNL1        0.1292
     18 O          17.4886   -2.5441   -0.4258 O.3     1  UNL1       -0.5060
     19 C          15.4335   -1.5323   -1.1271 C.ar    1  UNL1        0.0800
     20 C          15.9074   -0.4715   -2.0711 C.ar    1  UNL1        0.2320
     21 N          15.1972    0.6317   -2.1967 N.ar    1  UNL1       -0.2089
     22 C          15.8622    1.4033   -3.0732 C.ar    1  UNL1        0.1099
     23 C          15.5801    2.7324   -3.3855 C.ar    1  UNL1       -0.0326
     24 C          16.3363    3.3801   -4.3506 C.ar    1  UNL1       -0.0595
     25 C          17.3511    2.6846   -5.0104 C.ar    1  UNL1       -0.0582
     26 C          17.6725    1.3314   -4.6848 C.ar    1  UNL1       -0.0171
     27 C          16.9274    0.7287   -3.6453 C.ar    1  UNL1        0.1557
     28 O          17.0069   -0.5101   -2.9509 O.2     1  UNL1       -0.4352
     29 C          14.0252   -1.4786   -0.8754 C.ar    1  UNL1       -0.0247
     30 C           6.6255   -1.5585   -0.3222 C.ar    1  UNL1       -0.0462
     31 C           5.2541   -1.2800   -0.1590 C.ar    1  UNL1       -0.0192
     32 H           0.7109    0.5555    0.7703 H       1  UNL1        0.0262
     33 H           0.7162   -1.0772    0.0707 H       1  UNL1        0.0262
     34 H           0.6992    0.3241   -0.9959 H       1  UNL1        0.0262
     35 H           2.9517   -0.4810    0.8931 H       1  UNL1        0.0694
     36 H           2.9792    0.9807   -0.1383 H       1  UNL1        0.0694
     37 H           4.3612   -0.7890   -3.3998 H       1  UNL1        0.0654
     38 H           6.7089   -1.4064   -3.7200 H       1  UNL1        0.0626
     39 H           9.3197   -1.8945    0.0796 H       1  UNL1        0.1568
     40 H          11.4126   -2.4702    0.9211 H       1  UNL1        0.1538
     41 H          13.5262   -3.9511    1.3834 H       1  UNL1        0.0637
     42 H          15.9794   -3.9469    1.2486 H       1  UNL1        0.0655
     43 H          17.7923   -3.3026    0.1015 H       1  UNL1        0.2922
     44 H          14.7982    3.2280   -2.8266 H       1  UNL1        0.0640
     45 H          16.1149    4.4215   -4.5753 H       1  UNL1        0.0618
     46 H          17.9088    3.2272   -5.7781 H       1  UNL1        0.0619
     47 H          18.4550    0.8299   -5.2464 H       1  UNL1        0.0655
     48 H          13.4663   -0.6993   -1.3924 H       1  UNL1        0.0645
     49 H           7.2126   -1.7774    0.5598 H       1  UNL1        0.0626
     50 H           4.8472   -1.3146    0.8448 H       1  UNL1        0.0654
@<TRIPOS>BOND
     1     1     2    1
     2     2     3    1
     3     3     4    1
     4     4     5   ar
     5     5     6   ar
     6     6     7   ar
     7     7     8    1
     8     8     9    2
     9     8    10   am
    10    10    11    1
    11    11    12    2
    12    11    13    1
    13    13    14    1
    14    14    15   ar
    15    15    16   ar
    16    16    17   ar
    17    17    18    1
    18    17    19   ar
    19    19    20    1
    20    20    21   ar
    21    21    22   ar
    22    22    23   ar
    23    23    24   ar
    24    24    25   ar
    25    25    26   ar
    26    26    27   ar
    27    22    27   ar
    28    27    28   ar
    29    20    28   ar
    30    19    29   ar
    31    14    29   ar
    32     7    30   ar
    33    30    31   ar
    34     4    31   ar
    35     1    32    1
    36     1    33    1
    37     1    34    1
    38     2    35    1
    39     2    36    1
    40     5    37    1
    41     6    38    1
    42    10    39    1
    43    13    40    1
    44    15    41    1
    45    16    42    1
    46    18    43    1
    47    23    44    1
    48    24    45    1
    49    25    46    1
    50    26    47    1
    51    29    48    1
    52    30    49    1
    53    31    50    1
