REMARK  9 active torsions:
REMARK  status: ('A' for Active; 'I' for Inactive)
REMARK    1  A    between atoms: C_2  and  C_3 
REMARK    2  A    between atoms: C_3  and  O_5 
REMARK    3  A    between atoms: O_5  and  C_6 
REMARK    4  A    between atoms: C_10  and  N_11 
REMARK       I    between atoms: N_11  and  C_12 
REMARK       I    between atoms: C_12  and  N_14 
REMARK    5  A    between atoms: N_14  and  C_15 
REMARK    6  A    between atoms: C_15  and  C_16 
REMARK    7  A    between atoms: C_16  and  C_17 
REMARK    8  A    between atoms: C_17  and  C_18 
REMARK    9  A    between atoms: C_21  and  N_22 
ROOT
ATOM      1  C   UNL d   1       0.288   1.503  10.901  0.00  0.00     0.079 A 
ATOM      2  N   UNL d   1       0.288   2.713  11.481  0.00  0.00    -0.176 NA
ATOM      3  N   UNL d   1       0.107   2.443  12.790  0.00  0.00    -0.261 N 
ATOM      4  C   UNL d   1      -0.017   1.106  13.064  0.00  0.00     0.138 A 
ATOM      5  C   UNL d   1       0.073   0.475  11.847  0.00  0.00     0.115 A 
ATOM      6  C   UNL d   1      -0.008  -0.927  11.600  0.00  0.00     0.105 C 
ATOM      7  N   UNL d   1      -0.072  -2.059  11.379  0.00  0.00    -0.191 NA
ATOM      8  H   UNL d   1       0.089   3.213  13.448  0.00  0.00     0.191 HD
ENDROOT
BRANCH   4   9
ATOM      9  N   UNL d   1      -0.181   0.640  14.317  0.00  0.00    -0.383 N 
ATOM     10  H   UNL d   1      -0.231   1.223  15.148  0.00  0.00     0.157 HD
ATOM     11  H   UNL d   1      -0.248  -0.359  14.509  0.00  0.00     0.157 HD
ENDBRANCH   4   9
BRANCH   1  12
ATOM     12  C   UNL d   1       0.532   1.346   9.432  0.00  0.00     0.064 C 
BRANCH  12  13
ATOM     13  C   UNL d   1       1.863   1.976   9.011  0.00  0.00     0.026 C 
BRANCH  13  14
ATOM     14  C   UNL d   1       2.154   1.769   7.537  0.00  0.00     0.125 C 
BRANCH  14  15
ATOM     15  N   UNL d   1       3.422   2.386   7.116  0.00  0.00    -0.343 N 
ATOM     16  C   UNL d   1       3.781   2.261   5.799  0.00  0.00     0.320 C 
ATOM     17  N   UNL d   1       4.980   2.864   5.406  0.00  0.00    -0.309 N 
ATOM     18  O   UNL d   1       3.005   1.623   5.096  0.00  0.00    -0.247 OA
ATOM     19  H   UNL d   1       5.530   3.345   6.100  0.00  0.00     0.170 HD
ATOM     20  H   UNL d   1       3.995   2.879   7.780  0.00  0.00     0.164 HD
BRANCH  17  21
ATOM     21  C   UNL d   1       5.517   2.825   4.067  0.00  0.00     0.039 A 
ATOM     22  C   UNL d   1       6.716   3.396   3.665  0.00  0.00     0.030 A 
ATOM     23  C   UNL d   1       7.166   3.210   2.329  0.00  0.00     0.005 A 
ATOM     24  C   UNL d   1       6.380   2.547   1.359  0.00  0.00     0.037 A 
ATOM     25  C   UNL d   1       5.195   1.956   1.751  0.00  0.00     0.071 A 
ATOM     26  C   UNL d   1       4.865   2.092   3.090  0.00  0.00     0.066 A 
BRANCH  25  27
ATOM     27  O   UNL d   1       4.510   1.101   0.921  0.00  0.00    -0.346 OA
BRANCH  27  28
ATOM     28  C   UNL d   1       3.050   1.054   0.987  0.00  0.00     0.124 C 
ATOM     29  C   UNL d   1       2.402   0.740   2.338  0.00  0.00     0.040 C 
BRANCH  28  30
ATOM     30  C   UNL d   1       2.555  -0.049   0.029  0.00  0.00     0.027 C 
ATOM     31  C   UNL d   1       1.027  -0.102  -0.029  0.00  0.00     0.007 C 
ENDBRANCH  28  30
ENDBRANCH  27  28
ENDBRANCH  25  27
ENDBRANCH  17  21
ENDBRANCH  14  15
ENDBRANCH  13  14
ENDBRANCH  12  13
ENDBRANCH   1  12
TORSDOF 9
