REMARK  7 active torsions:
REMARK  status: ('A' for Active; 'I' for Inactive)
REMARK    1  A    between atoms: C_2  and  C_3 
REMARK       I    between atoms: C_2  and  N_15 
REMARK    2  A    between atoms: C_3  and  N_4 
REMARK    3  A    between atoms: C_6  and  C_7 
REMARK    4  A    between atoms: N_15  and  C_16 
REMARK    5  A    between atoms: C_17  and  C_16 
REMARK    6  A    between atoms: C_17  and  C_27 
REMARK    7  A    between atoms: C_17  and  C_18 
ROOT
ATOM      1  C   UNL d   1       4.274  -3.235   1.857  0.00  0.00     0.136 C 
ENDROOT
BRANCH   1   2
ATOM      2  N   UNL d   1       5.002  -4.450   1.558  0.00  0.00    -0.359 N 
ATOM      3  C   UNL d   1       4.391  -5.679   1.312  0.00  0.00     0.237 C 
ATOM      4  O   UNL d   1       5.098  -6.644   1.027  0.00  0.00    -0.272 OA
ATOM      5  H   UNL d   1       6.019  -4.476   1.521  0.00  0.00     0.162 HD
BRANCH   3   6
ATOM      6  C   UNL d   1       2.845  -5.759   1.372  0.00  0.00     0.251 C 
BRANCH   6   7
ATOM      7  N   UNL d   1       2.267  -7.067   1.058  0.00  0.00    -0.247 N 
ATOM      8  N   UNL d   1       2.101  -7.519  -0.275  0.00  0.00    -0.199 NA
ATOM      9  C   UNL d   1       0.867  -8.312  -0.145  0.00  0.00     0.265 C 
ATOM     10  H   UNL d   1       2.853  -8.210  -0.391  0.00  0.00     0.150 HD
ATOM     11  O   UNL d   1       0.799  -8.755   1.210  0.00  0.00    -0.275 OA
ATOM     12  C   UNL d   1       1.546  -7.856   1.926  0.00  0.00     0.379 C 
ATOM     13  O   UNL d   1       1.540  -7.783   3.153  0.00  0.00    -0.237 OA
BRANCH   9  14
ATOM     14  C   UNL d   1       0.782  -9.496  -1.082  0.00  0.00     0.027 A 
ATOM     15  C   UNL d   1       1.505 -10.677  -1.095  0.00  0.00     0.019 A 
ATOM     16  C   UNL d   1       1.148 -11.544  -2.175  0.00  0.00     0.008 A 
ATOM     17  C   UNL d   1       0.143 -11.017  -2.953  0.00  0.00     0.050 A 
ATOM     18  S   UNL d   1      -0.365  -9.488  -2.376  0.00  0.00    -0.102 SA
ENDBRANCH   9  14
ENDBRANCH   6   7
ENDBRANCH   3   6
ENDBRANCH   1   2
BRANCH   1  19
ATOM     19  C   UNL d   1       4.965  -1.840   2.040  0.00  0.00     0.069 C 
BRANCH  19  20
ATOM     20  C   UNL d   1       6.485  -1.788   2.117  0.00  0.00    -0.026 C 
ATOM     21  C   UNL d   1       7.264  -1.407   1.005  0.00  0.00     0.009 C 
ATOM     22  C   UNL d   1       8.624  -1.642   0.930  0.00  0.00     0.001 C 
ATOM     23  C   UNL d   1       9.290  -2.034   2.071  0.00  0.00     0.002 C 
ATOM     24  C   UNL d   1       8.584  -2.188   3.265  0.00  0.00     0.024 C 
ATOM     25  C   UNL d   1       7.186  -2.137   3.276  0.00  0.00     0.041 C 
ATOM     26 CL   UNL d   1       6.372  -2.521   4.749  0.00  0.00    -0.084 Cl
ENDBRANCH  19  20
BRANCH  19  27
ATOM     27  C   UNL d   1       4.396  -0.893   1.007  0.00  0.00    -0.040 A 
ATOM     28  C   UNL d   1       4.489  -0.983  -0.327  0.00  0.00    -0.005 A 
ATOM     29  C   UNL d   1       5.131  -1.913  -1.203  0.00  0.00     0.014 A 
ATOM     30  C   UNL d   1       3.907   0.270  -0.828  0.00  0.00     0.038 A 
ATOM     31  C   UNL d   1       5.234  -1.606  -2.502  0.00  0.00     0.001 A 
ATOM     32  C   UNL d   1       4.639  -0.392  -3.034  0.00  0.00     0.002 A 
ATOM     33  C   UNL d   1       3.996   0.522  -2.278  0.00  0.00     0.030 A 
ATOM     34  N   UNL d   1       3.425   0.988   0.116  0.00  0.00    -0.385 N 
ATOM     35  C   UNL d   1       3.654   0.339   1.424  0.00  0.00     0.155 A 
ATOM     36  H   UNL d   1       2.970   1.887  -0.032  0.00  0.00     0.160 HD
ENDBRANCH  19  27
ENDBRANCH   1  19
TORSDOF 7
