@<TRIPOS>MOLECULE
*****
 60 63 0 0 0
SMALL
GASTEIGER

@<TRIPOS>ATOM
      1 C           1.1355    0.0034   -0.1045 C.3     1  UNL1       -0.0305
      2 C           2.6618    0.0498   -0.1281 C.3     1  UNL1        0.0913
      3 O           3.1286    0.9502   -1.1650 O.3     1  UNL1       -0.4505
      4 C           4.4795    0.9263   -1.4075 C.2     1  UNL1        0.4029
      5 O           5.2645    0.2240   -0.7747 O.2     1  UNL1       -0.2263
      6 N           4.8621    1.7103   -2.4913 N.am    1  UNL1       -0.2673
      7 C           5.9830    1.3252   -3.3427 C.3     1  UNL1        0.0195
      8 C           7.1159    2.3440   -3.3068 C.3     1  UNL1       -0.0185
      9 C           6.6062    3.7527   -3.6712 C.3     1  UNL1        0.0260
     10 N           6.2690    3.8763   -5.1148 N.am    1  UNL1       -0.3117
     11 C           7.2280    3.6885   -6.1150 C.2     1  UNL1        0.2235
     12 O           8.3980    3.4553   -5.8137 O.2     1  UNL1       -0.2749
     13 C           6.7310    3.7762   -7.5913 C.3     1  UNL1        0.0776
     14 S           8.0701    3.2736   -8.7425 S.3     1  UNL1       -0.0779
     15 C           7.4865    3.5192  -10.4074 C.ar    1  UNL1        0.1772
     16 N           7.1748    2.4176  -11.0390 N.ar    1  UNL1       -0.2212
     17 C           6.8638    2.5736  -12.3913 C.ar    1  UNL1        0.0969
     18 C           6.6138    1.5716  -13.3540 C.ar    1  UNL1       -0.0151
     19 C           6.6006    2.1959  -14.5999 C.ar    1  UNL1        0.0155
     20 C           6.6965    1.6120  -15.9846 C.3     1  UNL1       -0.0244
     21 N           6.5236    3.5597  -14.3363 N.ar    1  UNL1       -0.3527
     22 C           6.8283    3.7876  -13.0079 C.ar    1  UNL1        0.1309
     23 C           7.0943    5.0129  -12.3135 C.ar    1  UNL1        0.2832
     24 O           7.0072    6.1098  -12.8778 O.2     1  UNL1       -0.2649
     25 N           7.4843    4.8196  -10.9731 N.ar    1  UNL1       -0.2543
     26 C           7.8346    5.9735  -10.2024 C.ar    1  UNL1        0.0520
     27 C           6.8338    6.8691   -9.8103 C.ar    1  UNL1       -0.0377
     28 C           7.0756    7.7547   -8.7571 C.ar    1  UNL1       -0.0598
     29 C           8.3747    7.9522   -8.2951 C.ar    1  UNL1       -0.0616
     30 C           9.4152    7.1855   -8.8121 C.ar    1  UNL1       -0.0598
     31 C           9.1334    6.1466   -9.7033 C.ar    1  UNL1       -0.0377
     32 C           5.4198    4.0984   -2.7366 C.3     1  UNL1       -0.0185
     33 C           4.3104    3.0281   -2.7667 C.3     1  UNL1        0.0195
     34 H           0.7696   -0.6186    0.7222 H       1  UNL1        0.0262
     35 H           0.7356   -0.4096   -1.0368 H       1  UNL1        0.0262
     36 H           0.7150    1.0068    0.0112 H       1  UNL1        0.0262
     37 H           3.0394   -0.9696   -0.2853 H       1  UNL1        0.0695
     38 H           3.0172    0.4188    0.8395 H       1  UNL1        0.0695
     39 H           5.5868    1.2735   -4.3659 H       1  UNL1        0.0466
     40 H           6.3474    0.3254   -3.0907 H       1  UNL1        0.0466
     41 H           7.9088    2.0198   -3.9867 H       1  UNL1        0.0298
     42 H           7.5583    2.3640   -2.3030 H       1  UNL1        0.0298
     43 H           7.4152    4.4738   -3.4830 H       1  UNL1        0.0499
     44 H           5.3382    4.1811   -5.3671 H       1  UNL1        0.1490
     45 H           6.4076    4.8028   -7.7773 H       1  UNL1        0.0475
     46 H           5.8852    3.0952   -7.7181 H       1  UNL1        0.0475
     47 H           6.5662    0.5050  -13.1807 H       1  UNL1        0.0657
     48 H           6.8040    0.5194  -15.9476 H       1  UNL1        0.0292
     49 H           7.5902    1.9825  -16.5054 H       1  UNL1        0.0292
     50 H           5.8305    1.8330  -16.6168 H       1  UNL1        0.0292
     51 H           6.3483    4.2900  -15.0175 H       1  UNL1        0.1658
     52 H           5.8495    6.8454  -10.2689 H       1  UNL1        0.0638
     53 H           6.2484    8.2801   -8.2864 H       1  UNL1        0.0618
     54 H           8.5769    8.7060   -7.5375 H       1  UNL1        0.0618
     55 H          10.4365    7.3623   -8.4829 H       1  UNL1        0.0618
     56 H           9.9342    5.4682   -9.9882 H       1  UNL1        0.0638
     57 H           5.0042    5.0802   -2.9877 H       1  UNL1        0.0298
     58 H           5.8024    4.1721   -1.7063 H       1  UNL1        0.0298
     59 H           3.8661    2.9978   -3.7665 H       1  UNL1        0.0466
     60 H           3.5275    3.2764   -2.0446 H       1  UNL1        0.0466
@<TRIPOS>BOND
     1     1     2    1
     2     2     3    1
     3     3     4    1
     4     4     5    2
     5     4     6   am
     6     6     7    1
     7     7     8    1
     8     8     9    1
     9     9    10    1
    10    10    11   am
    11    11    12    2
    12    11    13    1
    13    13    14    1
    14    14    15    1
    15    15    16   ar
    16    16    17   ar
    17    17    18   ar
    18    18    19   ar
    19    19    20    1
    20    19    21   ar
    21    21    22   ar
    22    17    22   ar
    23    22    23   ar
    24    23    24    2
    25    23    25   ar
    26    15    25   ar
    27    25    26    1
    28    26    27   ar
    29    27    28   ar
    30    28    29   ar
    31    29    30   ar
    32    30    31   ar
    33    26    31   ar
    34     9    32    1
    35    32    33    1
    36     6    33    1
    37     1    34    1
    38     1    35    1
    39     1    36    1
    40     2    37    1
    41     2    38    1
    42     7    39    1
    43     7    40    1
    44     8    41    1
    45     8    42    1
    46     9    43    1
    47    10    44    1
    48    13    45    1
    49    13    46    1
    50    18    47    1
    51    20    48    1
    52    20    49    1
    53    20    50    1
    54    21    51    1
    55    27    52    1
    56    28    53    1
    57    29    54    1
    58    30    55    1
    59    31    56    1
    60    32    57    1
    61    32    58    1
    62    33    59    1
    63    33    60    1
