REMARK  7 active torsions:
REMARK  status: ('A' for Active; 'I' for Inactive)
REMARK    1  A    between atoms: O_2  and  C_3 
REMARK    2  A    between atoms: C_5  and  O_6 
REMARK    3  A    between atoms: C_9  and  C_10 
REMARK       I    between atoms: C_10  and  N_12 
REMARK       I    between atoms: C_13  and  N_14 
REMARK       I    between atoms: C_13  and  N_21 
REMARK    4  A    between atoms: N_14  and  C_15 
REMARK    5  A    between atoms: C_15  and  C_16 
REMARK    6  A    between atoms: N_21  and  C_22 
REMARK    7  A    between atoms: C_26  and  C_27 
ROOT
ATOM      1  C   UNL d   1       3.142  -2.966  -3.463  0.00  0.00     0.294 C 
ATOM      2  O   UNL d   1       4.051  -3.764  -3.687  0.00  0.00    -0.265 OA
ATOM      3  N   UNL d   1       2.119  -2.523  -4.285  0.00  0.00    -0.023 NA
ATOM      4  C   UNL d   1       1.937  -2.970  -5.507  0.00  0.00     0.704 C 
ATOM      5  N   UNL d   1       2.634  -3.940  -6.197  0.00  0.00    -0.222 N 
ATOM      6  N   UNL d   1       0.939  -2.399  -6.313  0.00  0.00    -0.190 N 
ATOM      7  H   UNL d   1       2.510  -3.948  -7.196  0.00  0.00     0.177 HD
ATOM      8  H   UNL d   1       0.362  -1.695  -5.870  0.00  0.00     0.184 HD
ENDROOT
BRANCH   5   9
ATOM      9  C   UNL d   1       3.766  -4.680  -5.697  0.00  0.00     0.170 C 
BRANCH   9  10
ATOM     10  C   UNL d   1       4.487  -5.726  -6.488  0.00  0.00     0.139 C 
ATOM     11  C   UNL d   1       3.784  -6.055  -7.758  0.00  0.00     0.035 C 
ATOM     12  C   UNL d   1       4.057  -7.516  -7.912  0.00  0.00     0.029 C 
ATOM     13  C   UNL d   1       4.120  -8.021  -6.487  0.00  0.00     0.168 C 
ATOM     14  O   UNL d   1       4.582  -6.932  -5.698  0.00  0.00    -0.384 OA
ENDBRANCH   9  10
ENDBRANCH   5   9
BRANCH   6  15
ATOM     15  C   UNL d   1       0.420  -2.866  -7.553  0.00  0.00     0.049 A 
ATOM     16  C   UNL d   1       0.118  -2.014  -8.619  0.00  0.00     0.030 A 
ATOM     17  C   UNL d   1      -0.260  -2.537  -9.871  0.00  0.00     0.003 A 
ATOM     18  C   UNL d   1      -0.280  -3.917 -10.091  0.00  0.00     0.007 A 
ATOM     19  C   UNL d   1      -0.014  -4.794  -9.036  0.00  0.00    -0.053 A 
ATOM     20  C   UNL d   1       0.276  -4.237  -7.781  0.00  0.00     0.037 A 
BRANCH  19  21
ATOM     21  C   UNL d   1      -0.048  -6.302  -9.234  0.00  0.00     0.010 C 
ATOM     22  C   UNL d   1       0.970  -6.744 -10.291  0.00  0.00     0.015 C 
ATOM     23  C   UNL d   1       0.175  -7.094  -7.935  0.00  0.00     0.015 C 
ENDBRANCH  19  21
ENDBRANCH   6  15
BRANCH   1  24
ATOM     24  C   UNL d   1       3.407  -2.465  -2.130  0.00  0.00     0.040 A 
ATOM     25  C   UNL d   1       4.551  -2.992  -1.463  0.00  0.00     0.054 A 
ATOM     26  C   UNL d   1       4.994  -2.476  -0.274  0.00  0.00     0.071 A 
ATOM     27  C   UNL d   1       4.190  -1.507   0.318  0.00  0.00     0.073 A 
ATOM     28  C   UNL d   1       3.042  -0.999  -0.334  0.00  0.00     0.071 A 
ATOM     29  C   UNL d   1       2.659  -1.459  -1.584  0.00  0.00     0.054 A 
BRANCH  26  30
ATOM     30  O   UNL d   1       6.170  -2.836   0.326  0.00  0.00    -0.356 OA
ATOM     31  C   UNL d   1       7.054  -3.676  -0.437  0.00  0.00     0.210 C 
ENDBRANCH  26  30
BRANCH  28  32
ATOM     32  O   UNL d   1       2.400   0.041   0.279  0.00  0.00    -0.356 OA
ATOM     33  C   UNL d   1       0.982   0.012   0.133  0.00  0.00     0.210 C 
ENDBRANCH  28  32
ENDBRANCH   1  24
TORSDOF 7
