@<TRIPOS>MOLECULE
*****
 73 78 0 0 0
SMALL
GASTEIGER

@<TRIPOS>ATOM
      1 C           0.6929    0.8967   -0.9601 C.3     1  UNL1       -0.0631
      2 C           2.3019    0.9704   -0.4088 C.3     1  UNL1       -0.0309
      3 C           3.2383    1.5127    0.8285 C.3     1  UNL1        0.0617
      4 C           2.9678    2.9652    0.6929 C.3     1  UNL1       -0.0399
      5 C           3.0194    1.1041    2.2789 C.3     1  UNL1       -0.0399
      6 N           4.6877    1.0461    0.7512 N.ar    1  UNL1       -0.2185
      7 N           5.6319    1.9937    0.9551 N.ar    1  UNL1       -0.0432
      8 N           6.7824    1.3683    1.1164 N.ar    1  UNL1       -0.0228
      9 N           6.6131    0.0202    1.1271 N.ar    1  UNL1       -0.1071
     10 C           5.3106   -0.2190    1.0497 C.ar    1  UNL1        0.2048
     11 C           4.7905   -1.6665    1.3103 C.3     1  UNL1        0.0727
     12 C           5.4543   -2.4685    2.4025 C.ar    1  UNL1        0.0725
     13 C           6.0112   -3.6976    2.2664 C.ar    1  UNL1       -0.0383
     14 C           6.3096   -4.5037    3.4724 C.ar    1  UNL1        0.0027
     15 C           6.7589   -5.8438    3.5578 C.ar    1  UNL1       -0.0070
     16 C           6.9601   -6.3390    4.8551 C.ar    1  UNL1        0.1669
     17 C           7.2239   -5.4388    5.8387 C.ar    1  UNL1        0.1682
     18 C           6.4961   -4.3131    5.8737 C.ar    1  UNL1        0.0078
     19 C           6.0119   -3.8685    4.6888 C.ar    1  UNL1        0.0529
     20 N           5.3297   -2.6905    4.7904 N.ar    1  UNL1       -0.3216
     21 C           5.2661   -1.8185    3.7464 C.ar    1  UNL1        0.2582
     22 O           4.9655   -0.7027    3.9245 O.2     1  UNL1       -0.2674
     23 O           7.6067   -5.9707    7.0192 O.3     1  UNL1       -0.4525
     24 C           6.6497   -7.0112    6.9385 C.3     1  UNL1        0.2332
     25 O           6.6604   -7.5231    5.5343 O.3     1  UNL1       -0.4526
     26 N           3.2446   -2.0441    1.3541 N.4     1  UNL1        0.2486
     27 C           2.3813   -1.6357    2.7524 C.3     1  UNL1       -0.0147
     28 C           0.9061   -1.0621    2.6191 C.3     1  UNL1        0.0525
     29 N           0.6931   -0.2545    1.4006 N.pl3   1  UNL1       -0.3198
     30 C          -0.0572    1.1683    1.5878 C.ar    1  UNL1        0.0302
     31 C           0.4832    2.3668    2.2750 C.ar    1  UNL1       -0.0372
     32 C           0.1271    3.7677    2.0477 C.ar    1  UNL1       -0.0182
     33 C          -0.9147    4.1088    1.2304 C.ar    1  UNL1        0.1202
     34 O          -1.2507    5.4316    1.1763 O.3     1  UNL1       -0.4951
     35 C          -2.5700    5.6925    0.6997 C.3     1  UNL1        0.0788
     36 C          -1.5222    3.0485    0.5761 C.ar    1  UNL1       -0.0182
     37 C          -1.1702    1.6373    0.8086 C.ar    1  UNL1       -0.0372
     38 C           1.1401   -1.4220    0.1119 C.3     1  UNL1        0.0525
     39 C           2.6958   -1.8040   -0.0074 C.3     1  UNL1       -0.0147
     40 H           0.4581    0.2840   -1.8550 H       1  UNL1        0.0231
     41 H           0.2541    1.8636   -1.1151 H       1  UNL1        0.0231
     42 H          -0.0494    0.2690   -0.4124 H       1  UNL1        0.0231
     43 H           2.8832    0.9290   -1.3212 H       1  UNL1        0.0286
     44 H           2.3908    0.0927    0.1235 H       1  UNL1        0.0286
     45 H           1.8964    3.0287    0.5176 H       1  UNL1        0.0253
     46 H           3.4124    3.3586   -0.2118 H       1  UNL1        0.0253
     47 H           3.2180    3.5017    1.6050 H       1  UNL1        0.0253
     48 H           2.0471    0.9109    2.6534 H       1  UNL1        0.0253
     49 H           3.5393    1.5429    3.1396 H       1  UNL1        0.0253
     50 H           3.4235    0.1382    2.2258 H       1  UNL1        0.0253
     51 H           5.1273   -2.1719    0.3838 H       1  UNL1        0.0991
     52 H           6.1972   -4.1371    1.2886 H       1  UNL1        0.0631
     53 H           7.0499   -6.3851    2.6563 H       1  UNL1        0.0662
     54 H           6.2800   -3.8740    6.8330 H       1  UNL1        0.0676
     55 H           5.1879   -2.2783    5.7040 H       1  UNL1        0.1689
     56 H           5.6584   -6.5654    7.1913 H       1  UNL1        0.1166
     57 H           6.8968   -7.6818    7.7662 H       1  UNL1        0.1166
     58 H           3.2044   -3.0679    1.3883 H       1  UNL1        0.2046
     59 H           2.9392   -0.9277    3.3508 H       1  UNL1        0.0830
     60 H           2.4786   -2.4739    3.4472 H       1  UNL1        0.0830
     61 H           0.6031   -0.4967    3.5065 H       1  UNL1        0.0516
     62 H           0.2531   -1.9299    2.5319 H       1  UNL1        0.0516
     63 H           1.3418    2.4407    2.9364 H       1  UNL1        0.0637
     64 H           0.7525    4.5837    2.4441 H       1  UNL1        0.0655
     65 H          -2.8807    6.6974    1.0074 H       1  UNL1        0.0660
     66 H          -3.3027    4.9877    1.1112 H       1  UNL1        0.0660
     67 H          -2.5597    5.6537   -0.3920 H       1  UNL1        0.0660
     68 H          -2.2392    3.2830   -0.2139 H       1  UNL1        0.0655
     69 H          -1.7528    0.9786    0.1722 H       1  UNL1        0.0637
     70 H           1.0393   -1.1582   -0.9417 H       1  UNL1        0.0516
     71 H           0.5386   -2.3168    0.2192 H       1  UNL1        0.0516
     72 H           3.3883   -1.0816   -0.5154 H       1  UNL1        0.0830
     73 H           2.9204   -2.6007   -0.7488 H       1  UNL1        0.0830
@<TRIPOS>UNITY_ATOM_ATTR
26 1
charge 1
@<TRIPOS>BOND
     1     1     2    1
     2     2     3    1
     3     3     4    1
     4     3     5    1
     5     3     6    1
     6     6     7   ar
     7     7     8   ar
     8     8     9   ar
     9     9    10   ar
    10     6    10   ar
    11    10    11    1
    12    11    12    1
    13    12    13   ar
    14    13    14   ar
    15    14    15   ar
    16    15    16   ar
    17    16    17   ar
    18    17    18   ar
    19    18    19   ar
    20    14    19   ar
    21    19    20   ar
    22    20    21   ar
    23    12    21   ar
    24    21    22    2
    25    17    23    1
    26    23    24    1
    27    24    25    1
    28    16    25    1
    29    11    26    1
    30    26    27    1
    31    27    28    1
    32    28    29    1
    33    29    30    1
    34    30    31   ar
    35    31    32   ar
    36    32    33   ar
    37    33    34    1
    38    34    35    1
    39    33    36   ar
    40    36    37   ar
    41    30    37   ar
    42    29    38    1
    43    38    39    1
    44    26    39    1
    45     1    40    1
    46     1    41    1
    47     1    42    1
    48     2    43    1
    49     2    44    1
    50     4    45    1
    51     4    46    1
    52     4    47    1
    53     5    48    1
    54     5    49    1
    55     5    50    1
    56    11    51    1
    57    13    52    1
    58    15    53    1
    59    18    54    1
    60    20    55    1
    61    24    56    1
    62    24    57    1
    63    26    58    1
    64    27    59    1
    65    27    60    1
    66    28    61    1
    67    28    62    1
    68    31    63    1
    69    32    64    1
    70    35    65    1
    71    35    66    1
    72    35    67    1
    73    36    68    1
    74    37    69    1
    75    38    70    1
    76    38    71    1
    77    39    72    1
    78    39    73    1
