@<TRIPOS>MOLECULE
*****
 87 90 0 0 0
SMALL
GASTEIGER

@<TRIPOS>ATOM
      1 C           4.1089   -0.5989    4.8727 C.3     1  UNL1       -0.0418
      2 C           4.4954   -0.1722    3.4291 C.3     1  UNL1        0.0521
      3 C           5.1320    1.2238    3.5342 C.3     1  UNL1       -0.0418
      4 C           5.4167   -1.2338    2.8177 C.3     1  UNL1        0.0649
      5 O           6.6013   -1.4090    3.5573 O.3     1  UNL1       -0.3929
      6 N           3.2979   -0.1482    2.5811 N.am    1  UNL1       -0.3035
      7 C           3.2684    0.2909    1.2634 C.2     1  UNL1        0.2618
      8 O           4.2815    0.5848    0.6367 O.2     1  UNL1       -0.2696
      9 C           1.8721    0.5539    0.6216 C.3     1  UNL1        0.0570
     10 C           1.4622    1.9784    0.9789 C.3     1  UNL1        0.0023
     11 C           0.2214    2.2544    1.8400 C.3     1  UNL1       -0.0278
     12 C           0.5542    3.3484    2.8638 C.3     1  UNL1       -0.0496
     13 C           1.5159    2.8500    3.9443 C.3     1  UNL1       -0.0528
     14 C           0.9119    1.6658    4.6918 C.3     1  UNL1       -0.0526
     15 C           0.5016    0.5891    3.7156 C.3     1  UNL1       -0.0451
     16 C          -0.3498    1.0288    2.5355 C.3     1  UNL1        0.0023
     17 C          -0.4692   -0.0769    1.5028 C.3     1  UNL1       -0.0279
     18 N           0.8609   -0.5319    0.9417 N.4     1  UNL1        0.2460
     19 C           0.7334   -1.4838   -0.2657 C.3     1  UNL1       -0.0027
     20 C          -0.0612   -2.7686    0.0502 C.3     1  UNL1        0.1139
     21 O          -1.4185   -2.3662    0.2365 O.3     1  UNL1       -0.3846
     22 C           0.6004   -3.6074    1.2042 C.3     1  UNL1        0.0664
     23 C           1.8536   -4.3537    0.6425 C.3     1  UNL1        0.0195
     24 S           1.3391   -5.8811   -0.2189 S.3     1  UNL1       -0.1233
     25 C           2.8778   -6.5892   -0.7757 C.ar    1  UNL1        0.0079
     26 C           3.0289   -7.9748   -0.6371 C.ar    1  UNL1       -0.0483
     27 C           4.1901   -8.6151   -1.0728 C.ar    1  UNL1       -0.0607
     28 C           5.1802   -7.8867   -1.7241 C.ar    1  UNL1       -0.0617
     29 C           5.0298   -6.5114   -1.8939 C.ar    1  UNL1       -0.0607
     30 C           3.8871   -5.8608   -1.4124 C.ar    1  UNL1       -0.0483
     31 N          -0.3389   -4.4637    1.9388 N.am    1  UNL1       -0.2748
     32 C          -1.4092   -3.9922    2.6400 C.2     1  UNL1        0.4009
     33 O          -1.6188   -2.7802    2.7920 O.2     1  UNL1       -0.2265
     34 O          -2.2361   -4.9556    3.0459 O.3     1  UNL1       -0.4456
     35 C          -3.4636   -4.5023    3.6715 C.3     1  UNL1        0.1191
     36 C          -4.2014   -5.6962    4.2281 C.ar    1  UNL1       -0.0103
     37 C          -5.2123   -5.5550    5.1921 C.ar    1  UNL1       -0.0554
     38 C          -5.7467   -6.6878    5.8168 C.ar    1  UNL1       -0.0614
     39 C          -5.3411   -7.9635    5.4255 C.ar    1  UNL1       -0.0617
     40 C          -4.3991   -8.1123    4.4149 C.ar    1  UNL1       -0.0614
     41 C          -3.8435   -6.9878    3.8170 C.ar    1  UNL1       -0.0554
     42 H           4.9947   -0.7150    5.5073 H       1  UNL1        0.0251
     43 H           3.5594   -1.5476    4.8851 H       1  UNL1        0.0251
     44 H           3.4700    0.1407    5.3657 H       1  UNL1        0.0251
     45 H           6.0497    1.2049    4.1280 H       1  UNL1        0.0251
     46 H           4.4588    1.9347    4.0277 H       1  UNL1        0.0251
     47 H           5.3729    1.6433    2.5549 H       1  UNL1        0.0251
     48 H           5.6730   -0.9912    1.7835 H       1  UNL1        0.0578
     49 H           4.8757   -2.1902    2.7859 H       1  UNL1        0.0578
     50 H           7.0864   -0.5661    3.5186 H       1  UNL1        0.2095
     51 H           2.6029   -0.7619    2.9672 H       1  UNL1        0.1495
     52 H           2.0199    0.5173   -0.4659 H       1  UNL1        0.0950
     53 H           1.3533    2.5469    0.0465 H       1  UNL1        0.0328
     54 H           2.3338    2.4537    1.4394 H       1  UNL1        0.0328
     55 H          -0.5603    2.6314    1.1654 H       1  UNL1        0.0307
     56 H          -0.3685    3.6874    3.3445 H       1  UNL1        0.0268
     57 H           0.9930    4.2059    2.3429 H       1  UNL1        0.0268
     58 H           1.7659    3.6516    4.6424 H       1  UNL1        0.0265
     59 H           2.4673    2.5500    3.4912 H       1  UNL1        0.0265
     60 H           0.0527    1.9738    5.2859 H       1  UNL1        0.0265
     61 H           1.6636    1.2586    5.3762 H       1  UNL1        0.0265
     62 H           0.1755   -0.3410    4.1923 H       1  UNL1        0.0270
     63 H           1.4173    0.3557    3.2543 H       1  UNL1        0.0270
     64 H          -1.3507    1.2503    2.9297 H       1  UNL1        0.0355
     65 H          -1.1225    0.1892    0.6690 H       1  UNL1        0.0817
     66 H          -0.8584   -0.9184    2.0523 H       1  UNL1        0.0817
     67 H           1.2911   -1.0742    1.6854 H       1  UNL1        0.2042
     68 H           1.7533   -1.7240   -0.5847 H       1  UNL1        0.0841
     69 H           0.2379   -0.9044   -1.0517 H       1  UNL1        0.0841
     70 H          -0.0892   -3.3804   -0.8565 H       1  UNL1        0.0666
     71 H          -1.6497   -2.3829    1.1840 H       1  UNL1        0.2101
     72 H           0.9693   -2.9244    1.9771 H       1  UNL1        0.0535
     73 H           2.3908   -3.7113   -0.0641 H       1  UNL1        0.0399
     74 H           2.5558   -4.5862    1.4506 H       1  UNL1        0.0399
     75 H           2.2360   -8.5773   -0.1984 H       1  UNL1        0.0629
     76 H           4.3143   -9.6836   -0.9132 H       1  UNL1        0.0618
     77 H           6.0606   -8.3952   -2.1114 H       1  UNL1        0.0618
     78 H           5.8040   -5.9497   -2.4122 H       1  UNL1        0.0618
     79 H           3.7955   -4.7941   -1.5842 H       1  UNL1        0.0629
     80 H          -0.2738   -5.4746    1.8344 H       1  UNL1        0.1524
     81 H          -4.0878   -3.9809    2.9346 H       1  UNL1        0.0749
     82 H          -3.2124   -3.8239    4.4972 H       1  UNL1        0.0749
     83 H          -5.5788   -4.5741    5.4900 H       1  UNL1        0.0621
     84 H          -6.4658   -6.5820    6.6265 H       1  UNL1        0.0618
     85 H          -5.7605   -8.8446    5.9035 H       1  UNL1        0.0618
     86 H          -4.0705   -9.0993    4.1038 H       1  UNL1        0.0618
     87 H          -3.0975   -7.1306    3.0399 H       1  UNL1        0.0621
@<TRIPOS>UNITY_ATOM_ATTR
18 1
charge 1
@<TRIPOS>BOND
     1     1     2    1
     2     2     3    1
     3     2     4    1
     4     4     5    1
     5     2     6    1
     6     6     7   am
     7     7     8    2
     8     9    10    1
     9    10    11    1
    10    11    12    1
    11    12    13    1
    12    13    14    1
    13    14    15    1
    14    15    16    1
    15    11    16    1
    16    16    17    1
    17    17    18    1
    18     9    18    1
    19    18    19    1
    20    19    20    1
    21    20    21    1
    22    23    24    1
    23    24    25    1
    24    25    26   ar
    25    26    27   ar
    26    27    28   ar
    27    28    29   ar
    28    29    30   ar
    29    25    30   ar
    30    22    31    1
    31    31    32   am
    32    32    33    2
    33    32    34    1
    34    34    35    1
    35    35    36    1
    36    36    37   ar
    37    37    38   ar
    38    38    39   ar
    39    39    40   ar
    40    40    41   ar
    41    36    41   ar
    42    22    23    1
    43    22    20    1
    44     9     7    1
    45     1    42    1
    46     1    43    1
    47     1    44    1
    48     3    45    1
    49     3    46    1
    50     3    47    1
    51     4    48    1
    52     4    49    1
    53     5    50    1
    54     6    51    1
    55     9    52    1
    56    10    53    1
    57    10    54    1
    58    11    55    1
    59    12    56    1
    60    12    57    1
    61    13    58    1
    62    13    59    1
    63    14    60    1
    64    14    61    1
    65    15    62    1
    66    15    63    1
    67    16    64    1
    68    17    65    1
    69    17    66    1
    70    18    67    1
    71    19    68    1
    72    19    69    1
    73    20    70    1
    74    21    71    1
    75    22    72    1
    76    23    73    1
    77    23    74    1
    78    26    75    1
    79    27    76    1
    80    28    77    1
    81    29    78    1
    82    30    79    1
    83    31    80    1
    84    35    81    1
    85    35    82    1
    86    37    83    1
    87    38    84    1
    88    39    85    1
    89    40    86    1
    90    41    87    1
