@<TRIPOS>MOLECULE
*****
 53 57 0 0 0
SMALL
GASTEIGER

@<TRIPOS>ATOM
      1 N           8.7237    2.6604   -2.8007 N.am    1  UNL1       -0.3293
      2 C           8.5373    1.3468   -2.4665 C.2     1  UNL1        0.2105
      3 O           9.4846    0.5784   -2.3674 O.2     1  UNL1       -0.2760
      4 C           7.0873    0.9547   -2.2900 C.3     1  UNL1        0.0252
      5 C           6.9228   -0.5670   -2.1500 C.3     1  UNL1       -0.0285
      6 C           5.4952   -1.1415   -2.0628 C.3     1  UNL1        0.0212
      7 N           5.5925   -2.5905   -1.7599 N.3     1  UNL1       -0.2953
      8 C           4.8913   -3.3445   -2.8063 C.3     1  UNL1        0.1357
      9 C           3.7658   -4.2531   -2.2328 C.2     1  UNL1        0.2428
     10 O           2.8323   -3.8980   -1.5286 O.2     1  UNL1       -0.2730
     11 N           3.9661   -5.5243   -2.7546 N.am    1  UNL1       -0.2834
     12 C           5.1413   -5.5834   -3.4947 C.ar    1  UNL1        0.0390
     13 C           5.6308   -6.6442   -4.2231 C.ar    1  UNL1       -0.0388
     14 C           6.7933   -6.4322   -4.9787 C.ar    1  UNL1       -0.0416
     15 C           7.4400   -5.1843   -4.9760 C.ar    1  UNL1        0.0414
     16 CL          8.7905   -4.9186   -6.0120 Cl      1  UNL1       -0.0835
     17 C           6.9575   -4.1339   -4.1995 C.ar    1  UNL1       -0.0362
     18 C           5.7862   -4.3472   -3.4766 C.ar    1  UNL1        0.0048
     19 C           4.1734   -2.3846   -3.7279 C.3     1  UNL1        0.0795
     20 C           4.5767   -2.4205   -5.1755 C.2     1  UNL1        0.2285
     21 O           4.8535   -3.4115   -5.8329 O.2     1  UNL1       -0.2748
     22 N           4.6013   -1.1613   -5.6721 N.am    1  UNL1       -0.2371
     23 C           4.9133   -1.0864   -7.1467 C.3     1  UNL1        0.0487
     24 C           4.3693    0.0122   -8.0552 C.ar    1  UNL1       -0.0113
     25 C           3.8160   -0.2797   -9.3422 C.ar    1  UNL1       -0.0557
     26 C           3.6258    0.7414  -10.3020 C.ar    1  UNL1       -0.0614
     27 C           3.8224    2.0694   -9.9552 C.ar    1  UNL1       -0.0604
     28 C           4.2016    2.3708   -8.6690 C.ar    1  UNL1       -0.0431
     29 C           4.6014    1.3644   -7.8015 C.ar    1  UNL1        0.0457
     30 CL          5.6880    2.0031   -6.6542 Cl      1  UNL1       -0.0832
     31 C           4.9137   -0.3981   -4.5910 C.2     1  UNL1        0.2275
     32 O           5.4606    0.6978   -4.5617 O.2     1  UNL1       -0.2748
     33 C           4.5359   -1.0085   -3.2663 C.3     1  UNL1        0.0651
     34 H           9.6615    2.9333   -3.0634 H       1  UNL1        0.1449
     35 H           7.9585    3.2475   -3.1082 H       1  UNL1        0.1449
     36 H           6.6504    1.3594   -3.1862 H       1  UNL1        0.0359
     37 H           6.6133    1.4983   -1.4676 H       1  UNL1        0.0359
     38 H           7.4597   -0.8478   -1.2296 H       1  UNL1        0.0285
     39 H           7.4501   -1.0701   -2.9675 H       1  UNL1        0.0285
     40 H           5.0186   -0.6925   -1.1770 H       1  UNL1        0.0468
     41 H           5.1997   -2.8154   -0.8416 H       1  UNL1        0.1235
     42 H           3.3195   -6.2831   -2.6014 H       1  UNL1        0.1549
     43 H           5.1203   -7.5983   -4.2509 H       1  UNL1        0.0637
     44 H           7.1861   -7.2360   -5.5953 H       1  UNL1        0.0633
     45 H           7.3992   -3.1446   -4.2732 H       1  UNL1        0.0636
     46 H           3.0797   -2.4604   -3.7061 H       1  UNL1        0.0429
     47 H           4.5248   -2.0252   -7.5827 H       1  UNL1        0.0519
     48 H           6.0006   -1.1549   -7.2783 H       1  UNL1        0.0519
     49 H           3.5843   -1.2971   -9.6703 H       1  UNL1        0.0621
     50 H           3.3376    0.5196  -11.3292 H       1  UNL1        0.0618
     51 H           3.7321    2.8820  -10.6679 H       1  UNL1        0.0618
     52 H           4.3344    3.4006   -8.3536 H       1  UNL1        0.0632
     53 H           3.6522   -0.4679   -2.9001 H       1  UNL1        0.0418
@<TRIPOS>BOND
     1     1     2   am
     2     2     3    2
     3     2     4    1
     4     4     5    1
     5     6     7    1
     6     7     8    1
     7     8     9    1
     8     9    10    2
     9     9    11   am
    10    11    12    1
    11    12    13   ar
    12    13    14   ar
    13    14    15   ar
    14    15    16    1
    15    15    17   ar
    16    17    18   ar
    17    12    18   ar
    18     8    18    1
    19     8    19    1
    20    19    20    1
    21    20    21    2
    22    20    22   am
    23    22    23    1
    24    23    24    1
    25    24    25   ar
    26    25    26   ar
    27    26    27   ar
    28    27    28   ar
    29    28    29   ar
    30    24    29   ar
    31    29    30    1
    32    22    31   am
    33    31    32    2
    34    31    33    1
    35     6    33    1
    36    19    33    1
    37     6     5    1
    38     1    34    1
    39     1    35    1
    40     4    36    1
    41     4    37    1
    42     5    38    1
    43     5    39    1
    44     6    40    1
    45     7    41    1
    46    11    42    1
    47    13    43    1
    48    14    44    1
    49    17    45    1
    50    19    46    1
    51    23    47    1
    52    23    48    1
    53    25    49    1
    54    26    50    1
    55    27    51    1
    56    28    52    1
    57    33    53    1
