@<TRIPOS>MOLECULE
*****
 33 34 0 0 0
SMALL
GASTEIGER

@<TRIPOS>ATOM
      1 C           1.8798    1.4870   -0.0147 C.3     1  UNL1       -0.0395
      2 C           0.6024    0.6970    0.0023 C.ar    1  UNL1       -0.0474
      3 C          -0.6007    1.3961    0.0235 C.ar    1  UNL1       -0.0568
      4 C          -1.8143    0.7202    0.0174 C.ar    1  UNL1       -0.0402
      5 C          -1.8828   -0.6709   -0.0247 C.ar    1  UNL1        0.0339
      6 N          -3.1304   -1.3495   -0.0725 N.am    1  UNL1       -0.2814
      7 C          -4.3757   -0.7313   -0.1159 C.2     1  UNL1        0.2518
      8 O          -4.6028    0.4802   -0.1376 O.2     1  UNL1       -0.2697
      9 C          -5.5805   -1.5848   -0.1786 C.ar    1  UNL1        0.0783
     10 C          -6.6256   -1.1591   -1.0193 C.ar    1  UNL1       -0.0461
     11 C          -7.8357   -1.8483   -1.0502 C.ar    1  UNL1       -0.0608
     12 C          -8.0190   -2.9483   -0.2156 C.ar    1  UNL1       -0.0583
     13 C          -6.9914   -3.3659    0.6398 C.ar    1  UNL1       -0.0194
     14 C          -5.7668   -2.6921    0.6476 C.ar    1  UNL1        0.1290
     15 O          -4.7583   -3.0980    1.4751 O.3     1  UNL1       -0.5060
     16 C          -0.6747   -1.3871   -0.0193 C.ar    1  UNL1       -0.0373
     17 C           0.5730   -0.7122   -0.0010 C.ar    1  UNL1       -0.0458
     18 C           1.8627   -1.4895    0.0206 C.3     1  UNL1       -0.0394
     19 H           1.6786    2.5649   -0.0262 H       1  UNL1        0.0278
     20 H           2.4575    1.2564   -0.9144 H       1  UNL1        0.0278
     21 H           2.4731    1.2738    0.8784 H       1  UNL1        0.0278
     22 H          -0.6228    2.4825    0.0436 H       1  UNL1        0.0621
     23 H          -2.6985    1.3417    0.0492 H       1  UNL1        0.0636
     24 H          -3.1173   -2.3639   -0.0561 H       1  UNL1        0.1551
     25 H          -6.4977   -0.2718   -1.6388 H       1  UNL1        0.0626
     26 H          -8.6346   -1.5150   -1.7090 H       1  UNL1        0.0618
     27 H          -8.9703   -3.4759   -0.2281 H       1  UNL1        0.0619
     28 H          -7.1732   -4.2112    1.2966 H       1  UNL1        0.0654
     29 H          -5.0748   -3.8178    2.0455 H       1  UNL1        0.2922
     30 H          -0.6820   -2.4750   -0.0317 H       1  UNL1        0.0639
     31 H           1.6882   -2.5692    0.0267 H       1  UNL1        0.0278
     32 H           2.4368   -1.2416    0.9207 H       1  UNL1        0.0278
     33 H           2.4659   -1.2525   -0.8625 H       1  UNL1        0.0278
@<TRIPOS>BOND
     1     1     2    1
     2     2     3   ar
     3     3     4   ar
     4     4     5   ar
     5     5     6    1
     6     6     7   am
     7     7     8    2
     8     7     9    1
     9     9    10   ar
    10    10    11   ar
    11    11    12   ar
    12    12    13   ar
    13    13    14   ar
    14     9    14   ar
    15    14    15    1
    16     5    16   ar
    17    16    17   ar
    18     2    17   ar
    19    17    18    1
    20     1    19    1
    21     1    20    1
    22     1    21    1
    23     3    22    1
    24     4    23    1
    25     6    24    1
    26    10    25    1
    27    11    26    1
    28    12    27    1
    29    13    28    1
    30    15    29    1
    31    16    30    1
    32    18    31    1
    33    18    32    1
    34    18    33    1
