REMARK  7 active torsions:
REMARK  status: ('A' for Active; 'I' for Inactive)
REMARK    1  A    between atoms: C_7  and  N_8 
REMARK    2  A    between atoms: N_8  and  S_9 
REMARK    3  A    between atoms: S_9  and  C_12 
REMARK    4  A    between atoms: C_15  and  N_16 
REMARK       I    between atoms: N_16  and  C_17 
REMARK    5  A    between atoms: C_17  and  C_19 
REMARK    6  A    between atoms: C_22  and  O_23 
REMARK    7  A    between atoms: O_23  and  C_24 
ROOT
ATOM      1  C   UNL d   1       1.157  -5.599  -0.027  0.00  0.00     0.080 A 
ATOM      2  C   UNL d   1       0.051  -6.148   0.626  0.00  0.00     0.027 A 
ATOM      3  C   UNL d   1      -0.086  -7.556   0.720  0.00  0.00     0.031 A 
ATOM      4  C   UNL d   1       0.834  -8.420   0.102  0.00  0.00     0.035 A 
ATOM      5  C   UNL d   1       1.933  -7.837  -0.534  0.00  0.00     0.031 A 
ATOM      6  C   UNL d   1       2.097  -6.451  -0.607  0.00  0.00     0.027 A 
ENDROOT
BRANCH   4   7
ATOM      7  N   UNL d   1       0.624  -9.833   0.111  0.00  0.00    -0.323 N 
ATOM      8  C   UNL d   1       1.458 -10.764  -0.512  0.00  0.00     0.256 C 
ATOM      9  O   UNL d   1       2.492 -10.525  -1.129  0.00  0.00    -0.267 OA
ATOM     10  H   UNL d   1      -0.204 -10.174   0.586  0.00  0.00     0.169 HD
BRANCH   8  11
ATOM     11  C   UNL d   1       1.084 -12.196  -0.469  0.00  0.00     0.032 A 
ATOM     12  C   UNL d   1       2.105 -13.154  -0.338  0.00  0.00     0.020 A 
ATOM     13  C   UNL d   1       1.835 -14.518  -0.517  0.00  0.00     0.038 A 
ATOM     14  C   UNL d   1       0.525 -14.946  -0.734  0.00  0.00     0.069 A 
ATOM     15  C   UNL d   1      -0.487 -13.982  -0.819  0.00  0.00     0.038 A 
ATOM     16  C   UNL d   1      -0.211 -12.614  -0.739  0.00  0.00     0.020 A 
BRANCH  14  17
ATOM     17  O   UNL d   1       0.348 -16.302  -0.864  0.00  0.00    -0.347 OA
BRANCH  17  18
ATOM     18  C   UNL d   1      -0.995 -16.791  -1.019  0.00  0.00     0.120 C 
ATOM     19  C   UNL d   1      -1.546 -16.460  -2.409  0.00  0.00     0.040 C 
ATOM     20  C   UNL d   1      -0.990 -18.317  -0.883  0.00  0.00     0.040 C 
ENDBRANCH  17  18
ENDBRANCH  14  17
ENDBRANCH   8  11
ENDBRANCH   4   7
BRANCH   1  21
ATOM     21  S   UNL d   1       1.526  -3.842  -0.026  0.00  0.00     0.276 S 
ATOM     22  O   UNL d   1       2.171  -3.587  -1.306  0.00  0.00    -0.200 OA
ATOM     23  O   UNL d   1       2.205  -3.615   1.228  0.00  0.00    -0.200 OA
BRANCH  21  24
ATOM     24  N   UNL d   1       0.070  -3.050  -0.014  0.00  0.00    -0.109 N 
ATOM     25  H   UNL d   1      -0.829  -3.503  -0.051  0.00  0.00     0.198 HD
BRANCH  24  26
ATOM     26  C   UNL d   1       0.069  -1.650  -0.011  0.00  0.00     0.736 A 
ATOM     27  N   UNL d   1      -1.145  -1.076  -0.004  0.00  0.00    -0.067 NA
ATOM     28  C   UNL d   1      -1.158   0.284   0.002  0.00  0.00     0.051 A 
ATOM     29  C   UNL d   1       0.003   1.038   0.009  0.00  0.00     0.054 A 
ATOM     30  C   UNL d   1      -2.492   0.981  -0.015  0.00  0.00     0.071 C 
ATOM     31  C   UNL d   1       1.192   0.339   0.004  0.00  0.00     0.051 A 
ATOM     32  C   UNL d   1       2.518   1.032   0.001  0.00  0.00     0.071 C 
ATOM     33  N   UNL d   1       1.232  -1.004  -0.004  0.00  0.00    -0.067 NA
ENDBRANCH  24  26
ENDBRANCH  21  24
ENDBRANCH   1  21
TORSDOF 7
