@<TRIPOS>MOLECULE
*****
 49 51 0 0 0
SMALL
GASTEIGER

@<TRIPOS>ATOM
      1 C           1.0855   -0.1628   -0.1041 C.3     1  UNL1       -0.0134
      2 S           2.8617   -0.3470   -0.4639 S.3     1  UNL1       -0.1268
      3 C           3.3240   -1.3792    0.9413 C.ar    1  UNL1        0.0284
      4 C           3.2748   -2.7486    0.6445 C.ar    1  UNL1       -0.0465
      5 C           3.4383   -3.7080    1.6355 C.ar    1  UNL1       -0.0606
      6 C           3.7868   -3.3159    2.9184 C.ar    1  UNL1       -0.0600
      7 C           3.9110   -1.9535    3.2158 C.ar    1  UNL1       -0.0398
      8 C           3.6750   -0.9466    2.2447 C.ar    1  UNL1        0.0411
      9 N           3.6743    0.3787    2.6955 N.pl3   1  UNL1       -0.3345
     10 C           3.6252    1.5137    1.7769 C.3     1  UNL1        0.0861
     11 C           3.7050    2.8567    2.4959 C.2     1  UNL1        0.2343
     12 O           3.6150    2.9706    3.7148 O.2     1  UNL1       -0.2738
     13 N           4.0134    3.9139    1.6346 N.am    1  UNL1       -0.2835
     14 C           4.4738    5.1589    2.1263 C.ar    1  UNL1        0.0456
     15 C           3.7981    6.3161    1.6850 C.ar    1  UNL1       -0.0397
     16 C           4.2474    7.5914    2.0442 C.ar    1  UNL1       -0.0600
     17 C           5.3516    7.7242    2.8752 C.ar    1  UNL1       -0.0609
     18 C           6.0219    6.5854    3.3224 C.ar    1  UNL1       -0.0478
     19 C           5.6083    5.2879    2.9624 C.ar    1  UNL1        0.0582
     20 C           6.4783    4.1740    3.4915 C.2     1  UNL1        0.2500
     21 O           7.2964    4.4315    4.3879 O.2     1  UNL1       -0.2698
     22 N           6.3882    2.9387    2.8950 N.am    1  UNL1       -0.2815
     23 C           6.7429    1.6969    3.4603 C.ar    1  UNL1        0.0337
     24 C           6.7670    0.5755    2.6236 C.ar    1  UNL1       -0.0405
     25 C           7.0429   -0.6918    3.1372 C.ar    1  UNL1       -0.0600
     26 C           7.3604   -0.8360    4.4828 C.ar    1  UNL1       -0.0616
     27 C           7.2887    0.2663    5.3326 C.ar    1  UNL1       -0.0600
     28 C           6.9519    1.5247    4.8279 C.ar    1  UNL1       -0.0405
     29 H           0.6881    0.6487   -0.7210 H       1  UNL1        0.0344
     30 H           0.8728    0.0791    0.9436 H       1  UNL1        0.0344
     31 H           0.5714   -1.0883   -0.3681 H       1  UNL1        0.0344
     32 H           3.0725   -3.0710   -0.3735 H       1  UNL1        0.0629
     33 H           3.2717   -4.7542    1.3994 H       1  UNL1        0.0618
     34 H           3.9506   -4.0689    3.6862 H       1  UNL1        0.0618
     35 H           4.1847   -1.6839    4.2371 H       1  UNL1        0.0636
     36 H           4.2430    0.5525    3.5303 H       1  UNL1        0.1466
     37 H           2.6629    1.5452    1.2786 H       1  UNL1        0.0557
     38 H           4.4487    1.4594    1.0482 H       1  UNL1        0.0557
     39 H           3.6575    3.8892    0.6824 H       1  UNL1        0.1549
     40 H           2.8746    6.2462    1.1122 H       1  UNL1        0.0636
     41 H           3.7391    8.4834    1.6824 H       1  UNL1        0.0618
     42 H           5.6966    8.7084    3.1844 H       1  UNL1        0.0618
     43 H           6.9031    6.7159    3.9491 H       1  UNL1        0.0626
     44 H           5.9235    2.9036    2.0017 H       1  UNL1        0.1551
     45 H           6.5327    0.6588    1.5664 H       1  UNL1        0.0636
     46 H           6.9794   -1.5647    2.4911 H       1  UNL1        0.0618
     47 H           7.6505   -1.8086    4.8687 H       1  UNL1        0.0618
     48 H           7.4871    0.1507    6.3944 H       1  UNL1        0.0618
     49 H           6.8218    2.3519    5.5212 H       1  UNL1        0.0636
@<TRIPOS>BOND
     1     1     2    1
     2     2     3    1
     3     3     4   ar
     4     4     5   ar
     5     5     6   ar
     6     6     7   ar
     7     7     8   ar
     8     3     8   ar
     9     8     9    1
    10     9    10    1
    11    10    11    1
    12    11    12    2
    13    11    13   am
    14    13    14    1
    15    14    15   ar
    16    15    16   ar
    17    16    17   ar
    18    17    18   ar
    19    18    19   ar
    20    14    19   ar
    21    19    20    1
    22    20    21    2
    23    20    22   am
    24    22    23    1
    25    23    24   ar
    26    24    25   ar
    27    25    26   ar
    28    26    27   ar
    29    27    28   ar
    30    23    28   ar
    31     1    29    1
    32     1    30    1
    33     1    31    1
    34     4    32    1
    35     5    33    1
    36     6    34    1
    37     7    35    1
    38     9    36    1
    39    10    37    1
    40    10    38    1
    41    13    39    1
    42    15    40    1
    43    16    41    1
    44    17    42    1
    45    18    43    1
    46    22    44    1
    47    24    45    1
    48    25    46    1
    49    26    47    1
    50    27    48    1
    51    28    49    1
