REMARK  7 active torsions:
REMARK  status: ('A' for Active; 'I' for Inactive)
REMARK       I    between atoms: C_2  and  N_4 
REMARK    1  A    between atoms: N_4  and  C_5 
REMARK    2  A    between atoms: C_10  and  N_11 
REMARK       I    between atoms: N_11  and  C_12 
REMARK    3  A    between atoms: C_12  and  C_14 
REMARK    4  A    between atoms: C_17  and  C_18 
REMARK    5  A    between atoms: C_18  and  N_19 
REMARK       I    between atoms: N_19  and  C_20 
REMARK    6  A    between atoms: C_20  and  O_22 
REMARK    7  A    between atoms: O_22  and  C_23 
ROOT
ATOM      1  N   UNL d   1      10.833  -0.515  -0.693  0.00  0.00    -0.323 N 
ATOM      2  C   UNL d   1      11.887  -0.120  -1.522  0.00  0.00     0.256 C 
ATOM      3  O   UNL d   1      11.805   0.326  -2.663  0.00  0.00    -0.267 OA
ATOM      4  H   UNL d   1      11.051  -0.831   0.245  0.00  0.00     0.169 HD
ENDROOT
BRANCH   2   5
ATOM      5  C   UNL d   1      13.273  -0.261  -1.028  0.00  0.00     0.032 A 
ATOM      6  C   UNL d   1      14.226   0.703  -1.400  0.00  0.00     0.017 A 
ATOM      7  C   UNL d   1      15.588   0.485  -1.159  0.00  0.00     0.010 A 
ATOM      8  C   UNL d   1      16.012  -0.668  -0.473  0.00  0.00    -0.040 A 
ATOM      9  C   UNL d   1      15.042  -1.629  -0.144  0.00  0.00     0.010 A 
ATOM     10  C   UNL d   1      13.687  -1.434  -0.414  0.00  0.00     0.017 A 
BRANCH   8  11
ATOM     11  C   UNL d   1      17.467  -0.809  -0.074  0.00  0.00     0.163 C 
BRANCH  11  12
ATOM     12  N   UNL d   1      17.792  -1.997   0.698  0.00  0.00    -0.333 N 
ATOM     13  C   UNL d   1      19.052  -2.213   1.160  0.00  0.00     0.361 C 
ATOM     14  O   UNL d   1      19.971  -1.424   0.953  0.00  0.00    -0.238 OA
ATOM     15  H   UNL d   1      17.107  -2.688   0.951  0.00  0.00     0.165 HD
BRANCH  13  16
ATOM     16  O   UNL d   1      19.145  -3.385   1.859  0.00  0.00    -0.294 OA
BRANCH  16  17
ATOM     17  C   UNL d   1      20.448  -3.759   2.405  0.00  0.00     0.061 C 
ATOM     18  C   UNL d   1      21.474  -3.945   1.279  0.00  0.00     0.046 C 
ATOM     19  C   UNL d   1      20.921  -2.723   3.433  0.00  0.00     0.046 C 
ATOM     20  C   UNL d   1      20.333  -5.113   3.143  0.00  0.00     0.046 C 
ENDBRANCH  16  17
ENDBRANCH  13  16
ENDBRANCH  11  12
ENDBRANCH   8  11
ENDBRANCH   2   5
BRANCH   1  21
ATOM     21  C   UNL d   1       9.450  -0.444  -1.055  0.00  0.00     0.036 A 
ATOM     22  C   UNL d   1       9.055  -0.005  -2.318  0.00  0.00     0.032 A 
ATOM     23  C   UNL d   1       7.714   0.079  -2.707  0.00  0.00     0.035 A 
ATOM     24  C   UNL d   1       6.701  -0.286  -1.812  0.00  0.00     0.077 A 
ATOM     25  N   UNL d   1       5.335  -0.284  -2.081  0.00  0.00    -0.223 NA
ATOM     26  C   UNL d   1       7.080  -0.705  -0.533  0.00  0.00     0.039 A 
ATOM     27  C   UNL d   1       4.676  -0.556  -0.983  0.00  0.00     0.174 C 
ATOM     28  S   UNL d   1       5.633  -1.025   0.360  0.00  0.00    -0.050 SA
ATOM     29  C   UNL d   1       8.446  -0.809  -0.137  0.00  0.00     0.051 A 
BRANCH  27  30
ATOM     30  N   UNL d   1       3.294  -0.619  -0.913  0.00  0.00    -0.306 N 
ATOM     31  C   UNL d   1       2.617  -0.059   0.157  0.00  0.00     0.219 C 
ATOM     32  C   UNL d   1       1.108  -0.072   0.040  0.00  0.00     0.117 C 
ATOM     33  O   UNL d   1       3.141   0.459   1.140  0.00  0.00    -0.274 OA
ATOM     34  H   UNL d   1       2.828  -0.666  -1.810  0.00  0.00     0.171 HD
ENDBRANCH  27  30
ENDBRANCH   1  21
TORSDOF 7
