@<TRIPOS>MOLECULE
*****
 60 64 0 0 0
SMALL
GASTEIGER

@<TRIPOS>ATOM
      1 O           1.1682    0.1486    0.2214 O.2     1  UNL1       -0.2743
      2 C           2.3931    0.0974    0.1121 C.2     1  UNL1        0.2296
      3 C           3.0071   -0.4399   -1.1543 C.3     1  UNL1        0.0293
      4 C           1.9960   -0.9201   -2.2110 C.3     1  UNL1       -0.0165
      5 C           2.6994   -1.4699   -3.4116 C.2     1  UNL1        0.0081
      6 C           3.2521   -0.7207   -4.3578 C.ar    1  UNL1        0.0509
      7 C           3.2923    0.6756   -4.5324 C.ar    1  UNL1       -0.0482
      8 C           3.6733    1.0897   -5.7370 C.ar    1  UNL1       -0.0608
      9 C           4.1662    0.1730   -6.7545 C.ar    1  UNL1       -0.0555
     10 C           4.3996   -1.1305   -6.5611 C.ar    1  UNL1        0.0098
     11 C           3.7832   -1.6641   -5.3530 C.ar    1  UNL1        0.2086
     12 N           3.5373   -2.8686   -5.0598 N.2     1  UNL1       -0.2369
     13 C           2.7610   -2.9168   -3.8029 C.3     1  UNL1        0.1660
     14 N           3.2279    0.5053    1.1473 N.am    1  UNL1       -0.2292
     15 N           4.6813    0.8880    1.0428 N.am    1  UNL1       -0.1859
     16 C           5.1360    1.6736    2.1539 C.2     1  UNL1        0.2669
     17 O           4.4453    1.9435    3.0930 O.2     1  UNL1       -0.2683
     18 C           6.6534    1.7609    2.2200 C.ar    1  UNL1        0.0593
     19 C           7.4750    2.0910    1.1419 C.ar    1  UNL1       -0.0478
     20 C           8.7966    1.5591    1.0251 C.ar    1  UNL1       -0.0609
     21 C           9.3772    0.8612    2.0756 C.ar    1  UNL1       -0.0600
     22 C           8.5322    0.4831    3.0969 C.ar    1  UNL1       -0.0400
     23 C           7.1355    0.6475    2.8795 C.ar    1  UNL1        0.0414
     24 N           6.4180   -0.5792    2.2168 N.pl3   1  UNL1       -0.3156
     25 C           5.5927   -0.2313    0.8494 C.3     1  UNL1        0.1563
     26 S           6.7052   -0.1087   -0.9184 S.3     1  UNL1       -0.1099
     27 C           5.9262    1.0206   -2.4810 C.3     1  UNL1        0.0600
     28 C           6.8600    0.9948   -3.8295 C.2     1  UNL1        0.1730
     29 O           7.6862    0.0899   -3.9828 O.2     1  UNL1       -0.2912
     30 C           6.6185    1.9006   -5.1263 C.ar    1  UNL1        0.0183
     31 C           6.0065    3.1650   -5.1304 C.ar    1  UNL1       -0.0499
     32 C           5.4656    3.7339   -6.3321 C.ar    1  UNL1       -0.0427
     33 C           5.6107    3.0998   -7.5679 C.ar    1  UNL1        0.0410
     34 CL          4.5282    3.4812   -8.8693 Cl      1  UNL1       -0.0835
     35 C           6.4075    1.9635   -7.6399 C.ar    1  UNL1       -0.0427
     36 C           6.8733    1.3556   -6.4276 C.ar    1  UNL1       -0.0499
     37 H           3.6670   -1.2761   -0.9176 H       1  UNL1        0.0362
     38 H           3.5745    0.3967   -1.5516 H       1  UNL1        0.0362
     39 H           1.3584   -0.0802   -2.5252 H       1  UNL1        0.0317
     40 H           1.3192   -1.6830   -1.8189 H       1  UNL1        0.0317
     41 H           3.0249    1.3752   -3.7460 H       1  UNL1        0.0626
     42 H           3.7232    2.1562   -5.8815 H       1  UNL1        0.0618
     43 H           4.4818    0.5967   -7.6962 H       1  UNL1        0.0620
     44 H           4.9109   -1.7374   -7.2990 H       1  UNL1        0.0683
     45 H           3.7745   -3.6330   -5.6948 H       1  UNL1        0.4459
     46 H           3.3062   -3.5275   -3.0879 H       1  UNL1        0.1077
     47 H           1.7678   -3.3012   -4.0457 H       1  UNL1        0.1077
     48 H           2.7345    0.9224    1.9447 H       1  UNL1        0.1731
     49 H           7.0225    2.5192    0.2544 H       1  UNL1        0.0626
     50 H           9.3372    1.6123    0.0821 H       1  UNL1        0.0618
     51 H          10.4325    0.5904    2.0737 H       1  UNL1        0.0618
     52 H           8.9623    0.1639    4.0494 H       1  UNL1        0.0636
     53 H           5.6939   -0.6894    2.9526 H       1  UNL1        0.1487
     54 H           5.0032   -1.1365    0.7044 H       1  UNL1        0.0847
     55 H           5.6651    2.0366   -2.1810 H       1  UNL1        0.0459
     56 H           5.0631    0.4393   -2.7723 H       1  UNL1        0.0459
     57 H           5.8201    3.6970   -4.2062 H       1  UNL1        0.0625
     58 H           4.7711    4.5747   -6.2647 H       1  UNL1        0.0632
     59 H           6.4535    1.4154   -8.5883 H       1  UNL1        0.0632
     60 H           7.2637    0.3406   -6.5253 H       1  UNL1        0.0625
@<TRIPOS>UNITY_ATOM_ATTR
12 1
charge 1
@<TRIPOS>BOND
     1     1     2    2
     2     2     3    1
     3     3     4    1
     4     4     5    1
     5     5     6    2
     6     6     7   ar
     7     7     8   ar
     8     8     9   ar
     9     9    10   ar
    10    10    11   ar
    11     6    11   ar
    12    11    12    2
    13    12    13    1
    14     5    13    1
    15     2    14   am
    16    14    15    1
    17    15    16   am
    18    16    17    2
    19    16    18    1
    20    18    19   ar
    21    19    20   ar
    22    20    21   ar
    23    21    22   ar
    24    22    23   ar
    25    18    23   ar
    26    23    24    1
    27    24    25    1
    28    15    25    1
    29    26    27    1
    30    27    28    1
    31    28    29    2
    32    28    30    1
    33    30    31   ar
    34    31    32   ar
    35    32    33   ar
    36    33    34    1
    37    33    35   ar
    38    35    36   ar
    39    30    36   ar
    40    25    26    1
    41     3    37    1
    42     3    38    1
    43     4    39    1
    44     4    40    1
    45     7    41    1
    46     8    42    1
    47     9    43    1
    48    10    44    1
    49    12    45    1
    50    13    46    1
    51    13    47    1
    52    14    48    1
    53    19    49    1
    54    20    50    1
    55    21    51    1
    56    22    52    1
    57    24    53    1
    58    25    54    1
    59    27    55    1
    60    27    56    1
    61    31    57    1
    62    32    58    1
    63    35    59    1
    64    36    60    1
