@<TRIPOS>MOLECULE
*****
 56 59 0 0 0
SMALL
GASTEIGER

@<TRIPOS>ATOM
      1 C          22.3098    1.1257    9.6489 C.3     1  UNL1       -0.0307
      2 C          21.4438    0.5122    8.5628 C.3     1  UNL1        0.0868
      3 O          21.4665    1.3789    7.4227 O.3     1  UNL1       -0.4922
      4 C          20.6063    1.0505    6.4115 C.ar    1  UNL1        0.1206
      5 C          21.0094    1.3474    5.1061 C.ar    1  UNL1       -0.0182
      6 C          20.1516    1.1250    4.0093 C.ar    1  UNL1       -0.0370
      7 C          18.9052    0.5237    4.2016 C.ar    1  UNL1        0.0336
      8 N          18.1456    0.0956    3.0670 N.am    1  UNL1       -0.2848
      9 C          17.0348   -0.7323    3.1633 C.2     1  UNL1        0.2273
     10 O          16.4693   -0.9487    4.2382 O.2     1  UNL1       -0.2746
     11 C          16.4468   -1.3373    1.8423 C.3     1  UNL1        0.0782
     12 S          15.0057   -2.4774    2.4228 S.3     1  UNL1       -0.0541
     13 C          13.5939   -2.2499    1.1947 C.3     1  UNL1        0.3258
     14 N          13.4114   -3.6741    0.7415 N.2     1  UNL1       -0.0163
     15 C          14.1937   -3.9531   -0.2234 C.2     1  UNL1        0.4088
     16 N          14.5818   -5.2252   -0.5943 N.2     1  UNL1        0.0863
     17 N          15.3059   -5.1276   -1.6231 N.2     1  UNL1       -0.0388
     18 C          15.3845   -3.8027   -1.9785 C.2     1  UNL1        0.1084
     19 C          16.0152   -3.3869   -3.2570 C.3     1  UNL1       -0.0175
     20 C          14.7913   -2.9974   -1.1318 C.2     1  UNL1        0.1883
     21 C          14.4943   -1.5633   -0.9754 C.2     1  UNL1        0.3314
     22 N          14.8747   -0.7165   -1.8817 N.2     1  UNL1       -0.0985
     23 N          13.8304   -1.1872    0.1936 N.pl3   1  UNL1       -0.1336
     24 C          13.4210    0.1707    0.3985 C.ar    1  UNL1        0.1288
     25 C          12.7774    0.8486   -0.6585 C.ar    1  UNL1       -0.0164
     26 C          12.6443    2.2474   -0.6840 C.ar    1  UNL1       -0.0579
     27 C          13.1483    3.0242    0.3462 C.ar    1  UNL1       -0.0613
     28 C          13.7243    2.3965    1.4234 C.ar    1  UNL1       -0.0550
     29 C          13.7575    0.9946    1.5052 C.ar    1  UNL1       -0.0056
     30 C          14.1653    0.5463    2.8549 C.3     1  UNL1       -0.0359
     31 C          18.5023    0.2908    5.5231 C.ar    1  UNL1       -0.0370
     32 C          19.3357    0.5415    6.6137 C.ar    1  UNL1       -0.0182
     33 H          22.3847    0.4549   10.5100 H       1  UNL1        0.0262
     34 H          21.8838    2.0769    9.9872 H       1  UNL1        0.0262
     35 H          23.3142    1.3383    9.2720 H       1  UNL1        0.0262
     36 H          20.4409    0.3795    8.9805 H       1  UNL1        0.0694
     37 H          21.8495   -0.4632    8.2727 H       1  UNL1        0.0694
     38 H          22.0119    1.7337    4.9371 H       1  UNL1        0.0655
     39 H          20.4945    1.4059    3.0177 H       1  UNL1        0.0637
     40 H          18.5087    0.3315    2.1523 H       1  UNL1        0.1548
     41 H          17.1589   -1.9658    1.3140 H       1  UNL1        0.0474
     42 H          16.1577   -0.5099    1.1806 H       1  UNL1        0.0474
     43 H          12.6391   -2.0221    1.6918 H       1  UNL1        0.1471
     44 H          16.4337   -4.2258   -3.8127 H       1  UNL1        0.0294
     45 H          16.8149   -2.6669   -3.0574 H       1  UNL1        0.0294
     46 H          15.2597   -2.9077   -3.8918 H       1  UNL1        0.0294
     47 H          15.3388   -1.1451   -2.6781 H       1  UNL1        0.3633
     48 H          12.3889    0.2854   -1.5056 H       1  UNL1        0.0658
     49 H          12.1814    2.7348   -1.5349 H       1  UNL1        0.0619
     50 H          13.0666    4.1048    0.3491 H       1  UNL1        0.0618
     51 H          14.1518    2.9903    2.2315 H       1  UNL1        0.0621
     52 H          14.7037    1.2807    3.4623 H       1  UNL1        0.0279
     53 H          14.9243   -0.1330    2.6509 H       1  UNL1        0.0279
     54 H          13.3757    0.0434    3.4069 H       1  UNL1        0.0279
     55 H          17.5218   -0.0906    5.7803 H       1  UNL1        0.0637
     56 H          18.9371    0.3317    7.5994 H       1  UNL1        0.0655
@<TRIPOS>BOND
     1     1     2    1
     2     2     3    1
     3     3     4    1
     4     4     5   ar
     5     5     6   ar
     6     6     7   ar
     7     7     8    1
     8     8     9   am
     9     9    10    2
    10     9    11    1
    11    11    12    1
    12    13    14    1
    13    14    15    2
    14    15    16    1
    15    16    17    2
    16    17    18    1
    17    18    19    1
    18    18    20    2
    19    15    20    1
    20    20    21    1
    21    21    22    2
    22    21    23    1
    23    13    23    1
    24    23    24    1
    25    24    25   ar
    26    25    26   ar
    27    26    27   ar
    28    27    28   ar
    29    28    29   ar
    30    24    29   ar
    31    29    30    1
    32     7    31   ar
    33    31    32   ar
    34     4    32   ar
    35    13    12    1
    36     1    33    1
    37     1    34    1
    38     1    35    1
    39     2    36    1
    40     2    37    1
    41     5    38    1
    42     6    39    1
    43     8    40    1
    44    11    41    1
    45    11    42    1
    46    13    43    1
    47    19    44    1
    48    19    45    1
    49    19    46    1
    50    22    47    1
    51    25    48    1
    52    26    49    1
    53    27    50    1
    54    28    51    1
    55    30    52    1
    56    30    53    1
    57    30    54    1
    58    31    55    1
    59    32    56    1
