REMARK  6 active torsions:
REMARK  status: ('A' for Active; 'I' for Inactive)
REMARK    1  A    between atoms: C_2  and  N_3 
REMARK    2  A    between atoms: C_4  and  S_5 
REMARK    3  A    between atoms: S_5  and  C_6 
REMARK    4  A    between atoms: C_6  and  C_7 
REMARK       I    between atoms: C_7  and  N_9 
REMARK    5  A    between atoms: N_9  and  C_10 
REMARK    6  A    between atoms: C_21  and  C_22 
ROOT
ATOM      1  N   UNL d   1       3.080   0.054   1.314  0.00  0.00    -0.291 N 
ATOM      2  C   UNL d   1       3.179   1.344   1.857  0.00  0.00     0.172 A 
ATOM      3  N   UNL d   1       3.578   1.599   3.083  0.00  0.00    -0.221 NA
ATOM      4  C   UNL d   1       3.927   0.483   3.866  0.00  0.00     0.104 A 
ATOM      5  C   UNL d   1       4.399   0.396   5.210  0.00  0.00     0.021 A 
ATOM      6  C   UNL d   1       4.591  -0.954   5.473  0.00  0.00     0.103 A 
ATOM      7  N   UNL d   1       4.253  -1.659   4.342  0.00  0.00    -0.359 N 
ATOM      8  C   UNL d   1       3.856  -0.777   3.375  0.00  0.00     0.131 A 
ATOM      9  C   UNL d   1       3.420  -1.094   2.057  0.00  0.00     0.278 A 
ATOM     10  O   UNL d   1       3.351  -2.223   1.650  0.00  0.00    -0.265 OA
ATOM     11  H   UNL d   1       4.282  -2.664   4.231  0.00  0.00     0.165 HD
ENDROOT
BRANCH   2  12
ATOM     12  S   UNL d   1       2.752   2.816   0.925  0.00  0.00    -0.082 SA
BRANCH  12  13
ATOM     13  C   UNL d   1       2.266   2.490  -0.798  0.00  0.00     0.185 C 
BRANCH  13  14
ATOM     14  C   UNL d   1       1.740   3.678  -1.548  0.00  0.00     0.231 C 
ATOM     15  O   UNL d   1       1.814   4.819  -1.097  0.00  0.00    -0.272 OA
ATOM     16  N   UNL d   1       1.159   3.361  -2.808  0.00  0.00    -0.326 N 
ATOM     17  H   UNL d   1       1.093   2.419  -3.178  0.00  0.00     0.169 HD
BRANCH  16  18
ATOM     18  C   UNL d   1       1.042   4.400  -3.738  0.00  0.00     0.037 C 
ATOM     19  C   UNL d   1      -0.007   4.691  -4.613  0.00  0.00     0.032 C 
ATOM     20  C   UNL d   1      -0.068   6.040  -5.080  0.00  0.00     0.042 C 
ATOM     21  C   UNL d   1       1.119   6.758  -5.012  0.00  0.00     0.105 C 
ATOM     22  C   UNL d   1       2.227   6.013  -4.844  0.00  0.00     0.107 C 
ATOM     23  O   UNL d   1       1.544   8.067  -4.981  0.00  0.00    -0.323 OA
ATOM     24  C   UNL d   1       2.155   5.177  -3.809  0.00  0.00     0.069 C 
ATOM     25  O   UNL d   1       3.395   6.618  -5.129  0.00  0.00    -0.323 OA
ATOM     26  C   UNL d   1       2.970   7.860  -4.605  0.00  0.00     0.352 C 
ENDBRANCH  16  18
ENDBRANCH  13  14
ENDBRANCH  12  13
ENDBRANCH   2  12
BRANCH   1  27
ATOM     27  C   UNL d   1       2.560  -0.273   0.008  0.00  0.00     0.130 C 
ATOM     28  C   UNL d   1       1.034  -0.240  -0.001  0.00  0.00     0.027 C 
ENDBRANCH   1  27
BRANCH   5  29
ATOM     29  C   UNL d   1       4.640   1.431   6.194  0.00  0.00    -0.022 C 
ATOM     30  C   UNL d   1       5.937   1.747   6.610  0.00  0.00     0.012 C 
ATOM     31  C   UNL d   1       6.171   2.964   7.252  0.00  0.00     0.001 C 
ATOM     32  C   UNL d   1       5.098   3.724   7.716  0.00  0.00     0.000 C 
ATOM     33  C   UNL d   1       3.793   3.305   7.471  0.00  0.00     0.001 C 
ATOM     34  C   UNL d   1       3.567   2.201   6.650  0.00  0.00     0.012 C 
ENDBRANCH   5  29
TORSDOF 6
