REMARK  4 active torsions:
REMARK  status: ('A' for Active; 'I' for Inactive)
REMARK    1  A    between atoms: C_4  and  C_5 
REMARK    2  A    between atoms: C_5  and  C_6 
REMARK       I    between atoms: C_6  and  N_8 
REMARK    3  A    between atoms: N_8  and  N_9 
REMARK    4  A    between atoms: N_9  and  C_10 
ROOT
ATOM      1  C   UNL d   1       2.452  -3.888  -0.067  0.00  0.00     0.240 C 
ATOM      2  O   UNL d   1       3.490  -3.216   0.010  0.00  0.00    -0.272 OA
ATOM      3  N   UNL d   1       2.579  -5.268  -0.210  0.00  0.00    -0.269 N 
ATOM      4  H   UNL d   1       1.821  -5.904   0.016  0.00  0.00     0.190 HD
ENDROOT
BRANCH   1   5
ATOM      5  C   UNL d   1       1.013  -3.315  -0.028  0.00  0.00     0.145 C 
BRANCH   5   6
ATOM      6  C   UNL d   1       0.924  -1.794  -0.004  0.00  0.00    -0.021 A 
ATOM      7  C   UNL d   1       1.988  -0.911   0.010  0.00  0.00     0.099 A 
ATOM      8  N   UNL d   1       1.536   0.371   0.004  0.00  0.00    -0.360 N 
ATOM      9  C   UNL d   1       2.406   1.523  -0.040  0.00  0.00     0.155 C 
ATOM     10  C   UNL d   1       0.166   0.385   0.013  0.00  0.00     0.044 A 
ATOM     11  C   UNL d   1      -0.722   1.471   0.024  0.00  0.00     0.030 A 
ATOM     12  C   UNL d   1      -0.257  -0.955  -0.002  0.00  0.00    -0.001 A 
ATOM     13  C   UNL d   1      -2.087   1.201   0.004  0.00  0.00     0.002 A 
ATOM     14  C   UNL d   1      -2.549  -0.112  -0.020  0.00  0.00     0.001 A 
ATOM     15  C   UNL d   1      -1.651  -1.194  -0.018  0.00  0.00     0.014 A 
ENDBRANCH   5   6
ENDBRANCH   1   5
BRANCH   3  16
ATOM     16  N   UNL d   1       3.879  -5.739   0.054  0.00  0.00    -0.298 N 
ATOM     17  H   UNL d   1       4.624  -5.033   0.040  0.00  0.00     0.187 HD
BRANCH  16  18
ATOM     18  C   UNL d   1       4.200  -7.089  -0.086  0.00  0.00     0.048 A 
ATOM     19  C   UNL d   1       3.504  -7.962  -0.928  0.00  0.00     0.034 A 
ATOM     20  C   UNL d   1       3.807  -9.328  -0.950  0.00  0.00     0.044 A 
ATOM     21  C   UNL d   1       4.799  -9.829  -0.117  0.00  0.00     0.116 A 
ATOM     22  F   UNL d   1       5.073 -11.140  -0.127  0.00  0.00    -0.206 F 
ATOM     23  C   UNL d   1       5.508  -8.986   0.726  0.00  0.00     0.044 A 
ATOM     24  C   UNL d   1       5.214  -7.620   0.732  0.00  0.00     0.034 A 
ENDBRANCH  16  18
ENDBRANCH   3  16
TORSDOF 4
