REMARK  5 active torsions:
REMARK  status: ('A' for Active; 'I' for Inactive)
REMARK       I    between atoms: C_2  and  N_3 
REMARK    1  A    between atoms: C_2  and  C_19 
REMARK    2  A    between atoms: N_3  and  C_4 
REMARK    3  A    between atoms: C_8  and  S_9 
REMARK    4  A    between atoms: S_9  and  N_12 
REMARK    5  A    between atoms: N_12  and  C_13 
ROOT
ATOM      1  C   UNL d   1       2.308   2.124   1.359  0.00  0.00     0.036 A 
ATOM      2  C   UNL d   1       2.854   3.409   1.259  0.00  0.00     0.029 A 
ATOM      3  C   UNL d   1       2.322   4.456   2.021  0.00  0.00     0.004 A 
ATOM      4  C   UNL d   1       1.219   4.230   2.851  0.00  0.00     0.025 A 
ATOM      5  C   UNL d   1       0.664   2.946   2.927  0.00  0.00     0.083 A 
ATOM      6  C   UNL d   1       1.196   1.904   2.174  0.00  0.00     0.054 A 
ENDROOT
BRANCH   1   7
ATOM      7  N   UNL d   1       2.941   1.039   0.718  0.00  0.00    -0.323 N 
ATOM      8  C   UNL d   1       2.220  -0.038   0.208  0.00  0.00     0.256 C 
ATOM      9  O   UNL d   1       1.018  -0.122   0.111  0.00  0.00    -0.267 OA
ATOM     10  H   UNL d   1       3.924   1.130   0.501  0.00  0.00     0.169 HD
BRANCH   8  11
ATOM     11  C   UNL d   1       3.035  -1.068  -0.457  0.00  0.00     0.036 C 
ATOM     12  C   UNL d   1       4.021  -1.842   0.132  0.00  0.00     0.040 C 
ATOM     13  C   UNL d   1       4.609  -2.859  -0.656  0.00  0.00     0.058 C 
ATOM     14 CL   UNL d   1       6.203  -3.314  -0.086  0.00  0.00    -0.085 Cl
ATOM     15  C   UNL d   1       4.297  -2.931  -2.036  0.00  0.00     0.192 C 
ATOM     16  C   UNL d   1       3.765  -1.813  -2.606  0.00  0.00     0.094 C 
ATOM     17  O   UNL d   1       3.483  -3.957  -2.684  0.00  0.00    -0.339 OA
ATOM     18  C   UNL d   1       2.846  -1.142  -1.825  0.00  0.00     0.053 C 
ATOM     19  O   UNL d   1       3.526  -1.974  -3.946  0.00  0.00    -0.327 OA
ATOM     20  C   UNL d   1       2.825  -3.194  -3.778  0.00  0.00     0.346 C 
ENDBRANCH   8  11
ENDBRANCH   1   7
BRANCH   5  21
ATOM     21  S   UNL d   1      -0.665   2.634   4.081  0.00  0.00     0.284 S 
ATOM     22  O   UNL d   1      -0.090   2.878   5.389  0.00  0.00    -0.198 OA
ATOM     23  O   UNL d   1      -1.773   3.457   3.619  0.00  0.00    -0.198 OA
BRANCH  21  24
ATOM     24  N   UNL d   1      -1.032   1.044   3.976  0.00  0.00    -0.147 NA
BRANCH  24  25
ATOM     25  C   UNL d   1      -2.084   0.639   3.357  0.00  0.00     0.113 C 
ATOM     26  C   UNL d   1      -2.464  -0.839   3.306  0.00  0.00     0.080 C 
ATOM     27  C   UNL d   1      -3.501  -0.855   2.171  0.00  0.00     0.027 C 
ATOM     28  C   UNL d   1      -4.139   0.533   2.225  0.00  0.00     0.121 C 
ATOM     29  N   UNL d   1      -3.042   1.339   2.685  0.00  0.00    -0.378 N 
ATOM     30  H   UNL d   1      -3.085   2.357   2.739  0.00  0.00     0.160 HD
ENDBRANCH  24  25
ENDBRANCH  21  24
ENDBRANCH   5  21
TORSDOF 5
