@<TRIPOS>MOLECULE
*****
 68 72 0 0 0
SMALL
GASTEIGER

@<TRIPOS>ATOM
      1 C           0.6984   -0.2640   -0.0888 C.3     1  UNL1       -0.0564
      2 C           2.2837   -0.0702    0.1423 C.3     1  UNL1        0.0036
      3 C           2.9528   -1.2668   -0.5445 C.3     1  UNL1       -0.0442
      4 C           2.5350   -1.3896   -1.9736 C.3     1  UNL1       -0.0483
      5 C           2.9272   -0.0965   -2.6403 C.3     1  UNL1       -0.0224
      6 C           2.2222    1.2868   -1.9660 C.3     1  UNL1       -0.0078
      7 C           2.7145    2.4486   -2.8844 C.3     1  UNL1       -0.0447
      8 C           4.1745    2.6621   -2.9149 C.3     1  UNL1       -0.0227
      9 C           4.8461    1.3555   -3.1009 C.3     1  UNL1        0.0792
     10 O           5.6595    1.4320   -1.8639 O.3     1  UNL1       -0.3876
     11 C           5.4034    1.4756   -4.4587 C.3     1  UNL1        0.0030
     12 C           6.7939    1.9818   -4.2777 C.3     1  UNL1        0.0579
     13 O           7.5151    2.3219   -3.0959 O.3     1  UNL1       -0.3917
     14 C           7.2078    0.5279   -4.3913 C.3     1  UNL1       -0.0258
     15 C           6.1416   -0.4995   -3.1553 C.3     1  UNL1       -0.0372
     16 C           4.4203   -0.0994   -3.2377 C.3     1  UNL1        0.0395
     17 C           4.2552   -1.0516   -4.4957 C.2     1  UNL1        0.0324
     18 N           3.2753   -0.9598   -5.3407 N.2     1  UNL1       -0.1908
     19 N           3.4795   -1.6645   -6.4908 N.am    1  UNL1       -0.1913
     20 C           2.4653   -1.7993   -7.3823 C.2     1  UNL1        0.3165
     21 N           1.2649   -1.3817   -6.9561 N.am    1  UNL1       -0.3120
     22 O           2.6409   -2.3051   -8.5258 O.2     1  UNL1       -0.2513
     23 C           2.4027    1.3730   -0.3371 C.3     1  UNL1        0.0751
     24 O           3.7237    1.8823   -0.1909 O.3     1  UNL1       -0.3877
     25 C           1.5480    1.8459    1.1565 C.3     1  UNL1       -0.0226
     26 C           2.6663    1.5195    2.1213 C.3     1  UNL1       -0.0432
     27 C           2.9502    0.0771    1.5973 C.3     1  UNL1       -0.0081
     28 C           2.4416   -1.0441    2.4378 C.2     1  UNL1       -0.0222
     29 C           1.1718   -1.3306    2.7244 C.2     1  UNL1        0.0252
     30 C           1.1638   -2.6590    3.2658 C.2     1  UNL1        0.3323
     31 O           0.1057   -3.2767    3.5491 O.2     1  UNL1       -0.2456
     32 O           2.4169   -3.1321    3.3745 O.3     1  UNL1       -0.4571
     33 C           3.3200   -2.1506    2.8540 C.3     1  UNL1        0.1147
     34 H           0.4277   -0.3301   -1.1408 H       1  UNL1        0.0236
     35 H           0.0583    0.6007    0.1344 H       1  UNL1        0.0236
     36 H           0.3030   -1.1364    0.4053 H       1  UNL1        0.0236
     37 H           2.6302   -2.1823   -0.0384 H       1  UNL1        0.0272
     38 H           4.0456   -1.2315   -0.4847 H       1  UNL1        0.0272
     39 H           1.4551   -1.5552   -2.0759 H       1  UNL1        0.0268
     40 H           2.9525   -2.2808   -2.4488 H       1  UNL1        0.0268
     41 H           2.2832   -0.1228   -3.5379 H       1  UNL1        0.0314
     42 H           1.1517    1.2345   -2.2067 H       1  UNL1        0.0332
     43 H           2.2736    3.4082   -2.6431 H       1  UNL1        0.0270
     44 H           2.4754    2.2035   -3.9337 H       1  UNL1        0.0270
     45 H           4.5471    3.1852   -2.0235 H       1  UNL1        0.0293
     46 H           4.4884    3.3571   -3.7074 H       1  UNL1        0.0293
     47 H           6.5496    1.8341   -2.0267 H       1  UNL1        0.2102
     48 H           4.7471    1.7872   -5.2766 H       1  UNL1        0.0318
     49 H           5.4069    0.4982   -5.0166 H       1  UNL1        0.0318
     50 H           6.7062    2.9137   -4.8573 H       1  UNL1        0.0594
     51 H           8.3686    1.8282   -3.1415 H       1  UNL1        0.2098
     52 H           8.2920    0.4326   -4.4083 H       1  UNL1        0.0290
     53 H           7.0244    0.4465   -5.4982 H       1  UNL1        0.0290
     54 H           6.3158   -0.3631   -2.0749 H       1  UNL1        0.0276
     55 H           6.3584   -1.5628   -3.2163 H       1  UNL1        0.0276
     56 H           5.0790   -1.7620   -4.7153 H       1  UNL1        0.0805
     57 H           4.4123   -1.9303   -6.7899 H       1  UNL1        0.1788
     58 H           1.2183   -0.9786   -6.0248 H       1  UNL1        0.1465
     59 H           0.4470   -1.4774   -7.5337 H       1  UNL1        0.1465
     60 H           4.3164    1.4293   -0.8225 H       1  UNL1        0.2102
     61 H           0.8155    1.1322    1.6089 H       1  UNL1        0.0293
     62 H           0.9984    2.7744    1.3287 H       1  UNL1        0.0293
     63 H           2.5303    1.5576    3.2077 H       1  UNL1        0.0272
     64 H           3.4119    2.2940    1.9073 H       1  UNL1        0.0272
     65 H           4.0497    0.0103    1.5145 H       1  UNL1        0.0353
     66 H           0.2629   -0.8120    2.4744 H       1  UNL1        0.0689
     67 H           3.8744   -2.5865    2.0160 H       1  UNL1        0.0746
     68 H           4.0148   -1.8289    3.6330 H       1  UNL1        0.0746
@<TRIPOS>BOND
     1     2     3    1
     2     3     4    1
     3     4     5    1
     4     5     6    1
     5     6     7    1
     6     7     8    1
     7     8     9    1
     8     9    11    1
     9    11    12    1
    10    12    14    1
    11    14    15    1
    12    15    16    1
    13     5    16    1
    14     9    16    1
    15    17    18    2
    16    18    19    1
    17    19    20   am
    18    20    21   am
    19    20    22    2
    20     6    23    1
    21     2    23    1
    22    23    25    1
    23    25    26    1
    24    26    27    1
    25     2    27    1
    26    28    29    2
    27    29    30    1
    28    30    31    2
    29    30    32    1
    30    32    33    1
    31    28    33    1
    32     1     2    1
    33     9    10    1
    34    12    13    1
    35    16    17    1
    36    23    24    1
    37    27    28    1
    38     1    34    1
    39     1    35    1
    40     1    36    1
    41     3    37    1
    42     3    38    1
    43     4    39    1
    44     4    40    1
    45     5    41    1
    46     6    42    1
    47     7    43    1
    48     7    44    1
    49     8    45    1
    50     8    46    1
    51    10    47    1
    52    11    48    1
    53    11    49    1
    54    12    50    1
    55    13    51    1
    56    14    52    1
    57    14    53    1
    58    15    54    1
    59    15    55    1
    60    17    56    1
    61    19    57    1
    62    21    58    1
    63    21    59    1
    64    24    60    1
    65    25    61    1
    66    25    62    1
    67    26    63    1
    68    26    64    1
    69    27    65    1
    70    29    66    1
    71    33    67    1
    72    33    68    1
