REMARK  9 active torsions:
REMARK  status: ('A' for Active; 'I' for Inactive)
REMARK    1  A    between atoms: O_2  and  C_3 
REMARK    2  A    between atoms: C_12  and  C_13 
REMARK    3  A    between atoms: C_13  and  C_14 
REMARK    4  A    between atoms: C_13  and  N_21 
REMARK       I    between atoms: C_14  and  N_16 
REMARK    5  A    between atoms: N_16  and  C_17 
REMARK       I    between atoms: N_21  and  C_22 
REMARK    6  A    between atoms: N_21  and  C_32 
REMARK    7  A    between atoms: C_22  and  C_24 
REMARK    8  A    between atoms: C_28  and  O_29 
REMARK    9  A    between atoms: C_30  and  O_31 
ROOT
ATOM      1  C   UNL d   1       4.790  -0.276  -1.881  0.00  0.00     0.221 C 
ENDROOT
BRANCH   1   2
ATOM      2  C   UNL d   1       4.580   0.882  -0.994  0.00  0.00     0.015 C 
ATOM      3  C   UNL d   1       5.199   2.217  -1.512  0.00  0.00    -0.015 C 
ATOM      4  C   UNL d   1       5.995   2.442  -2.655  0.00  0.00     0.013 C 
ATOM      5  C   UNL d   1       5.097   3.387  -0.766  0.00  0.00    -0.028 C 
ATOM      6  C   UNL d   1       6.876   3.537  -2.712  0.00  0.00     0.001 C 
ATOM      7  C   UNL d   1       6.631   4.681  -1.973  0.00  0.00     0.001 C 
ATOM      8  C   UNL d   1       5.590   4.655  -1.088  0.00  0.00     0.012 C 
ATOM      9  C   UNL d   1       4.529   3.252   0.436  0.00  0.00    -0.002 C 
ATOM     10  C   UNL d   1       4.126   1.929   0.901  0.00  0.00     0.080 C 
ATOM     11  C   UNL d   1       4.058   0.636   0.318  0.00  0.00     0.064 C 
BRANCH  11  12
ATOM     12  O   UNL d   1       2.898  -0.596   0.712  0.00  0.00    -0.359 OA
ATOM     13  C   UNL d   1       1.027  -0.876   0.608  0.00  0.00     0.209 C 
ENDBRANCH  11  12
ENDBRANCH   1   2
BRANCH   1  14
ATOM     14  C   UNL d   1       6.164  -0.752  -1.322  0.00  0.00     0.246 C 
ATOM     15  O   UNL d   1       6.262  -1.598  -0.445  0.00  0.00    -0.271 OA
ATOM     16  N   UNL d   1       7.268  -0.027  -1.760  0.00  0.00    -0.351 N 
ATOM     17  H   UNL d   1       7.146   0.946  -1.914  0.00  0.00     0.163 HD
BRANCH  16  18
ATOM     18  C   UNL d   1       8.617  -0.288  -1.330  0.00  0.00     0.022 C 
ATOM     19  C   UNL d   1       8.702  -0.357   0.197  0.00  0.00     0.037 C 
ATOM     20  C   UNL d   1       9.008  -1.570  -2.044  0.00  0.00     0.037 C 
ATOM     21  C   UNL d   1       9.525   0.871  -1.800  0.00  0.00     0.037 C 
ENDBRANCH  16  18
ENDBRANCH   1  14
BRANCH   1  22
ATOM     22  N   UNL d   1       3.620  -1.105  -1.872  0.00  0.00    -0.295 N 
ATOM     23  C   UNL d   1       2.318  -0.616  -1.362  0.00  0.00     0.262 C 
ATOM     24  O   UNL d   1       1.571  -1.635  -1.318  0.00  0.00    -0.267 OA
BRANCH  23  25
ATOM     25  C   UNL d   1       1.806   0.946  -0.412  0.00  0.00     0.068 A 
ATOM     26  C   UNL d   1       1.746   2.090  -1.194  0.00  0.00     0.020 A 
ATOM     27  C   UNL d   1       1.592   3.270  -0.403  0.00  0.00     0.004 A 
ATOM     28  C   UNL d   1       1.448   3.447   1.121  0.00  0.00     0.039 A 
ATOM     29  C   UNL d   1       1.421   2.393   2.026  0.00  0.00     0.099 A 
ATOM     30  C   UNL d   1       1.573   1.217   1.313  0.00  0.00     0.114 A 
BRANCH  29  31
ATOM     31  O   UNL d   1       1.823   2.367   3.346  0.00  0.00    -0.358 OA
ATOM     32  H   UNL d   1       2.114   3.222   3.705  0.00  0.00     0.217 HD
ENDBRANCH  29  31
BRANCH  30  33
ATOM     33  O   UNL d   1       1.744   0.129   2.370  0.00  0.00    -0.357 OA
ATOM     34  H   UNL d   1       2.073   0.371   3.251  0.00  0.00     0.217 HD
ENDBRANCH  30  33
ENDBRANCH  23  25
BRANCH  22  35
ATOM     35  C   UNL d   1       3.780  -2.563  -2.255  0.00  0.00     0.038 C 
ATOM     36  C   UNL d   1       2.663  -3.348  -2.605  0.00  0.00     0.030 C 
ATOM     37  C   UNL d   1       2.701  -4.727  -2.812  0.00  0.00     0.002 C 
ATOM     38  C   UNL d   1       3.914  -5.380  -2.830  0.00  0.00     0.000 C 
ATOM     39  C   UNL d   1       5.057  -4.667  -2.526  0.00  0.00     0.002 C 
ATOM     40  C   UNL d   1       4.985  -3.290  -2.255  0.00  0.00     0.030 C 
ENDBRANCH  22  35
ENDBRANCH   1  22
TORSDOF 9
