REMARK  6 active torsions:
REMARK  status: ('A' for Active; 'I' for Inactive)
REMARK    1  A    between atoms: C_2  and  C_3 
REMARK       I    between atoms: C_2  and  N_17 
REMARK    2  A    between atoms: C_3  and  O_4 
REMARK    3  A    between atoms: O_4  and  C_5 
REMARK    4  A    between atoms: C_10  and  C_11 
REMARK    5  A    between atoms: N_17  and  N_18 
REMARK       I    between atoms: N_18  and  C_19 
REMARK    6  A    between atoms: C_19  and  C_21 
ROOT
ATOM      1  O   UNL d   1       1.140   0.257   0.057  0.00  0.00    -0.269 OA
ATOM      2  C   UNL d   1       2.381   0.171   0.011  0.00  0.00     0.260 C 
ATOM      3  N   UNL d   1       3.181   1.286   0.441  0.00  0.00    -0.265 N 
ATOM      4  H   UNL d   1       2.623   2.096   0.712  0.00  0.00     0.190 HD
ENDROOT
BRANCH   2   5
ATOM      5  C   UNL d   1       2.997  -1.154  -0.494  0.00  0.00     0.280 C 
BRANCH   5   6
ATOM      6  O   UNL d   1       2.054  -2.204  -0.841  0.00  0.00    -0.341 OA
BRANCH   6   7
ATOM      7  C   UNL d   1       2.538  -3.454  -1.195  0.00  0.00     0.080 A 
ATOM      8  C   UNL d   1       1.867  -4.114  -2.239  0.00  0.00     0.037 A 
ATOM      9  C   UNL d   1       2.172  -5.444  -2.584  0.00  0.00     0.003 A 
ATOM     10  C   UNL d   1       3.207  -6.114  -1.945  0.00  0.00     0.001 A 
ATOM     11  C   UNL d   1       3.873  -5.480  -0.907  0.00  0.00     0.015 A 
ATOM     12  C   UNL d   1       3.544  -4.160  -0.512  0.00  0.00     0.007 A 
BRANCH  12  13
ATOM     13  C   UNL d   1       4.229  -3.641   0.660  0.00  0.00    -0.023 C 
ATOM     14  C   UNL d   1       5.622  -3.495   0.661  0.00  0.00     0.012 C 
ATOM     15  C   UNL d   1       6.268  -3.099   1.824  0.00  0.00     0.001 C 
ATOM     16  C   UNL d   1       5.522  -2.691   2.931  0.00  0.00     0.000 C 
ATOM     17  C   UNL d   1       4.130  -2.751   2.909  0.00  0.00     0.001 C 
ATOM     18  C   UNL d   1       3.489  -3.261   1.791  0.00  0.00     0.012 C 
ENDBRANCH  12  13
ENDBRANCH   6   7
ENDBRANCH   5   6
ENDBRANCH   2   5
BRANCH   3  19
ATOM     19  N   UNL d   1       4.809   1.512   0.712  0.00  0.00    -0.262 N 
ATOM     20  C   UNL d   1       5.336   2.946   1.323  0.00  0.00     0.291 C 
ATOM     21  O   UNL d   1       4.397   3.733   1.501  0.00  0.00    -0.264 OA
ATOM     22  H   UNL d   1       5.336   0.721   0.333  0.00  0.00     0.190 HD
BRANCH  20  23
ATOM     23  C   UNL d   1       6.977   3.593   1.428  0.00  0.00     0.158 C 
ATOM     24  N   UNL d   1       7.521   3.315   0.242  0.00  0.00    -0.168 NA
ATOM     25  N   UNL d   1       8.752   3.333   0.624  0.00  0.00    -0.277 N 
ATOM     26  C   UNL d   1       9.120   4.492   1.204  0.00  0.00     0.062 C 
ATOM     27  H   UNL d   1       9.268   2.472   0.624  0.00  0.00     0.189 HD
ATOM     28  C   UNL d   1      10.417   5.072   0.834  0.00  0.00     0.032 C 
ATOM     29  C   UNL d   1       8.066   4.775   2.217  0.00  0.00     0.028 C 
ATOM     30  C   UNL d   1      11.105   6.063   1.471  0.00  0.00     0.002 C 
ATOM     31  C   UNL d   1      10.416   6.490   2.548  0.00  0.00     0.001 C 
ATOM     32  C   UNL d   1       9.062   5.838   2.884  0.00  0.00     0.016 C 
ENDBRANCH  20  23
ENDBRANCH   3  19
TORSDOF 6
