@<TRIPOS>MOLECULE
*****
 46 48 0 0 0
SMALL
GASTEIGER

@<TRIPOS>ATOM
      1 C           1.1165    0.0240   -0.0182 C.3     1  UNL1       -0.0306
      2 C           2.6437    0.1084   -0.0580 C.3     1  UNL1        0.0898
      3 O           3.1835    0.7132    1.1422 O.3     1  UNL1       -0.4607
      4 C           4.4880    0.3717    1.4509 C.2     1  UNL1        0.3806
      5 O           5.2222   -0.1865    0.6438 O.2     1  UNL1       -0.2439
      6 C           4.8461    0.6607    2.9600 C.3     1  UNL1        0.3734
      7 N           4.3379    1.9950    3.3461 N.am    1  UNL1       -0.2437
      8 C           4.7324    3.0801    2.6189 C.2     1  UNL1        0.3288
      9 O           5.4000    2.9462    1.5905 O.2     1  UNL1       -0.2505
     10 N           4.2830    4.2661    3.0818 N.am    1  UNL1       -0.1391
     11 C           4.6824    5.3112    2.4356 C.ar    1  UNL1        0.1654
     12 N           5.5593    5.4819    1.3787 N.ar    1  UNL1       -0.3353
     13 C           5.7620    6.8006    0.9720 C.ar    1  UNL1        0.0549
     14 C           6.6192    7.2591   -0.0198 C.ar    1  UNL1       -0.0372
     15 C           6.6887    8.6407   -0.2620 C.ar    1  UNL1       -0.0598
     16 C           5.9093    9.5424    0.4805 C.ar    1  UNL1       -0.0606
     17 C           5.0511    9.0792    1.4741 C.ar    1  UNL1       -0.0459
     18 C           4.9952    7.7188    1.7051 C.ar    1  UNL1        0.0387
     19 S           4.0120    6.8887    2.9350 S.2     1  UNL1       -0.0522
     20 O           4.3695   -0.3248    3.9472 O.3     1  UNL1       -0.4508
     21 C           3.0343   -0.5331    4.1379 C.ar    1  UNL1        0.1244
     22 C           2.1385   -0.7348    3.1113 C.ar    1  UNL1       -0.0198
     23 C           0.7681   -0.5830    3.2974 C.ar    1  UNL1       -0.0583
     24 C           0.2580   -0.6300    4.5721 C.ar    1  UNL1       -0.0615
     25 C           1.1429   -0.7972    5.6295 C.ar    1  UNL1       -0.0583
     26 C           2.5288   -0.6682    5.4246 C.ar    1  UNL1       -0.0198
     27 C           6.4171    0.5706    3.0230 C.3     1  UNL1        0.4592
     28 F           6.8767   -0.6758    2.7513 F       1  UNL1       -0.1647
     29 F           7.0881    1.4176    2.2130 F       1  UNL1       -0.1647
     30 F           6.8504    0.8605    4.2863 F       1  UNL1       -0.1647
     31 H           0.7060   -0.1873   -1.0091 H       1  UNL1        0.0262
     32 H           0.6672    0.9391    0.3791 H       1  UNL1        0.0262
     33 H           0.7769   -0.8123    0.6001 H       1  UNL1        0.0262
     34 H           2.9453    0.7372   -0.8923 H       1  UNL1        0.0694
     35 H           3.0292   -0.9119   -0.1880 H       1  UNL1        0.0694
     36 H           3.8611    2.1381    4.2258 H       1  UNL1        0.1549
     37 H           6.0176    4.6825    0.9572 H       1  UNL1        0.1677
     38 H           7.2372    6.5829   -0.6044 H       1  UNL1        0.0638
     39 H           7.3540    9.0276   -1.0324 H       1  UNL1        0.0618
     40 H           5.9736   10.6105    0.2864 H       1  UNL1        0.0618
     41 H           4.4440    9.7597    2.0595 H       1  UNL1        0.0629
     42 H           2.4926   -1.0603    2.1483 H       1  UNL1        0.0654
     43 H           0.0875   -0.4864    2.4604 H       1  UNL1        0.0619
     44 H          -0.8183   -0.6071    4.7098 H       1  UNL1        0.0618
     45 H           0.7443   -1.0126    6.6148 H       1  UNL1        0.0619
     46 H           3.1974   -0.6994    6.2787 H       1  UNL1        0.0654
@<TRIPOS>BOND
     1     1     2    1
     2     2     3    1
     3     3     4    1
     4     4     5    2
     5     4     6    1
     6     6     7    1
     7     7     8   am
     8     8     9    2
     9     8    10    1
    10    10    11    2
    11    11    12   ar
    12    12    13   ar
    13    13    14   ar
    14    14    15   ar
    15    15    16   ar
    16    16    17   ar
    17    17    18   ar
    18    13    18   ar
    19    18    19   ar
    20    11    19   ar
    21     6    20    1
    22    20    21    1
    23    21    22   ar
    24    22    23   ar
    25    23    24   ar
    26    24    25   ar
    27    25    26   ar
    28    21    26   ar
    29     6    27    1
    30    27    28    1
    31    27    29    1
    32    27    30    1
    33     1    31    1
    34     1    32    1
    35     1    33    1
    36     2    34    1
    37     2    35    1
    38     7    36    1
    39    12    37    1
    40    14    38    1
    41    15    39    1
    42    16    40    1
    43    17    41    1
    44    22    42    1
    45    23    43    1
    46    24    44    1
    47    25    45    1
    48    26    46    1
