@<TRIPOS>MOLECULE
*****
 33 34 0 0 0
SMALL
GASTEIGER

@<TRIPOS>ATOM
      1 C           2.5051   -0.2451    0.0734 C.3     1  UNL1       -0.0390
      2 C           1.0251   -0.0274    0.0592 C.ar    1  UNL1       -0.0383
      3 C           0.2555   -1.2114    0.0213 C.ar    1  UNL1       -0.0581
      4 C          -1.1312   -1.1772   -0.0027 C.ar    1  UNL1       -0.0615
      5 C          -1.7771    0.0501   -0.0101 C.ar    1  UNL1       -0.0610
      6 C          -1.0310    1.2412    0.0148 C.ar    1  UNL1       -0.0493
      7 C           0.3842    1.2388    0.0603 C.ar    1  UNL1        0.0411
      8 C           1.0691    2.6109    0.1030 C.2     1  UNL1        0.2604
      9 O           0.3962    3.6416   -0.0109 O.2     1  UNL1       -0.2687
     10 N           2.4514    2.6669    0.2702 N.am    1  UNL1       -0.2301
     11 N           3.1745    3.8493   -0.0910 N.am    1  UNL1       -0.2301
     12 C           4.5713    3.7927   -0.0785 C.2     1  UNL1        0.2616
     13 O           5.2193    4.5625    0.6325 O.2     1  UNL1       -0.2686
     14 C           5.3064    2.8264   -0.9841 C.ar    1  UNL1        0.0564
     15 C           6.7214    2.7788   -0.8944 C.ar    1  UNL1       -0.0482
     16 C           7.4843    1.9554   -1.7424 C.ar    1  UNL1       -0.0610
     17 C           6.8512    1.1059   -2.6399 C.ar    1  UNL1       -0.0603
     18 C           5.4677    1.1293   -2.7341 C.ar    1  UNL1       -0.0427
     19 C           4.7113    2.0428   -1.9870 C.ar    1  UNL1        0.0531
     20 CL          3.0937    2.2160   -2.5787 Cl      1  UNL1       -0.0828
     21 H           2.7953   -1.2971    0.0964 H       1  UNL1        0.0278
     22 H           2.9416    0.2115    0.9658 H       1  UNL1        0.0278
     23 H           2.9256    0.1467   -0.8510 H       1  UNL1        0.0278
     24 H           0.7510   -2.1819    0.0132 H       1  UNL1        0.0620
     25 H          -1.6951   -2.1072   -0.0148 H       1  UNL1        0.0618
     26 H          -2.8648    0.0789   -0.0318 H       1  UNL1        0.0618
     27 H          -1.5812    2.1827    0.0048 H       1  UNL1        0.0625
     28 H           2.9827    1.8428    0.0780 H       1  UNL1        0.1731
     29 H           2.7610    4.6845    0.3214 H       1  UNL1        0.1731
     30 H           7.2608    3.4289   -0.2027 H       1  UNL1        0.0625
     31 H           8.5731    1.9859   -1.7174 H       1  UNL1        0.0618
     32 H           7.4226    0.4666   -3.3088 H       1  UNL1        0.0618
     33 H           4.9714    0.4824   -3.4543 H       1  UNL1        0.0632
@<TRIPOS>BOND
     1     1     2    1
     2     2     3   ar
     3     3     4   ar
     4     4     5   ar
     5     5     6   ar
     6     6     7   ar
     7     2     7   ar
     8     7     8    1
     9     8     9    2
    10     8    10   am
    11    10    11    1
    12    11    12   am
    13    12    13    2
    14    12    14    1
    15    14    15   ar
    16    15    16   ar
    17    16    17   ar
    18    17    18   ar
    19    18    19   ar
    20    14    19   ar
    21    19    20    1
    22     1    21    1
    23     1    22    1
    24     1    23    1
    25     3    24    1
    26     4    25    1
    27     5    26    1
    28     6    27    1
    29    10    28    1
    30    11    29    1
    31    15    30    1
    32    16    31    1
    33    17    32    1
    34    18    33    1
