REMARK  9 active torsions:
REMARK  status: ('A' for Active; 'I' for Inactive)
REMARK    1  A    between atoms: C_2  and  C_3 
REMARK    2  A    between atoms: C_3  and  N_4 
REMARK       I    between atoms: N_4  and  C_5 
REMARK    3  A    between atoms: C_5  and  C_7 
REMARK    4  A    between atoms: C_10  and  N_11 
REMARK       I    between atoms: N_11  and  C_12 
REMARK       I    between atoms: C_12  and  N_14 
REMARK    5  A    between atoms: N_14  and  C_15 
REMARK    6  A    between atoms: C_15  and  C_16 
REMARK    7  A    between atoms: C_16  and  N_17 
REMARK    8  A    between atoms: N_17  and  C_18 
REMARK    9  A    between atoms: C_21  and  N_22 
ROOT
ATOM      1  N   UNL d   1      11.154   0.335   1.037  0.00  0.00    -0.309 N 
ATOM      2  C   UNL d   1      11.694   1.038  -0.033  0.00  0.00     0.320 C 
ATOM      3  O   UNL d   1      11.060   1.721  -0.835  0.00  0.00    -0.247 OA
ATOM      4  N   UNL d   1      13.060   0.944  -0.196  0.00  0.00    -0.341 N 
ATOM      5  H   UNL d   1      11.772  -0.229   1.605  0.00  0.00     0.170 HD
ATOM      6  H   UNL d   1      13.631   0.382   0.416  0.00  0.00     0.164 HD
ENDROOT
BRANCH   1   7
ATOM      7  C   UNL d   1       9.747   0.261   1.332  0.00  0.00     0.036 A 
ATOM      8  C   UNL d   1       9.253  -0.544   2.372  0.00  0.00     0.030 A 
ATOM      9  C   UNL d   1       7.853  -0.689   2.575  0.00  0.00     0.019 A 
ATOM     10  C   UNL d   1       6.928   0.009   1.780  0.00  0.00     0.032 A 
ATOM     11  C   UNL d   1       7.417   0.844   0.786  0.00  0.00     0.019 A 
ATOM     12  C   UNL d   1       8.797   0.966   0.582  0.00  0.00     0.030 A 
BRANCH  10  13
ATOM     13  C   UNL d   1       5.466  -0.006   2.080  0.00  0.00     0.251 C 
ATOM     14  N   UNL d   1       4.585   0.003   1.010  0.00  0.00    -0.353 N 
ATOM     15  H   UNL d   1       4.938  -0.071   0.066  0.00  0.00     0.163 HD
ATOM     16  O   UNL d   1       5.096  -0.004   3.256  0.00  0.00    -0.268 OA
BRANCH  14  17
ATOM     17  C   UNL d   1       3.154   0.017   1.246  0.00  0.00     0.149 C 
BRANCH  17  18
ATOM     18  C   UNL d   1       2.382  -0.052  -0.040  0.00  0.00    -0.018 C 
ATOM     19  C   UNL d   1       1.040  -0.055  -0.073  0.00  0.00     0.008 C 
ENDBRANCH  17  18
ENDBRANCH  14  17
ENDBRANCH  10  13
ENDBRANCH   1   7
BRANCH   4  20
ATOM     20  C   UNL d   1      13.675   1.701  -1.303  0.00  0.00     0.144 C 
BRANCH  20  21
ATOM     21  C   UNL d   1      15.198   1.549  -1.425  0.00  0.00     0.139 C 
BRANCH  21  22
ATOM     22  N   UNL d   1      15.779   2.416  -2.450  0.00  0.00    -0.388 N 
ATOM     23  H   UNL d   1      15.159   2.913  -3.086  0.00  0.00     0.159 HD
BRANCH  22  24
ATOM     24  C   UNL d   1      17.107   2.320  -2.842  0.00  0.00     0.028 A 
ATOM     25  C   UNL d   1      17.792   3.482  -3.231  0.00  0.00     0.031 A 
ATOM     26  C   UNL d   1      19.133   3.441  -3.643  0.00  0.00     0.038 A 
ATOM     27  C   UNL d   1      19.824   2.228  -3.608  0.00  0.00     0.103 A 
ATOM     28  C   UNL d   1      19.165   1.056  -3.228  0.00  0.00     0.038 A 
ATOM     29  C   UNL d   1      17.819   1.114  -2.843  0.00  0.00     0.031 A 
BRANCH  27  30
ATOM     30  N   UNL d   1      21.262   2.191  -3.909  0.00  0.00    -0.116 N 
ATOM     31  O   UNL d   1      21.817   3.257  -4.210  0.00  0.00    -0.532 OA
ATOM     32  O   UNL d   1      21.842   1.098  -3.822  0.00  0.00    -0.532 OA
ENDBRANCH  27  30
ENDBRANCH  22  24
ENDBRANCH  21  22
ENDBRANCH  20  21
ENDBRANCH   4  20
TORSDOF 9
