@<TRIPOS>MOLECULE
*****
 70 72 0 0 0
SMALL
GASTEIGER

@<TRIPOS>ATOM
      1 C           0.9784    0.0803    0.0404 C.3     1  UNL1       -0.0653
      2 C           2.4892    0.1340   -0.0394 C.3     1  UNL1       -0.0559
      3 C           3.0981   -0.1316    1.3089 C.3     1  UNL1       -0.0533
      4 C           4.6247   -0.0401    1.2292 C.3     1  UNL1       -0.0516
      5 C           5.1218   -0.3261    2.6081 C.3     1  UNL1       -0.0371
      6 C           6.5666   -0.4971    2.9000 C.3     1  UNL1        0.0161
      7 N           6.9133   -0.8836    4.2888 N.am    1  UNL1       -0.2817
      8 C           5.9976   -1.1381    5.3713 C.2     1  UNL1        0.2475
      9 O           6.2903   -1.2649    6.5462 O.2     1  UNL1       -0.2700
     10 C           4.5307   -1.2607    5.2280 C.ar    1  UNL1        0.0371
     11 C           3.9116   -2.1809    4.3817 C.ar    1  UNL1       -0.0469
     12 C           2.5730   -1.9758    4.0361 C.ar    1  UNL1       -0.0257
     13 C           1.8201   -1.0294    4.7177 C.ar    1  UNL1        0.1234
     14 F           0.5504   -0.8130    4.3539 F       1  UNL1       -0.2055
     15 C           2.3736   -0.3034    5.7619 C.ar    1  UNL1       -0.0257
     16 C           3.7427   -0.3966    6.0021 C.ar    1  UNL1       -0.0469
     17 C           8.3952   -0.8506    4.5808 C.3     1  UNL1        0.1344
     18 C           9.2431    0.3992    4.1366 C.2     1  UNL1        0.2386
     19 O          10.1963    0.7287    4.8319 O.2     1  UNL1       -0.2734
     20 N           9.1088    0.9691    2.8726 N.am    1  UNL1       -0.3106
     21 C           9.7247    2.2611    2.5246 C.3     1  UNL1        0.0232
     22 C           8.7581    3.4356    2.7646 C.3     1  UNL1       -0.0345
     23 C           9.4528    4.7868    2.5507 C.3     1  UNL1       -0.0514
     24 C          10.7269    4.9165    3.3814 C.3     1  UNL1       -0.0529
     25 C          11.7110    3.8067    3.0354 C.3     1  UNL1       -0.0514
     26 C          11.0469    2.4817    3.2659 C.3     1  UNL1       -0.0345
     27 C           8.7635   -1.2375    6.0270 C.ar    1  UNL1        0.0648
     28 C           8.7288   -2.5746    6.4661 C.ar    1  UNL1        0.1292
     29 O           8.4044   -3.6276    5.6488 O.3     1  UNL1       -0.5062
     30 C           8.8930   -2.8919    7.8201 C.ar    1  UNL1        0.0219
     31 C           9.1965   -1.8889    8.7372 C.ar    1  UNL1        0.1238
     32 O           9.3593   -2.1377   10.0682 O.3     1  UNL1       -0.5065
     33 C           9.2790   -0.5697    8.3424 C.ar    1  UNL1        0.0219
     34 C           8.9702   -0.2501    7.0271 C.ar    1  UNL1        0.1292
     35 O           8.7365    1.0821    6.7778 O.3     1  UNL1       -0.5062
     36 H           0.5573    0.2836   -0.9458 H       1  UNL1        0.0230
     37 H           0.5975    0.8245    0.7473 H       1  UNL1        0.0230
     38 H           0.6338   -0.9064    0.3696 H       1  UNL1        0.0230
     39 H           2.8227    1.1120   -0.3945 H       1  UNL1        0.0263
     40 H           2.8502   -0.6302   -0.7360 H       1  UNL1        0.0263
     41 H           2.8040   -1.1465    1.5949 H       1  UNL1        0.0265
     42 H           2.6972    0.5464    2.0766 H       1  UNL1        0.0265
     43 H           4.9643    0.9309    0.8713 H       1  UNL1        0.0266
     44 H           4.9908   -0.8286    0.5624 H       1  UNL1        0.0266
     45 H           4.7784   -1.3324    2.6888 H       1  UNL1        0.0280
     46 H           4.6850    0.3804    3.3228 H       1  UNL1        0.0280
     47 H           6.9695    0.4847    2.6884 H       1  UNL1        0.0465
     48 H           7.0152   -1.2399    2.2268 H       1  UNL1        0.0465
     49 H           4.5076   -2.8992    3.8196 H       1  UNL1        0.0626
     50 H           2.1431   -2.4769    3.1731 H       1  UNL1        0.0646
     51 H           1.7499    0.3537    6.3558 H       1  UNL1        0.0646
     52 H           4.2075    0.2107    6.7769 H       1  UNL1        0.0626
     53 H           8.8278   -1.6274    3.9259 H       1  UNL1        0.0650
     54 H           8.7508    0.4240    2.1018 H       1  UNL1        0.1490
     55 H           9.9244    2.2151    1.4449 H       1  UNL1        0.0498
     56 H           8.3516    3.3890    3.7833 H       1  UNL1        0.0283
     57 H           7.8944    3.3644    2.0893 H       1  UNL1        0.0283
     58 H           8.7664    5.6020    2.8034 H       1  UNL1        0.0266
     59 H           9.7116    4.8971    1.4910 H       1  UNL1        0.0266
     60 H          10.4642    4.8714    4.4487 H       1  UNL1        0.0265
     61 H          11.2066    5.8831    3.2112 H       1  UNL1        0.0265
     62 H          12.5781    3.8611    3.7048 H       1  UNL1        0.0266
     63 H          12.0625    3.8748    2.0048 H       1  UNL1        0.0266
     64 H          10.8567    2.5365    4.3410 H       1  UNL1        0.0283
     65 H          11.7257    1.6426    3.0743 H       1  UNL1        0.0283
     66 H           8.0506   -3.2903    4.8128 H       1  UNL1        0.2922
     67 H           8.7190   -3.9116    8.1443 H       1  UNL1        0.0691
     68 H           9.1793   -3.0771   10.2252 H       1  UNL1        0.2921
     69 H           9.4744    0.2059    9.0737 H       1  UNL1        0.0691
     70 H           9.4112    1.5825    7.2705 H       1  UNL1        0.2922
@<TRIPOS>BOND
     1     1     2    1
     2     2     3    1
     3     3     4    1
     4     4     5    1
     5     5     6    1
     6     6     7    1
     7     7     8   am
     8     8     9    2
     9     8    10    1
    10    10    11   ar
    11    11    12   ar
    12    12    13   ar
    13    13    14    1
    14    13    15   ar
    15    15    16   ar
    16    10    16   ar
    17     7    17    1
    18    17    18    1
    19    18    19    2
    20    18    20   am
    21    20    21    1
    22    21    22    1
    23    22    23    1
    24    23    24    1
    25    24    25    1
    26    25    26    1
    27    21    26    1
    28    17    27    1
    29    27    28   ar
    30    28    29    1
    31    28    30   ar
    32    30    31   ar
    33    31    32    1
    34    31    33   ar
    35    33    34   ar
    36    27    34   ar
    37    34    35    1
    38     1    36    1
    39     1    37    1
    40     1    38    1
    41     2    39    1
    42     2    40    1
    43     3    41    1
    44     3    42    1
    45     4    43    1
    46     4    44    1
    47     5    45    1
    48     5    46    1
    49     6    47    1
    50     6    48    1
    51    11    49    1
    52    12    50    1
    53    15    51    1
    54    16    52    1
    55    17    53    1
    56    20    54    1
    57    21    55    1
    58    22    56    1
    59    22    57    1
    60    23    58    1
    61    23    59    1
    62    24    60    1
    63    24    61    1
    64    25    62    1
    65    25    63    1
    66    26    64    1
    67    26    65    1
    68    29    66    1
    69    30    67    1
    70    32    68    1
    71    33    69    1
    72    35    70    1
