REMARK  4 active torsions:
REMARK  status: ('A' for Active; 'I' for Inactive)
REMARK    1  A    between atoms: C_5  and  C_6 
REMARK       I    between atoms: C_6  and  N_8 
REMARK    2  A    between atoms: N_8  and  N_9 
REMARK       I    between atoms: N_9  and  C_10 
REMARK    3  A    between atoms: C_10  and  C_12 
REMARK    4  A    between atoms: C_16  and  O_17 
ROOT
ATOM      1  C   UNL d   1      -2.422  -2.031  -0.065  0.00  0.00     0.272 C 
ATOM      2  O   UNL d   1      -3.504  -1.438  -0.078  0.00  0.00    -0.266 OA
ATOM      3  N   UNL d   1      -2.336  -3.426  -0.096  0.00  0.00    -0.263 N 
ATOM      4  H   UNL d   1      -1.468  -3.953  -0.083  0.00  0.00     0.190 HD
ENDROOT
BRANCH   1   5
ATOM      5  C   UNL d   1      -1.146  -1.218  -0.021  0.00  0.00     0.066 A 
ATOM      6  C   UNL d   1       0.120  -1.824   0.001  0.00  0.00     0.020 A 
ATOM      7  C   UNL d   1       1.300  -1.057   0.019  0.00  0.00     0.008 A 
ATOM      8  C   UNL d   1       1.249   0.339   0.005  0.00  0.00    -0.059 A 
ATOM      9  C   UNL d   1       2.490   1.185  -0.001  0.00  0.00     0.048 C 
ATOM     10  C   UNL d   1      -0.004   0.956  -0.006  0.00  0.00     0.044 A 
ATOM     11  C   UNL d   1      -1.182   0.194  -0.011  0.00  0.00     0.082 A 
BRANCH  11  12
ATOM     12  O   UNL d   1      -2.337   0.934  -0.004  0.00  0.00    -0.360 OA
ATOM     13  H   UNL d   1      -3.099   0.318  -0.000  0.00  0.00     0.217 HD
ENDBRANCH  11  12
ENDBRANCH   1   5
BRANCH   3  14
ATOM     14  N   UNL d   1      -3.516  -4.218  -0.190  0.00  0.00    -0.267 N 
ATOM     15  C   UNL d   1      -3.439  -5.607  -0.220  0.00  0.00     0.240 C 
ATOM     16  O   UNL d   1      -2.381  -6.238  -0.212  0.00  0.00    -0.271 OA
ATOM     17  H   UNL d   1      -4.403  -3.720  -0.160  0.00  0.00     0.190 HD
BRANCH  15  18
ATOM     18  C   UNL d   1      -4.775  -6.298  -0.229  0.00  0.00     0.083 A 
ATOM     19  C   UNL d   1      -5.104  -7.696  -0.740  0.00  0.00     0.019 A 
ATOM     20  C   UNL d   1      -5.416  -6.510  -1.603  0.00  0.00    -0.005 A 
ATOM     21  C   UNL d   1      -6.795  -6.067  -1.951  0.00  0.00     0.011 C 
ENDBRANCH  15  18
ENDBRANCH   3  14
TORSDOF 4
