REMARK  4 active torsions:
REMARK  status: ('A' for Active; 'I' for Inactive)
REMARK       I    between atoms: C_2  and  N_3 
REMARK    1  A    between atoms: C_18  and  C_2 
REMARK    2  A    between atoms: N_3  and  C_4 
REMARK    3  A    between atoms: C_4  and  C_5 
REMARK    4  A    between atoms: C_9  and  N_10 
ROOT
ATOM      1  C   UNL d   1       7.823   1.707  -0.419  0.00  0.00    -0.036 A 
ATOM      2  C   UNL d   1       7.731   2.325   0.833  0.00  0.00     0.026 A 
ATOM      3  C   UNL d   1       8.593   3.370   1.141  0.00  0.00     0.090 A 
ATOM      4  N   UNL d   1       9.509   3.771   0.249  0.00  0.00    -0.352 N 
ATOM      5  C   UNL d   1       9.649   3.235  -0.974  0.00  0.00     0.103 A 
ATOM      6  C   UNL d   1       8.781   2.190  -1.327  0.00  0.00     0.057 A 
ATOM      7  H   UNL d   1      10.108   4.565   0.457  0.00  0.00     0.166 HD
ENDROOT
BRANCH   1   8
ATOM      8  C   UNL d   1       6.920   0.544  -0.789  0.00  0.00     0.161 C 
BRANCH   8   9
ATOM      9  N   UNL d   1       5.535   0.936  -0.740  0.00  0.00    -0.356 N 
ATOM     10  C   UNL d   1       4.503   0.100  -1.093  0.00  0.00     0.224 C 
ATOM     11  O   UNL d   1       4.700  -1.065  -1.444  0.00  0.00    -0.273 OA
ATOM     12  H   UNL d   1       5.336   1.848  -0.373  0.00  0.00     0.162 HD
BRANCH  10  13
ATOM     13  C   UNL d   1       3.100   0.696  -1.015  0.00  0.00     0.109 C 
ATOM     14  C   UNL d   1       2.989   2.219  -0.797  0.00  0.00     0.048 C 
ATOM     15  C   UNL d   1       2.168   2.665  -1.998  0.00  0.00     0.122 C 
ATOM     16  C   UNL d   1       3.031   2.584  -3.260  0.00  0.00     0.034 C 
ATOM     17  O   UNL d   1       1.283   1.548  -2.167  0.00  0.00    -0.380 OA
ATOM     18  C   UNL d   1       3.076   1.078  -3.521  0.00  0.00     0.035 C 
ATOM     19  C   UNL d   1       2.305   0.524  -2.322  0.00  0.00     0.135 C 
ENDBRANCH  10  13
ENDBRANCH   8   9
ENDBRANCH   1   8
BRANCH   5  20
ATOM     20  N   UNL d   1      10.536   3.851  -1.827  0.00  0.00    -0.367 N 
ATOM     21  C   UNL d   1      11.985   3.654  -1.672  0.00  0.00     0.124 C 
ATOM     22  C   UNL d   1      12.609   4.958  -1.166  0.00  0.00     0.020 C 
ATOM     23  C   UNL d   1      12.703   6.073  -2.211  0.00  0.00     0.002 C 
ATOM     24  C   UNL d   1      11.391   6.396  -2.929  0.00  0.00     0.002 C 
ATOM     25  C   UNL d   1      10.918   5.269  -3.848  0.00  0.00     0.020 C 
ATOM     26  C   UNL d   1      10.035   4.230  -3.152  0.00  0.00     0.124 C 
ENDBRANCH   5  20
TORSDOF 4
