REMARK  4 active torsions:
REMARK  status: ('A' for Active; 'I' for Inactive)
REMARK    1  A    between atoms: C_2  and  C_12 
REMARK    2  A    between atoms: C_2  and  N_3 
REMARK       I    between atoms: N_3  and  C_4 
REMARK    3  A    between atoms: C_4  and  C_6 
REMARK       I    between atoms: C_12  and  N_14 
REMARK    4  A    between atoms: N_14  and  C_15 
ROOT
ATOM      1  C   UNL d   1       2.943   0.993   1.222  0.00  0.00     0.244 C 
ATOM      2  O   UNL d   1       2.034   1.525   1.868  0.00  0.00    -0.271 OA
ATOM      3  N   UNL d   1       4.277   1.162   1.522  0.00  0.00    -0.323 N 
ATOM      4  H   UNL d   1       4.968   0.913   0.818  0.00  0.00     0.169 HD
ENDROOT
BRANCH   1   5
ATOM      5  C   UNL d   1       2.596   0.114  -0.020  0.00  0.00     0.173 C 
ATOM      6  C   UNL d   1       3.258   0.638  -1.289  0.00  0.00     0.042 C 
BRANCH   5   7
ATOM      7  N   UNL d   1       1.118   0.045  -0.116  0.00  0.00    -0.344 N 
ATOM      8  C   UNL d   1       0.371   0.177  -1.263  0.00  0.00     0.252 C 
ATOM      9  O   UNL d   1       0.823   0.292  -2.406  0.00  0.00    -0.268 OA
ATOM     10  H   UNL d   1       0.637  -0.001   0.779  0.00  0.00     0.163 HD
BRANCH   8  11
ATOM     11  C   UNL d   1      -1.098   0.184  -1.138  0.00  0.00     0.032 A 
ATOM     12  C   UNL d   1      -1.849  -0.498  -2.107  0.00  0.00     0.017 A 
ATOM     13  C   UNL d   1      -3.238  -0.393  -2.116  0.00  0.00     0.001 A 
ATOM     14  C   UNL d   1      -3.878   0.355  -1.130  0.00  0.00     0.000 A 
ATOM     15  C   UNL d   1      -3.130   1.043  -0.170  0.00  0.00     0.001 A 
ATOM     16  C   UNL d   1      -1.736   0.971  -0.178  0.00  0.00     0.017 A 
ENDBRANCH   8  11
ENDBRANCH   5   7
ENDBRANCH   1   5
BRANCH   3  17
ATOM     17  C   UNL d   1       4.769   1.875   2.666  0.00  0.00     0.064 C 
ATOM     18  C   UNL d   1       6.029   2.507   2.425  0.00  0.00     0.032 C 
ATOM     19  C   UNL d   1       6.731   3.099   3.460  0.00  0.00     0.003 C 
ATOM     20  C   UNL d   1       6.218   2.986   4.736  0.00  0.00     0.013 C 
ATOM     21  C   UNL d   1       5.023   2.292   4.989  0.00  0.00    -0.008 C 
ATOM     22  C   UNL d   1       4.740   1.969   6.314  0.00  0.00    -0.002 C 
ATOM     23  C   UNL d   1       4.133   1.864   3.999  0.00  0.00     0.092 C 
ATOM     24  C   UNL d   1       3.713   1.103   6.620  0.00  0.00     0.062 C 
ATOM     25  C   UNL d   1       2.646   1.390   5.846  0.00  0.00     0.100 C 
ATOM     26  N   UNL d   1       2.851   1.515   4.506  0.00  0.00    -0.261 NA
ENDBRANCH   3  17
TORSDOF 4
