@<TRIPOS>MOLECULE
*****
 43 45 0 0 0
SMALL
GASTEIGER

@<TRIPOS>ATOM
      1 O           1.0655   -0.2288    0.1987 O.2     1  UNL1       -0.2696
      2 C           2.2676    0.0091    0.0718 C.2     1  UNL1        0.2549
      3 N           2.9636    1.0637    0.6475 N.am    1  UNL1       -0.2813
      4 C           2.3568    2.0390    1.4741 C.ar    1  UNL1        0.0356
      5 C           2.9090    3.3215    1.5583 C.ar    1  UNL1       -0.0404
      6 C           2.3847    4.2558    2.4621 C.ar    1  UNL1       -0.0581
      7 C           1.2805    3.9258    3.2549 C.ar    1  UNL1       -0.0327
      8 C           0.7189    2.6485    3.1509 C.ar    1  UNL1        0.1364
      9 S          -0.6226    2.1758    4.2373 S.O2    1  UNL1        0.1785
     10 O          -0.0569    2.2465    5.5712 O.2     1  UNL1       -0.1251
     11 O          -1.7368    3.0367    3.8735 O.2     1  UNL1       -0.1251
     12 N          -0.9891    0.6184    3.9216 N.2     1  UNL1        0.0899
     13 C          -1.7207    0.2899    2.9162 C.2     1  UNL1        0.3132
     14 C          -2.0646   -1.1712    2.6411 C.3     1  UNL1        0.0561
     15 C          -2.5449   -1.1120    1.1844 C.3     1  UNL1       -0.0059
     16 C          -3.1281    0.2930    1.0395 C.3     1  UNL1        0.0785
     17 N          -2.3120    1.0535    1.9517 N.pl3   1  UNL1       -0.2358
     18 C           1.2516    1.7188    2.2628 C.ar    1  UNL1       -0.0116
     19 C           3.0481   -0.9311   -0.7573 C.ar    1  UNL1        0.1152
     20 C           4.1460   -1.5589   -0.1356 C.ar    1  UNL1       -0.0247
     21 C           4.9324   -2.4691   -0.8443 C.ar    1  UNL1        0.0421
     22 CL          6.3784   -3.0801   -0.1434 Cl      1  UNL1       -0.0835
     23 C           4.5881   -2.8443   -2.1380 C.ar    1  UNL1       -0.0369
     24 C           3.4827   -2.2552   -2.7543 C.ar    1  UNL1        0.0178
     25 C           2.7033   -1.2937   -2.0731 C.ar    1  UNL1        0.2853
     26 N           1.5741   -0.7029   -2.8206 N.pl3   1  UNL1        0.0804
     27 O           1.3334   -1.1827   -3.9393 O.2     1  UNL1        0.0415
     28 O           0.9663    0.2621   -2.3526 O.co2   1  UNL1       -0.5760
     29 H           3.9477    1.2005    0.4405 H       1  UNL1        0.1551
     30 H           3.7160    3.6287    0.8964 H       1  UNL1        0.0636
     31 H           2.8470    5.2371    2.5573 H       1  UNL1        0.0619
     32 H           0.8744    4.6568    3.9516 H       1  UNL1        0.0638
     33 H          -2.8806   -1.4851    3.3011 H       1  UNL1        0.0389
     34 H          -1.2088   -1.8379    2.7714 H       1  UNL1        0.0389
     35 H          -3.2732   -1.8925    0.9425 H       1  UNL1        0.0307
     36 H          -1.6911   -1.2334    0.5055 H       1  UNL1        0.0307
     37 H          -4.1772    0.3096    1.3540 H       1  UNL1        0.0724
     38 H          -3.0489    0.6741    0.0187 H       1  UNL1        0.0724
     39 H          -2.3852    2.0640    2.0263 H       1  UNL1        0.2911
     40 H           0.8358    0.7205    2.2321 H       1  UNL1        0.0656
     41 H           4.3741   -1.3632    0.9111 H       1  UNL1        0.0642
     42 H           5.1737   -3.5885   -2.6753 H       1  UNL1        0.0634
     43 H           3.2524   -2.5476   -3.7792 H       1  UNL1        0.0686
@<TRIPOS>UNITY_ATOM_ATTR
26 1
charge 1
28 1
charge -1
@<TRIPOS>BOND
     1     1     2    2
     2     2     3   am
     3     3     4    1
     4     4     5   ar
     5     5     6   ar
     6     6     7   ar
     7     7     8   ar
     8     8     9    1
     9     9    10    2
    10     9    11    2
    11     9    12    1
    12    12    13    2
    13    13    14    1
    14    14    15    1
    15    15    16    1
    16    16    17    1
    17    13    17    1
    18     8    18   ar
    19     4    18   ar
    20     2    19    1
    21    19    20   ar
    22    20    21   ar
    23    21    22    1
    24    21    23   ar
    25    23    24   ar
    26    24    25   ar
    27    19    25   ar
    28    25    26    1
    29    26    27    2
    30    26    28    1
    31     3    29    1
    32     5    30    1
    33     6    31    1
    34     7    32    1
    35    14    33    1
    36    14    34    1
    37    15    35    1
    38    15    36    1
    39    16    37    1
    40    16    38    1
    41    17    39    1
    42    18    40    1
    43    20    41    1
    44    23    42    1
    45    24    43    1
