@<TRIPOS>MOLECULE
*****
 69 71 0 0 0
SMALL
GASTEIGER

@<TRIPOS>ATOM
      1 C           0.9984   -0.0771   -0.0881 C.3     1  UNL1       -0.0653
      2 C           2.5186   -0.1006   -0.0885 C.3     1  UNL1       -0.0556
      3 C           3.0388    1.3146   -0.2245 C.3     1  UNL1       -0.0493
      4 C           4.5666    1.4039   -0.2500 C.3     1  UNL1       -0.0277
      5 C           5.0549    2.8343   -0.3510 C.ar    1  UNL1       -0.0471
      6 C           6.4204    3.1246   -0.2864 C.ar    1  UNL1       -0.0551
      7 C           6.8511    4.4613   -0.2419 C.ar    1  UNL1       -0.0197
      8 C           5.9391    5.5218   -0.3559 C.ar    1  UNL1        0.1212
      9 O           6.4561    6.7875   -0.3814 O.3     1  UNL1       -0.4827
     10 C           5.5603    7.8834   -0.6427 C.3     1  UNL1        0.1668
     11 C           6.3564    9.1997   -0.7660 C.2     1  UNL1        0.2698
     12 O           7.5868    9.2135   -0.6975 O.2     1  UNL1       -0.2703
     13 N           5.5912   10.3632   -0.9526 N.am    1  UNL1       -0.2042
     14 N           6.2625   11.5638   -1.0477 N.2     1  UNL1       -0.1876
     15 C           5.5945   12.6721   -1.1310 C.2     1  UNL1        0.0529
     16 C           6.3109   13.9739   -1.2690 C.ar    1  UNL1       -0.0018
     17 C           5.8568   15.1689   -0.6971 C.ar    1  UNL1       -0.0494
     18 C           6.5265   16.3879   -0.9696 C.ar    1  UNL1       -0.0150
     19 C           7.6636   16.4002   -1.7992 C.ar    1  UNL1        0.1734
     20 O           8.3441   17.6668   -1.9881 O.3     1  UNL1       -0.4186
     21 C           9.5981   17.8364   -2.5853 C.2     1  UNL1        0.3446
     22 O          10.3867   17.0012   -3.0266 O.2     1  UNL1       -0.2445
     23 C          10.1301   19.1932   -2.6460 C.ar    1  UNL1        0.0596
     24 C          10.7631   19.5689   -3.8458 C.ar    1  UNL1       -0.0443
     25 C          11.6469   20.6445   -3.8658 C.ar    1  UNL1       -0.0192
     26 C          11.8467   21.3945   -2.7073 C.ar    1  UNL1        0.1201
     27 O          12.6498   22.4924   -2.8572 O.3     1  UNL1       -0.4951
     28 C          12.7257   23.3596   -1.7312 C.3     1  UNL1        0.0788
     29 C          11.2387   20.9945   -1.5091 C.ar    1  UNL1       -0.0192
     30 C          10.3893   19.8858   -1.4692 C.ar    1  UNL1       -0.0443
     31 C           8.0635   15.2013   -2.4108 C.ar    1  UNL1        0.1632
     32 O           8.9798   15.2738   -3.4031 O.3     1  UNL1       -0.4885
     33 C           9.5871   14.1051   -3.9210 C.3     1  UNL1        0.0870
     34 C          10.7730   14.5315   -4.7692 C.3     1  UNL1       -0.0307
     35 C           7.4220   13.9995   -2.1048 C.ar    1  UNL1       -0.0076
     36 C           4.5885    5.2311   -0.4458 C.ar    1  UNL1       -0.0197
     37 C           4.1588    3.9092   -0.4477 C.ar    1  UNL1       -0.0551
     38 H           0.6038   -1.0910    0.0019 H       1  UNL1        0.0230
     39 H           0.6155    0.3636   -1.0154 H       1  UNL1        0.0230
     40 H           0.6174    0.5200    0.7481 H       1  UNL1        0.0230
     41 H           2.8818   -0.7085   -0.9229 H       1  UNL1        0.0263
     42 H           2.8853   -0.5442    0.8427 H       1  UNL1        0.0263
     43 H           2.6512    1.9084    0.6157 H       1  UNL1        0.0268
     44 H           2.6328    1.7452   -1.1497 H       1  UNL1        0.0268
     45 H           4.9590    0.8149   -1.0879 H       1  UNL1        0.0313
     46 H           4.9587    0.9675    0.6783 H       1  UNL1        0.0313
     47 H           7.1547    2.3203   -0.2569 H       1  UNL1        0.0621
     48 H           7.9103    4.6704   -0.1070 H       1  UNL1        0.0654
     49 H           4.8553    7.9781    0.1915 H       1  UNL1        0.0795
     50 H           5.0207    7.7184   -1.5846 H       1  UNL1        0.0795
     51 H           4.5797   10.3515   -1.0107 H       1  UNL1        0.1773
     52 H           4.4924   12.7098   -1.1388 H       1  UNL1        0.0851
     53 H           5.0051   15.1616   -0.0206 H       1  UNL1        0.0625
     54 H           6.1346   17.3146   -0.5533 H       1  UNL1        0.0656
     55 H          10.6302   18.9657   -4.7439 H       1  UNL1        0.0627
     56 H          12.1997   20.8723   -4.7752 H       1  UNL1        0.0654
     57 H          13.2819   24.2540   -2.0238 H       1  UNL1        0.0660
     58 H          13.2721   22.8726   -0.9176 H       1  UNL1        0.0660
     59 H          11.7315   23.6827   -1.3998 H       1  UNL1        0.0660
     60 H          11.4447   21.5045   -0.5746 H       1  UNL1        0.0654
     61 H          10.0064   19.5271   -0.5187 H       1  UNL1        0.0627
     62 H           8.8522   13.6042   -4.5552 H       1  UNL1        0.0694
     63 H           9.9348   13.4393   -3.1233 H       1  UNL1        0.0694
     64 H          10.4766   15.2922   -5.4999 H       1  UNL1        0.0262
     65 H          11.1936   13.6716   -5.2938 H       1  UNL1        0.0262
     66 H          11.5601   14.9791   -4.1513 H       1  UNL1        0.0262
     67 H           7.7447   13.0727   -2.5668 H       1  UNL1        0.0662
     68 H           3.8275    5.9983   -0.4976 H       1  UNL1        0.0654
     69 H           3.0871    3.7533   -0.5162 H       1  UNL1        0.0621
@<TRIPOS>BOND
     1     1     2    1
     2     2     3    1
     3     3     4    1
     4     4     5    1
     5     5     6   ar
     6     6     7   ar
     7     7     8   ar
     8     8     9    1
     9     9    10    1
    10    10    11    1
    11    11    12    2
    12    11    13   am
    13    13    14    1
    14    14    15    2
    15    15    16    1
    16    16    17   ar
    17    17    18   ar
    18    18    19   ar
    19    19    20    1
    20    20    21    1
    21    21    22    2
    22    21    23    1
    23    23    24   ar
    24    24    25   ar
    25    25    26   ar
    26    26    27    1
    27    27    28    1
    28    26    29   ar
    29    29    30   ar
    30    23    30   ar
    31    19    31   ar
    32    31    32    1
    33    32    33    1
    34    33    34    1
    35    31    35   ar
    36    16    35   ar
    37     8    36   ar
    38    36    37   ar
    39     5    37   ar
    40     1    38    1
    41     1    39    1
    42     1    40    1
    43     2    41    1
    44     2    42    1
    45     3    43    1
    46     3    44    1
    47     4    45    1
    48     4    46    1
    49     6    47    1
    50     7    48    1
    51    10    49    1
    52    10    50    1
    53    13    51    1
    54    15    52    1
    55    17    53    1
    56    18    54    1
    57    24    55    1
    58    25    56    1
    59    28    57    1
    60    28    58    1
    61    28    59    1
    62    29    60    1
    63    30    61    1
    64    33    62    1
    65    33    63    1
    66    34    64    1
    67    34    65    1
    68    34    66    1
    69    35    67    1
    70    36    68    1
    71    37    69    1
