REMARK  5 active torsions:
REMARK  status: ('A' for Active; 'I' for Inactive)
REMARK    1  A    between atoms: C_2  and  C_4 
REMARK    2  A    between atoms: C_4  and  C_5 
REMARK    3  A    between atoms: C_5  and  C_6 
REMARK       I    between atoms: C_6  and  N_8 
REMARK    4  A    between atoms: N_8  and  N_9 
REMARK       I    between atoms: N_9  and  C_10 
REMARK    5  A    between atoms: C_10  and  C_12 
ROOT
ATOM      1  N   UNL d   1       6.934  -3.791  -2.474  0.00  0.00    -0.263 N 
ATOM      2  C   UNL d   1       8.303  -3.988  -2.552  0.00  0.00     0.270 C 
ATOM      3  O   UNL d   1       9.120  -3.263  -1.984  0.00  0.00    -0.266 OA
ATOM      4  H   UNL d   1       6.241  -4.436  -2.851  0.00  0.00     0.190 HD
ENDROOT
BRANCH   2   5
ATOM      5  C   UNL d   1       8.779  -5.135  -3.389  0.00  0.00     0.036 A 
ATOM      6  C   UNL d   1       9.920  -5.862  -3.005  0.00  0.00     0.020 A 
ATOM      7  C   UNL d   1      10.435  -6.871  -3.833  0.00  0.00     0.040 A 
ATOM      8  C   UNL d   1       9.828  -7.145  -5.057  0.00  0.00     0.096 A 
ATOM      9  C   UNL d   1       8.684  -6.436  -5.435  0.00  0.00     0.069 A 
ATOM     10  O   UNL d   1      10.377  -8.149  -5.808  0.00  0.00    -0.340 OA
ATOM     11  C   UNL d   1       8.157  -5.436  -4.609  0.00  0.00     0.049 A 
ATOM     12  N   UNL d   1       8.054  -6.737  -6.644  0.00  0.00    -0.323 N 
ATOM     13  C   UNL d   1       8.604  -7.612  -7.543  0.00  0.00     0.246 C 
ATOM     14  H   UNL d   1       7.166  -6.323  -6.897  0.00  0.00     0.169 HD
ATOM     15  O   UNL d   1       8.038  -7.888  -8.597  0.00  0.00    -0.271 OA
ATOM     16  C   UNL d   1       9.995  -8.123  -7.177  0.00  0.00     0.278 C 
ENDBRANCH   2   5
BRANCH   1  17
ATOM     17  N   UNL d   1       6.414  -2.700  -1.734  0.00  0.00    -0.267 N 
ATOM     18  C   UNL d   1       5.038  -2.559  -1.654  0.00  0.00     0.236 C 
ATOM     19  O   UNL d   1       4.274  -3.363  -2.191  0.00  0.00    -0.272 OA
ATOM     20  H   UNL d   1       7.088  -2.068  -1.304  0.00  0.00     0.190 HD
BRANCH  18  21
ATOM     21  C   UNL d   1       4.554  -1.356  -0.851  0.00  0.00     0.105 C 
BRANCH  21  22
ATOM     22  C   UNL d   1       3.017  -1.282  -0.787  0.00  0.00     0.013 C 
BRANCH  22  23
ATOM     23  C   UNL d   1       2.476  -0.088   0.026  0.00  0.00    -0.022 C 
ATOM     24  C   UNL d   1       0.943  -0.076   0.003  0.00  0.00     0.009 C 
ATOM     25  C   UNL d   1       2.954  -0.136   1.477  0.00  0.00     0.009 C 
ENDBRANCH  22  23
ENDBRANCH  21  22
ENDBRANCH  18  21
ENDBRANCH   1  17
TORSDOF 5
