REMARK  12 active torsions:
REMARK  status: ('A' for Active; 'I' for Inactive)
REMARK    1  A    between atoms: C_2  and  C_3 
REMARK    2  A    between atoms: C_3  and  O_4 
REMARK    3  A    between atoms: O_4  and  C_5 
REMARK    4  A    between atoms: C_8  and  C_9 
REMARK    5  A    between atoms: C_9  and  C_11 
REMARK    6  A    between atoms: C_12  and  O_13 
REMARK    7  A    between atoms: N_16  and  C_17 
REMARK    8  A    between atoms: C_17  and  C_18 
REMARK    9  A    between atoms: C_18  and  C_19 
REMARK   10  A    between atoms: C_19  and  O_20 
REMARK   11  A    between atoms: C_21  and  C_22 
REMARK   12  A    between atoms: C_25  and  O_26 
ROOT
ATOM      1  C   UNL d   1       7.835   4.823   4.307  0.00  0.00     0.059 A 
ATOM      2  C   UNL d   1       7.630   6.137   4.527  0.00  0.00     0.146 A 
ATOM      3  C   UNL d   1       7.268   6.304   5.951  0.00  0.00     0.278 A 
ATOM      4  O   UNL d   1       6.919   7.376   6.437  0.00  0.00    -0.265 OA
ATOM      5  N   UNL d   1       7.371   5.075   6.566  0.00  0.00    -0.333 N 
ATOM      6  C   UNL d   1       7.688   4.026   5.606  0.00  0.00     0.161 A 
ENDROOT
BRANCH   1   7
ATOM      7  C   UNL d   1       8.260   4.293   2.955  0.00  0.00     0.193 C 
ATOM      8  O   UNL d   1       9.311   4.690   2.458  0.00  0.00    -0.287 OA
BRANCH   7   9
ATOM      9  C   UNL d   1       7.362   3.385   2.144  0.00  0.00     0.015 C 
ATOM     10  C   UNL d   1       7.639   2.823   0.899  0.00  0.00     0.018 C 
ATOM     11  C   UNL d   1       6.645   2.053   0.208  0.00  0.00     0.038 C 
ATOM     12  C   UNL d   1       5.411   1.742   0.790  0.00  0.00     0.069 C 
ATOM     13  C   UNL d   1       5.157   2.307   2.007  0.00  0.00     0.038 C 
ATOM     14  C   UNL d   1       6.083   3.169   2.586  0.00  0.00     0.018 C 
BRANCH  12  15
ATOM     15  O   UNL d   1       4.526   0.904   0.165  0.00  0.00    -0.348 OA
BRANCH  15  16
ATOM     16  C   UNL d   1       3.132   1.081   0.508  0.00  0.00     0.202 C 
BRANCH  16  17
ATOM     17  C   UNL d   1       2.323  -0.025  -0.103  0.00  0.00    -0.011 C 
ATOM     18  C   UNL d   1       0.982  -0.052  -0.088  0.00  0.00     0.009 C 
ENDBRANCH  16  17
ENDBRANCH  15  16
ENDBRANCH  12  15
ENDBRANCH   7   9
ENDBRANCH   1   7
BRANCH   2  19
ATOM     19  O   UNL d   1       7.669   7.217   3.693  0.00  0.00    -0.355 OA
ATOM     20  H   UNL d   1       8.044   6.972   2.834  0.00  0.00     0.218 HD
ENDBRANCH   2  19
BRANCH   6  21
ATOM     21  C   UNL d   1       6.591   2.966   5.628  0.00  0.00    -0.030 C 
ATOM     22  C   UNL d   1       6.921   1.605   5.665  0.00  0.00     0.012 C 
ATOM     23  C   UNL d   1       5.970   0.643   5.307  0.00  0.00     0.037 C 
ATOM     24  C   UNL d   1       4.672   1.038   4.995  0.00  0.00     0.065 C 
ATOM     25  C   UNL d   1       4.295   2.373   5.078  0.00  0.00     0.037 C 
ATOM     26  C   UNL d   1       5.237   3.333   5.447  0.00  0.00     0.012 C 
BRANCH  24  27
ATOM     27  O   UNL d   1       3.756   0.161   4.494  0.00  0.00    -0.361 OA
ATOM     28  H   UNL d   1       4.073  -0.744   4.649  0.00  0.00     0.217 HD
ENDBRANCH  24  27
ENDBRANCH   6  21
BRANCH   5  29
ATOM     29  C   UNL d   1       7.017   4.777   7.959  0.00  0.00     0.129 C 
BRANCH  29  30
ATOM     30  C   UNL d   1       6.572   5.991   8.763  0.00  0.00     0.046 C 
BRANCH  30  31
ATOM     31  C   UNL d   1       6.241   5.651  10.199  0.00  0.00     0.165 C 
BRANCH  31  32
ATOM     32  O   UNL d   1       5.852   6.830  10.891  0.00  0.00    -0.401 OA
ATOM     33  H   UNL d   1       6.555   7.492  10.764  0.00  0.00     0.209 HD
ENDBRANCH  31  32
ENDBRANCH  30  31
ENDBRANCH  29  30
ENDBRANCH   5  29
TORSDOF 12
