REMARK  6 active torsions:
REMARK  status: ('A' for Active; 'I' for Inactive)
REMARK    1  A    between atoms: O_2  and  C_3 
REMARK    2  A    between atoms: C_7  and  N_8 
REMARK    3  A    between atoms: N_11  and  C_12 
REMARK    4  A    between atoms: C_12  and  C_13 
REMARK    5  A    between atoms: C_12  and  C_27 
REMARK    6  A    between atoms: N_31  and  C_32 
ROOT
ATOM      1  C   UNL d   1       0.282  -7.743  -0.326  0.00  0.00     0.298 C 
ENDROOT
BRANCH   1   2
ATOM      2  N   UNL d   1       1.811  -6.935  -0.141  0.00  0.00    -0.052 N 
ATOM      3  C   UNL d   1       1.905  -5.611  -0.891  0.00  0.00     0.256 C 
ATOM      4  C   UNL d   1       3.256  -4.924  -0.700  0.00  0.00     0.150 C 
ATOM      5  N   UNL d   1       3.475  -4.664   0.706  0.00  0.00    -0.378 N 
ATOM      6  C   UNL d   1       3.676  -5.867   1.478  0.00  0.00     0.150 C 
ATOM      7  C   UNL d   1       2.351  -6.592   1.276  0.00  0.00     0.256 C 
ATOM      8  H   UNL d   1       2.452  -7.620  -0.557  0.00  0.00     0.281 HD
BRANCH   5   9
ATOM      9  C   UNL d   1       3.634  -3.359   1.097  0.00  0.00     0.032 C 
ATOM     10  C   UNL d   1       4.792  -2.967   1.758  0.00  0.00     0.029 C 
ATOM     11  C   UNL d   1       5.132  -1.618   1.811  0.00  0.00     0.005 C 
ATOM     12  C   UNL d   1       4.266  -0.647   1.305  0.00  0.00     0.037 C 
ATOM     13  C   UNL d   1       3.068  -1.013   0.702  0.00  0.00     0.070 C 
ATOM     14  C   UNL d   1       2.740  -2.363   0.634  0.00  0.00     0.066 C 
BRANCH  13  15
ATOM     15  O   UNL d   1       2.401  -0.009   0.057  0.00  0.00    -0.356 OA
ATOM     16  C   UNL d   1       0.984  -0.094  -0.010  0.00  0.00     0.210 C 
ENDBRANCH  13  15
ENDBRANCH   5   9
ENDBRANCH   1   2
BRANCH   1  17
ATOM     17  C   UNL d   1      -0.208  -7.687  -1.812  0.00  0.00     0.043 C 
ATOM     18  C   UNL d   1      -0.172  -6.607  -2.655  0.00  0.00     0.027 C 
ATOM     19  C   UNL d   1      -0.642  -6.654  -4.051  0.00  0.00    -0.015 C 
ATOM     20  C   UNL d   1      -0.139  -6.021  -5.218  0.00  0.00     0.031 C 
ATOM     21  C   UNL d   1      -1.689  -7.530  -4.209  0.00  0.00     0.024 C 
ATOM     22  C   UNL d   1      -0.548  -6.538  -6.478  0.00  0.00     0.158 C 
ATOM     23  C   UNL d   1      -1.035  -7.809  -6.466  0.00  0.00     0.159 C 
ATOM     24  O   UNL d   1      -1.555  -5.944  -7.387  0.00  0.00    -0.345 OA
ATOM     25  C   UNL d   1      -1.956  -8.032  -5.453  0.00  0.00     0.043 C 
ATOM     26  O   UNL d   1      -1.296  -8.248  -7.742  0.00  0.00    -0.345 OA
ATOM     27  C   UNL d   1      -2.151  -7.159  -8.034  0.00  0.00     0.341 C 
ATOM     28  N   UNL d   1      -2.198  -8.197  -3.086  0.00  0.00    -0.225 NA
ATOM     29  C   UNL d   1      -1.184  -8.714  -2.307  0.00  0.00     0.234 C 
ATOM     30  H   UNL d   1      -2.953  -8.846  -3.275  0.00  0.00     0.137 HD
ATOM     31  O   UNL d   1      -1.137  -9.927  -2.064  0.00  0.00    -0.274 OA
ENDBRANCH   1  17
BRANCH   1  32
ATOM     32  C   UNL d   1       0.174  -9.089   0.532  0.00  0.00     0.184 A 
ATOM     33  N   UNL d   1       0.024 -10.312   0.044  0.00  0.00    -0.111 NA
ATOM     34  N   UNL d   1      -0.084 -11.198   1.079  0.00  0.00    -0.023 NA
ATOM     35  N   UNL d   1       0.062 -10.577   2.227  0.00  0.00    -0.043 NA
ATOM     36  N   UNL d   1       0.141  -9.267   1.926  0.00  0.00    -0.223 N 
BRANCH  36  37
ATOM     37  C   UNL d   1       0.381  -8.364   3.050  0.00  0.00     0.048 C 
ATOM     38  C   UNL d   1      -0.624  -8.462   4.187  0.00  0.00     0.040 C 
ATOM     39  C   UNL d   1       1.809  -8.671   3.634  0.00  0.00     0.040 C 
ATOM     40  C   UNL d   1       0.043  -6.937   2.650  0.00  0.00     0.040 C 
ENDBRANCH  36  37
ENDBRANCH   1  32
TORSDOF 6
