@<TRIPOS>MOLECULE
*****
 76 81 0 0 0
SMALL
GASTEIGER

@<TRIPOS>ATOM
      1 C           0.9113    0.0451   -0.0705 C.3     1  UNL1        0.0790
      2 O           2.3276    0.1821   -0.1694 O.3     1  UNL1       -0.4914
      3 C           2.9564   -0.9150   -0.6883 C.ar    1  UNL1        0.1618
      4 C           2.6593   -1.2842   -1.9968 C.ar    1  UNL1       -0.0125
      5 C           3.3447   -2.3291   -2.6171 C.ar    1  UNL1       -0.0305
      6 C           4.3368   -3.0385   -1.9192 C.ar    1  UNL1        0.0041
      7 C           4.6581   -2.6361   -0.6135 C.ar    1  UNL1       -0.0078
      8 C           3.9783   -1.5730    0.0093 C.ar    1  UNL1        0.1619
      9 O           4.4190   -1.3034    1.2801 O.3     1  UNL1       -0.4914
     10 C           3.7787   -0.2325    1.9699 C.3     1  UNL1        0.0790
     11 C           5.0950   -4.1632   -2.5752 C.3     1  UNL1       -0.0055
     12 N           4.4078   -4.6742   -3.8288 N.4     1  UNL1        0.2390
     13 C           5.2558   -5.6956   -4.5424 C.3     1  UNL1       -0.0275
     14 C           4.5129   -6.2450   -5.7506 C.3     1  UNL1        0.0127
     15 C           5.3356   -7.2383   -6.4974 C.ar    1  UNL1       -0.0422
     16 C           6.2955   -6.8608   -7.4466 C.ar    1  UNL1       -0.0566
     17 C           6.8510   -7.8288   -8.2961 C.ar    1  UNL1       -0.0402
     18 C           6.5489   -9.1829   -8.1008 C.ar    1  UNL1        0.0337
     19 N           7.0142  -10.1674   -9.0054 N.am    1  UNL1       -0.2814
     20 C           6.7335  -11.5359   -8.8880 C.2     1  UNL1        0.2503
     21 O           6.0108  -12.0795   -8.0679 O.2     1  UNL1       -0.2698
     22 C           7.3472  -12.4366   -9.8773 C.ar    1  UNL1        0.0610
     23 C           6.5475  -13.4477  -10.4419 C.ar    1  UNL1       -0.0476
     24 C           7.0543  -14.2889  -11.4314 C.ar    1  UNL1       -0.0602
     25 C           8.4108  -14.2477  -11.7268 C.ar    1  UNL1       -0.0489
     26 C           9.2331  -13.3452  -11.0438 C.ar    1  UNL1        0.0463
     27 C          10.6871  -13.3313  -11.3179 C.ar    1  UNL1        0.1972
     28 O          11.2219  -14.1264  -12.0554 O.2     1  UNL1       -0.2865
     29 C          11.4533  -12.2560  -10.6643 C.ar    1  UNL1        0.0492
     30 C          12.1408  -11.3404  -11.4440 C.ar    1  UNL1       -0.0487
     31 C          12.5125  -10.1282  -10.8643 C.ar    1  UNL1       -0.0575
     32 C          12.5271  -10.0182   -9.4738 C.ar    1  UNL1       -0.0179
     33 C          11.8919  -10.9822   -8.7043 C.ar    1  UNL1        0.1440
     34 O          12.1548  -10.9406   -7.3680 O.3     1  UNL1       -0.4930
     35 C          11.8378  -12.1020   -6.6006 C.3     1  UNL1        0.0789
     36 C          11.0558  -11.8644   -9.3866 C.ar    1  UNL1        0.0928
     37 N           9.6030  -11.6148   -9.3155 N.ar    1  UNL1       -0.3505
     38 C           8.7226  -12.4378  -10.0968 C.ar    1  UNL1        0.0629
     39 C           5.7565   -9.5325   -7.0099 C.ar    1  UNL1       -0.0402
     40 C           5.0938   -8.5805   -6.2631 C.ar    1  UNL1       -0.0566
     41 C           4.0271   -3.5040   -4.7088 C.3     1  UNL1       -0.0275
     42 C           2.9615   -2.6778   -4.0227 C.3     1  UNL1        0.0133
     43 H           0.5556    0.8470    0.5834 H       1  UNL1        0.0660
     44 H           0.6194   -0.9110    0.3791 H       1  UNL1        0.0660
     45 H           0.4422    0.1763   -1.0488 H       1  UNL1        0.0660
     46 H           1.9109   -0.7251   -2.5533 H       1  UNL1        0.0658
     47 H           5.4533   -3.1406   -0.0627 H       1  UNL1        0.0660
     48 H           4.2168   -0.1411    2.9661 H       1  UNL1        0.0660
     49 H           2.7127   -0.4423    2.1116 H       1  UNL1        0.0660
     50 H           3.9481    0.7205    1.4559 H       1  UNL1        0.0660
     51 H           5.1867   -5.0207   -1.8987 H       1  UNL1        0.0867
     52 H           6.0923   -3.8206   -2.8758 H       1  UNL1        0.0867
     53 H           3.5466   -5.1398   -3.5086 H       1  UNL1        0.2037
     54 H           5.4735   -6.4940   -3.8219 H       1  UNL1        0.0818
     55 H           6.1923   -5.2061   -4.8284 H       1  UNL1        0.0818
     56 H           4.2375   -5.4759   -6.4757 H       1  UNL1        0.0365
     57 H           3.5642   -6.6980   -5.4284 H       1  UNL1        0.0365
     58 H           6.5805   -5.8166   -7.5682 H       1  UNL1        0.0621
     59 H           7.5016   -7.4982   -9.1029 H       1  UNL1        0.0636
     60 H           7.5011   -9.8374   -9.8279 H       1  UNL1        0.1551
     61 H           5.5418  -13.6262  -10.0614 H       1  UNL1        0.0626
     62 H           6.4019  -14.9921  -11.9444 H       1  UNL1        0.0618
     63 H           8.8353  -14.9552  -12.4368 H       1  UNL1        0.0625
     64 H          12.2773  -11.5243  -12.5039 H       1  UNL1        0.0625
     65 H          12.8329   -9.2973  -11.4831 H       1  UNL1        0.0619
     66 H          13.0612   -9.2042   -8.9930 H       1  UNL1        0.0655
     67 H          12.1887  -11.9212   -5.5760 H       1  UNL1        0.0660
     68 H          12.3453  -13.0100   -6.9525 H       1  UNL1        0.0660
     69 H          10.7565  -12.2412   -6.5603 H       1  UNL1        0.0660
     70 H           9.4959  -10.6574   -9.6854 H       1  UNL1        0.1660
     71 H           5.5788  -10.5594   -6.7248 H       1  UNL1        0.0636
     72 H           4.3678   -8.9180   -5.5287 H       1  UNL1        0.0621
     73 H           3.6029   -3.8672   -5.6441 H       1  UNL1        0.0818
     74 H           4.9438   -2.9427   -4.9186 H       1  UNL1        0.0818
     75 H           2.0167   -3.2353   -3.9983 H       1  UNL1        0.0365
     76 H           2.8000   -1.7689   -4.6134 H       1  UNL1        0.0365
@<TRIPOS>UNITY_ATOM_ATTR
12 1
charge 1
@<TRIPOS>BOND
     1     1     2    1
     2     2     3    1
     3     3     4   ar
     4     4     5   ar
     5     5     6   ar
     6     6     7   ar
     7     7     8   ar
     8     3     8   ar
     9     8     9    1
    10     9    10    1
    11     6    11    1
    12    11    12    1
    13    12    13    1
    14    13    14    1
    15    14    15    1
    16    15    16   ar
    17    16    17   ar
    18    17    18   ar
    19    18    19    1
    20    19    20   am
    21    20    21    2
    22    20    22    1
    23    22    23   ar
    24    23    24   ar
    25    24    25   ar
    26    25    26   ar
    27    26    27   ar
    28    27    28    2
    29    27    29   ar
    30    29    30   ar
    31    30    31   ar
    32    31    32   ar
    33    32    33   ar
    34    33    34    1
    35    34    35    1
    36    33    36   ar
    37    29    36   ar
    38    36    37   ar
    39    37    38   ar
    40    22    38   ar
    41    26    38   ar
    42    18    39   ar
    43    39    40   ar
    44    15    40   ar
    45    12    41    1
    46    41    42    1
    47     5    42    1
    48     1    43    1
    49     1    44    1
    50     1    45    1
    51     4    46    1
    52     7    47    1
    53    10    48    1
    54    10    49    1
    55    10    50    1
    56    11    51    1
    57    11    52    1
    58    12    53    1
    59    13    54    1
    60    13    55    1
    61    14    56    1
    62    14    57    1
    63    16    58    1
    64    17    59    1
    65    19    60    1
    66    23    61    1
    67    24    62    1
    68    25    63    1
    69    30    64    1
    70    31    65    1
    71    32    66    1
    72    35    67    1
    73    35    68    1
    74    35    69    1
    75    37    70    1
    76    39    71    1
    77    40    72    1
    78    41    73    1
    79    41    74    1
    80    42    75    1
    81    42    76    1
