@<TRIPOS>MOLECULE
*****
 33 34 0 0 0
SMALL
GASTEIGER

@<TRIPOS>ATOM
      1 C           2.5184   -0.0141   -0.0236 C.3     1  UNL1       -0.0397
      2 C           1.0243   -0.0266    0.0772 C.ar    1  UNL1       -0.0504
      3 C           0.3012   -1.2218    0.0761 C.ar    1  UNL1       -0.0582
      4 C          -1.0956   -1.2100    0.1806 C.ar    1  UNL1       -0.0520
      5 C          -1.7972   -0.0015    0.3284 C.ar    1  UNL1        0.0035
      6 C          -3.3123    0.0449    0.1918 C.2     1  UNL1        0.0836
      7 S          -4.3124   -1.3118    0.2392 S.2     1  UNL1       -0.0347
      8 N          -3.9560    1.2535   -0.0423 N.am    1  UNL1       -0.3066
      9 C          -3.6208    2.2513   -1.0057 C.ar    1  UNL1        0.0591
     10 C          -4.3198    3.4711   -0.9369 C.ar    1  UNL1        0.0385
     11 C          -3.9238    4.5400   -1.7618 C.ar    1  UNL1        0.2750
     12 N          -4.6733    5.8033   -1.7565 N.pl3   1  UNL1        0.0797
     13 O          -5.6447    5.9005   -1.0059 O.2     1  UNL1        0.0414
     14 O          -4.2788    6.7040   -2.5232 O.co2   1  UNL1       -0.5760
     15 C          -2.8112    4.4236   -2.5970 C.ar    1  UNL1        0.0174
     16 C          -2.1489    3.2090   -2.6865 C.ar    1  UNL1       -0.0328
     17 C          -2.5998    2.0955   -1.9769 C.ar    1  UNL1        0.0464
     18 N          -2.0739    0.8640   -2.4015 N.pl3   1  UNL1       -0.3565
     19 C          -1.0446    1.1838    0.4031 C.ar    1  UNL1       -0.0520
     20 C           0.3369    1.1788    0.2006 C.ar    1  UNL1       -0.0582
     21 H           2.9269   -1.0288   -0.0209 H       1  UNL1        0.0278
     22 H           2.9310    0.5140    0.8427 H       1  UNL1        0.0278
     23 H           2.8425    0.4895   -0.9396 H       1  UNL1        0.0278
     24 H           0.8144   -2.1748   -0.0363 H       1  UNL1        0.0620
     25 H          -1.6130   -2.1623    0.0912 H       1  UNL1        0.0624
     26 H          -4.8970    1.3068    0.3406 H       1  UNL1        0.1527
     27 H          -5.1490    3.5965   -0.2426 H       1  UNL1        0.0705
     28 H          -2.4711    5.2448   -3.2229 H       1  UNL1        0.0686
     29 H          -1.3026    3.1017   -3.3596 H       1  UNL1        0.0639
     30 H          -1.0575    0.8627   -2.4597 H       1  UNL1        0.1424
     31 H          -2.4103    0.0421   -1.9184 H       1  UNL1        0.1424
     32 H          -1.5249    2.1537    0.4868 H       1  UNL1        0.0624
     33 H           0.8651    2.1268    0.1137 H       1  UNL1        0.0620
@<TRIPOS>UNITY_ATOM_ATTR
12 1
charge 1
14 1
charge -1
@<TRIPOS>BOND
     1     1     2    1
     2     2     3   ar
     3     3     4   ar
     4     4     5   ar
     5     5     6    1
     6     6     7    2
     7     6     8    1
     8     8     9    1
     9     9    10   ar
    10    10    11   ar
    11    11    12    1
    12    12    13    2
    13    12    14    1
    14    11    15   ar
    15    15    16   ar
    16    16    17   ar
    17     9    17   ar
    18    17    18    1
    19     5    19   ar
    20    19    20   ar
    21     2    20   ar
    22     1    21    1
    23     1    22    1
    24     1    23    1
    25     3    24    1
    26     4    25    1
    27     8    26    1
    28    10    27    1
    29    15    28    1
    30    16    29    1
    31    18    30    1
    32    18    31    1
    33    19    32    1
    34    20    33    1
