@<TRIPOS>MOLECULE
*****
 47 50 0 0 0
SMALL
GASTEIGER

@<TRIPOS>ATOM
      1 N           0.9853   -0.0375   -0.0915 N.1     1  UNL1       -0.1957
      2 C           2.2463   -0.0375   -0.0915 C.1     1  UNL1        0.0762
      3 C           3.7663   -0.0375   -0.0915 C.3     1  UNL1        0.1335
      4 C           4.4809   -1.2456    0.4034 C.2     1  UNL1        0.2362
      5 O           3.9099   -2.2050    0.9041 O.2     1  UNL1       -0.2740
      6 N           5.8738   -1.1407    0.2562 N.am    1  UNL1       -0.2688
      7 C           6.5637    0.0786    0.3712 C.ar    1  UNL1        0.1375
      8 N           7.9377    0.0413    0.5690 N.ar    1  UNL1       -0.2003
      9 C           8.5478    1.1248    0.9903 C.ar    1  UNL1        0.2000
     10 N           9.9132    1.2277    1.2540 N.pl3   1  UNL1       -0.3010
     11 C          10.5308    1.7870    2.4737 C.3     1  UNL1        0.0148
     12 C          11.5246    2.8986    2.0974 C.3     1  UNL1       -0.0371
     13 C          12.5614    2.4120    1.0819 C.3     1  UNL1       -0.0502
     14 C          11.8797    1.7131   -0.0964 C.3     1  UNL1       -0.0371
     15 C          10.9022    0.6218    0.3670 C.3     1  UNL1        0.0148
     16 N           7.8606    2.3057    1.1074 N.ar    1  UNL1       -0.2946
     17 C           6.5429    2.4451    0.8099 C.ar    1  UNL1        0.2583
     18 O           5.9685    3.5274    0.8023 O.2     1  UNL1       -0.2674
     19 C           5.8317    1.1975    0.5219 C.ar    1  UNL1        0.0663
     20 C           4.3331    1.2332    0.5339 C.3     1  UNL1        0.0480
     21 C           3.6898    1.5009    1.9083 C.ar    1  UNL1        0.0390
     22 C           2.7719    2.5804    1.9632 C.ar    1  UNL1       -0.0515
     23 C           1.8652    2.6995    3.0222 C.ar    1  UNL1       -0.0611
     24 C           2.0170    1.9252    4.1620 C.ar    1  UNL1       -0.0553
     25 C           2.9967    0.9534    4.1990 C.ar    1  UNL1        0.0159
     26 C           3.7739    0.6839    3.0677 C.ar    1  UNL1        0.2769
     27 N           4.6682   -0.4557    3.2833 N.pl3   1  UNL1        0.0799
     28 O           4.2765   -1.3899    3.9800 O.2     1  UNL1        0.0415
     29 O           5.8195   -0.3629    2.8418 O.co2   1  UNL1       -0.5760
     30 H           4.0192   -0.0320   -1.1665 H       1  UNL1        0.0559
     31 H           6.4030   -1.9718    0.4999 H       1  UNL1        0.1563
     32 H          11.0927    0.9936    2.9904 H       1  UNL1        0.0464
     33 H           9.7956    2.1647    3.1917 H       1  UNL1        0.0464
     34 H          12.0446    3.2727    2.9891 H       1  UNL1        0.0280
     35 H          10.9753    3.7440    1.6675 H       1  UNL1        0.0280
     36 H          13.2649    1.7221    1.5655 H       1  UNL1        0.0266
     37 H          13.1574    3.2606    0.7212 H       1  UNL1        0.0266
     38 H          12.6407    1.2790   -0.7529 H       1  UNL1        0.0280
     39 H          11.3368    2.4678   -0.6799 H       1  UNL1        0.0280
     40 H          11.4503   -0.1642    0.9000 H       1  UNL1        0.0464
     41 H          10.4227    0.1689   -0.5044 H       1  UNL1        0.0464
     42 H           8.3719    3.1606    1.2521 H       1  UNL1        0.1716
     43 H           4.0410    2.0479   -0.1544 H       1  UNL1        0.0420
     44 H           2.7183    3.3292    1.1690 H       1  UNL1        0.0623
     45 H           1.0298    3.3932    2.9589 H       1  UNL1        0.0618
     46 H           1.3903    2.0711    5.0348 H       1  UNL1        0.0620
     47 H           3.1440    0.3741    5.1069 H       1  UNL1        0.0685
@<TRIPOS>UNITY_ATOM_ATTR
27 1
charge 1
29 1
charge -1
@<TRIPOS>BOND
     1     1     2    3
     2     2     3    1
     3     3     4    1
     4     4     5    2
     5     4     6   am
     6     6     7    1
     7     7     8   ar
     8     8     9   ar
     9     9    10    1
    10    10    11    1
    11    11    12    1
    12    12    13    1
    13    13    14    1
    14    14    15    1
    15    10    15    1
    16     9    16   ar
    17    16    17   ar
    18    17    18    2
    19    17    19   ar
    20     7    19   ar
    21    19    20    1
    22     3    20    1
    23    20    21    1
    24    21    22   ar
    25    22    23   ar
    26    23    24   ar
    27    24    25   ar
    28    25    26   ar
    29    21    26   ar
    30    26    27    1
    31    27    28    2
    32    27    29    1
    33     3    30    1
    34     6    31    1
    35    11    32    1
    36    11    33    1
    37    12    34    1
    38    12    35    1
    39    13    36    1
    40    13    37    1
    41    14    38    1
    42    14    39    1
    43    15    40    1
    44    15    41    1
    45    16    42    1
    46    20    43    1
    47    22    44    1
    48    23    45    1
    49    24    46    1
    50    25    47    1
