@<TRIPOS>MOLECULE
*****
 65 69 0 0 0
SMALL
GASTEIGER

@<TRIPOS>ATOM
      1 O           0.8745   -0.0250    0.0230 O.2     1  UNL1       -0.2752
      2 C           2.0967   -0.0162   -0.0525 C.2     1  UNL1        0.2203
      3 N           2.7992   -0.0345   -1.2565 N.am    1  UNL1       -0.2852
      4 C           2.1422    0.0548   -2.5177 C.ar    1  UNL1        0.0341
      5 C           2.6031   -0.6492   -3.6224 C.ar    1  UNL1       -0.0404
      6 C           1.9558   -0.4844   -4.8635 C.ar    1  UNL1       -0.0593
      7 C           0.8279    0.3670   -5.0176 C.ar    1  UNL1       -0.0510
      8 C           0.3494    1.0941   -3.9277 C.ar    1  UNL1        0.0190
      9 C          -0.7132    2.1454   -3.8924 C.ar    1  UNL1        0.1393
     10 N          -0.6322    3.0742   -2.9585 N.ar    1  UNL1       -0.2277
     11 C          -1.6738    3.9194   -3.1102 C.ar    1  UNL1        0.0912
     12 C          -1.8810    5.1199   -2.4176 C.ar    1  UNL1       -0.0130
     13 C          -3.0872    5.8067   -2.5261 C.ar    1  UNL1        0.0355
     14 N          -3.2497    6.9705   -1.7128 N.am    1  UNL1       -0.2852
     15 C          -4.3963    7.7511   -1.6098 C.2     1  UNL1        0.2203
     16 O          -5.4423    7.5028   -2.1872 O.2     1  UNL1       -0.2752
     17 C          -4.3339    8.9567   -0.6321 C.3     1  UNL1        0.0359
     18 C          -3.0205    9.7444   -0.6964 C.3     1  UNL1       -0.0419
     19 C          -3.0563   11.0257    0.1393 C.3     1  UNL1       -0.0524
     20 C          -4.2244   11.9243   -0.2446 C.3     1  UNL1       -0.0530
     21 C          -5.5403   11.1716   -0.1189 C.3     1  UNL1       -0.0524
     22 C          -5.5250    9.8953   -0.9525 C.3     1  UNL1       -0.0419
     23 C          -4.0499    5.2729   -3.3908 C.ar    1  UNL1       -0.0384
     24 C          -3.8268    4.0949   -4.1768 C.ar    1  UNL1       -0.0345
     25 C          -2.5675    3.4593   -4.0608 C.ar    1  UNL1        0.0666
     26 N          -1.8135    2.4579   -4.7049 N.ar    1  UNL1       -0.3379
     27 C           1.0380    0.9014   -2.6955 C.ar    1  UNL1       -0.0298
     28 C           2.9381   -0.0503    1.2341 C.3     1  UNL1        0.0359
     29 C           2.6026    1.1941    2.0791 C.3     1  UNL1       -0.0419
     30 C           3.2337    1.1547    3.4712 C.3     1  UNL1       -0.0524
     31 C           2.8567   -0.1154    4.2254 C.3     1  UNL1       -0.0530
     32 C           3.2260   -1.3514    3.4133 C.3     1  UNL1       -0.0524
     33 C           2.5843   -1.3242    2.0263 C.3     1  UNL1       -0.0419
     34 H           3.7862   -0.2558   -1.2530 H       1  UNL1        0.1548
     35 H           3.4106   -1.3729   -3.5281 H       1  UNL1        0.0636
     36 H           2.3461   -1.0270   -5.7256 H       1  UNL1        0.0618
     37 H           0.3783    0.4488   -6.0019 H       1  UNL1        0.0625
     38 H          -1.0552    5.4597   -1.8102 H       1  UNL1        0.0658
     39 H          -2.4598    7.1999   -1.1230 H       1  UNL1        0.1548
     40 H          -4.4721    8.5673    0.3866 H       1  UNL1        0.0394
     41 H          -2.8020    9.9984   -1.7406 H       1  UNL1        0.0272
     42 H          -2.1890    9.1283   -0.3380 H       1  UNL1        0.0272
     43 H          -2.1155   11.5722    0.0111 H       1  UNL1        0.0265
     44 H          -3.1346   10.7671    1.2029 H       1  UNL1        0.0265
     45 H          -4.0964   12.2780   -1.2754 H       1  UNL1        0.0265
     46 H          -4.2418   12.8115    0.3984 H       1  UNL1        0.0265
     47 H          -6.3662   11.8157   -0.4439 H       1  UNL1        0.0265
     48 H          -5.7251   10.9208    0.9323 H       1  UNL1        0.0265
     49 H          -5.4871   10.1718   -2.0154 H       1  UNL1        0.0272
     50 H          -6.4758    9.3684   -0.8052 H       1  UNL1        0.0272
     51 H          -5.0128    5.7718   -3.4921 H       1  UNL1        0.0637
     52 H          -4.6538    3.7194   -4.7773 H       1  UNL1        0.0639
     53 H          -1.9025    2.1896   -5.6761 H       1  UNL1        0.1674
     54 H           0.7163    1.4934   -1.8388 H       1  UNL1        0.0643
     55 H           4.0097   -0.0537    1.0009 H       1  UNL1        0.0394
     56 H           1.5138    1.2823    2.1965 H       1  UNL1        0.0272
     57 H           2.9284    2.0997    1.5548 H       1  UNL1        0.0272
     58 H           2.9138    2.0304    4.0479 H       1  UNL1        0.0265
     59 H           4.3248    1.2116    3.3801 H       1  UNL1        0.0265
     60 H           1.7797   -0.1167    4.4373 H       1  UNL1        0.0265
     61 H           3.3695   -0.1393    5.1942 H       1  UNL1        0.0265
     62 H           2.9082   -2.2515    3.9521 H       1  UNL1        0.0265
     63 H           4.3161   -1.4060    3.3106 H       1  UNL1        0.0265
     64 H           1.4948   -1.3976    2.1486 H       1  UNL1        0.0272
     65 H           2.8896   -2.2127    1.4622 H       1  UNL1        0.0272
@<TRIPOS>BOND
     1     1     2    2
     2     2     3   am
     3     3     4    1
     4     4     5   ar
     5     5     6   ar
     6     6     7   ar
     7     7     8   ar
     8     8     9    1
     9     9    10   ar
    10    10    11   ar
    11    11    12   ar
    12    12    13   ar
    13    13    14    1
    14    14    15   am
    15    15    16    2
    16    15    17    1
    17    17    18    1
    18    18    19    1
    19    19    20    1
    20    20    21    1
    21    21    22    1
    22    17    22    1
    23    13    23   ar
    24    23    24   ar
    25    24    25   ar
    26    11    25   ar
    27    25    26   ar
    28     9    26   ar
    29     8    27   ar
    30     4    27   ar
    31     2    28    1
    32    28    29    1
    33    29    30    1
    34    30    31    1
    35    31    32    1
    36    32    33    1
    37    28    33    1
    38     3    34    1
    39     5    35    1
    40     6    36    1
    41     7    37    1
    42    12    38    1
    43    14    39    1
    44    17    40    1
    45    18    41    1
    46    18    42    1
    47    19    43    1
    48    19    44    1
    49    20    45    1
    50    20    46    1
    51    21    47    1
    52    21    48    1
    53    22    49    1
    54    22    50    1
    55    23    51    1
    56    24    52    1
    57    26    53    1
    58    27    54    1
    59    28    55    1
    60    29    56    1
    61    29    57    1
    62    30    58    1
    63    30    59    1
    64    31    60    1
    65    31    61    1
    66    32    62    1
    67    32    63    1
    68    33    64    1
    69    33    65    1
