REMARK  5 active torsions:
REMARK  status: ('A' for Active; 'I' for Inactive)
REMARK    1  A    between atoms: C_2  and  C_4 
REMARK    2  A    between atoms: C_4  and  C_5 
REMARK    3  A    between atoms: C_5  and  C_6 
REMARK       I    between atoms: C_6  and  N_8 
REMARK    4  A    between atoms: N_8  and  N_9 
REMARK       I    between atoms: N_9  and  C_10 
REMARK    5  A    between atoms: C_12  and  C_10 
ROOT
ATOM      1  C   UNL d   1      10.892   0.563  -3.719  0.00  0.00     0.236 C 
ATOM      2  O   UNL d   1      10.154   0.267  -2.780  0.00  0.00    -0.272 OA
ATOM      3  N   UNL d   1      10.900   1.841  -4.280  0.00  0.00    -0.268 N 
ATOM      4  H   UNL d   1      11.483   2.114  -5.067  0.00  0.00     0.190 HD
ENDROOT
BRANCH   3   5
ATOM      5  N   UNL d   1      10.023   2.830  -3.742  0.00  0.00    -0.267 N 
ATOM      6  C   UNL d   1       9.953   4.136  -4.243  0.00  0.00     0.240 C 
ATOM      7  O   UNL d   1      10.652   4.551  -5.166  0.00  0.00    -0.271 OA
ATOM      8  H   UNL d   1       9.443   2.506  -2.969  0.00  0.00     0.190 HD
BRANCH   6   9
ATOM      9  C   UNL d   1       8.939   5.006  -3.538  0.00  0.00     0.083 A 
ATOM     10  C   UNL d   1       9.201   6.433  -3.083  0.00  0.00     0.019 A 
ATOM     11  C   UNL d   1       8.115   6.170  -4.094  0.00  0.00    -0.005 A 
ATOM     12  C   UNL d   1       8.139   6.818  -5.438  0.00  0.00     0.011 C 
ENDBRANCH   6   9
ENDBRANCH   3   5
BRANCH   1  13
ATOM     13  C   UNL d   1      11.854  -0.441  -4.364  0.00  0.00     0.105 C 
BRANCH  13  14
ATOM     14  C   UNL d   1      11.793  -1.841  -3.713  0.00  0.00     0.013 C 
BRANCH  14  15
ATOM     15  C   UNL d   1      12.745  -2.877  -4.353  0.00  0.00    -0.022 C 
ATOM     16  C   UNL d   1      12.646  -4.223  -3.623  0.00  0.00     0.009 C 
ATOM     17  C   UNL d   1      12.430  -3.090  -5.833  0.00  0.00     0.009 C 
ENDBRANCH  14  15
ENDBRANCH  13  14
ENDBRANCH   1  13
TORSDOF 5
