@<TRIPOS>MOLECULE
*****
 31 31 0 0 0
SMALL
GASTEIGER

@<TRIPOS>ATOM
      1 C           1.0700   -0.0363    0.0868 C.3     1  UNL1       -0.0465
      2 C           2.5731   -0.0041    0.0974 C.2     1  UNL1       -0.0871
      3 C           3.2936    1.0771    0.4518 C.2     1  UNL1       -0.0658
      4 C           4.7531    1.1257    0.4681 C.2     1  UNL1       -0.0571
      5 C           5.4864    2.2048    0.8222 C.2     1  UNL1        0.0016
      6 C           6.9943    2.1750    0.8083 C.2     1  UNL1        0.2530
      7 O           7.6182    1.1679    0.4749 O.2     1  UNL1       -0.2693
      8 N           7.6325    3.3497    1.1898 N.am    1  UNL1       -0.2306
      9 N           9.0684    3.4097    1.1611 N.am    1  UNL1       -0.2301
     10 C           9.7317    4.5529    1.5986 C.2     1  UNL1        0.2601
     11 O           9.1396    5.5589    1.9939 O.2     1  UNL1       -0.2687
     12 C          11.2369    4.5306    1.5978 C.ar    1  UNL1        0.0382
     13 C          11.9628    3.9960    0.5242 C.ar    1  UNL1       -0.0482
     14 C          13.3692    4.0087    0.5364 C.ar    1  UNL1       -0.0427
     15 C          14.0593    4.5547    1.6183 C.ar    1  UNL1        0.0410
     16 CL         15.7815    4.5312    1.6406 Cl      1  UNL1       -0.0835
     17 C          13.3545    5.1189    2.6784 C.ar    1  UNL1       -0.0427
     18 C          11.9481    5.1174    2.6624 C.ar    1  UNL1       -0.0482
     19 H           0.7084   -1.0205   -0.2354 H       1  UNL1        0.0272
     20 H           0.6626    0.7030   -0.6103 H       1  UNL1        0.0272
     21 H           0.6626    0.1476    1.0861 H       1  UNL1        0.0272
     22 H           3.0642   -0.9274   -0.2048 H       1  UNL1        0.0569
     23 H           2.7573    1.9772    0.7463 H       1  UNL1        0.0614
     24 H           5.2611    0.2088    0.1670 H       1  UNL1        0.0619
     25 H           5.0041    3.1263    1.1236 H       1  UNL1        0.0670
     26 H           7.1561    4.2037    1.4731 H       1  UNL1        0.1731
     27 H           9.5421    2.5348    0.9405 H       1  UNL1        0.1731
     28 H          11.4519    3.5984   -0.3479 H       1  UNL1        0.0625
     29 H          13.9236    3.5976   -0.3049 H       1  UNL1        0.0632
     30 H          13.8931    5.5619    3.5147 H       1  UNL1        0.0632
     31 H          11.4149    5.5763    3.4932 H       1  UNL1        0.0625
@<TRIPOS>BOND
     1     1     2    1
     2     2     3    2
     3     3     4    1
     4     4     5    2
     5     5     6    1
     6     6     7    2
     7     6     8   am
     8     8     9    1
     9     9    10   am
    10    10    11    2
    11    10    12    1
    12    12    13   ar
    13    13    14   ar
    14    14    15   ar
    15    15    16    1
    16    15    17   ar
    17    17    18   ar
    18    12    18   ar
    19     1    19    1
    20     1    20    1
    21     1    21    1
    22     2    22    1
    23     3    23    1
    24     4    24    1
    25     5    25    1
    26     8    26    1
    27     9    27    1
    28    13    28    1
    29    14    29    1
    30    17    30    1
    31    18    31    1
