@<TRIPOS>MOLECULE
*****
 49 50 0 0 0
SMALL
GASTEIGER

@<TRIPOS>ATOM
      1 C           3.0926    1.3679   -0.0546 C.3     1  UNL1       -0.0380
      2 C           2.5857   -0.0633    0.1019 C.3     1  UNL1        0.0983
      3 N           1.1053   -0.0540   -0.0031 N.am    1  UNL1       -0.3003
      4 C           0.4238   -0.6554   -1.0449 C.2     1  UNL1        0.2447
      5 O           0.9869   -1.2101   -1.9870 O.2     1  UNL1       -0.2702
      6 C          -1.0719   -0.6421   -1.0018 C.ar    1  UNL1        0.0368
      7 C          -1.7945    0.5088   -0.6605 C.ar    1  UNL1       -0.0483
      8 C          -3.1990    0.4890   -0.6720 C.ar    1  UNL1       -0.0427
      9 C          -3.8824   -0.6763   -1.0221 C.ar    1  UNL1        0.0410
     10 CL         -5.6041   -0.7022   -1.0012 Cl      1  UNL1       -0.0835
     11 C          -3.1748   -1.8180   -1.3898 C.ar    1  UNL1       -0.0427
     12 C          -1.7728   -1.7970   -1.3893 C.ar    1  UNL1       -0.0483
     13 C           3.0863   -0.6862    1.4500 C.2     1  UNL1        0.2491
     14 O           2.3072   -1.0702    2.3266 O.2     1  UNL1       -0.2723
     15 N           4.4656   -0.7754    1.6184 N.am    1  UNL1       -0.2329
     16 N           5.0036   -1.3231    2.8233 N.am    1  UNL1       -0.2344
     17 C           6.3814   -1.3568    2.9781 C.2     1  UNL1        0.2293
     18 O           7.1243   -0.8961    2.1107 O.2     1  UNL1       -0.2743
     19 C           6.8991   -1.9897    4.2825 C.3     1  UNL1        0.0282
     20 C           8.4488   -2.0492    4.3471 C.3     1  UNL1       -0.0327
     21 C           8.9624   -2.4306    5.7527 C.3     1  UNL1       -0.0498
     22 C          10.4903   -2.5631    5.7932 C.3     1  UNL1       -0.0528
     23 C          10.9997   -3.5455    4.7440 C.3     1  UNL1       -0.0530
     24 C          10.5178   -3.1482    3.3564 C.3     1  UNL1       -0.0528
     25 C           8.9975   -3.0455    3.3088 C.3     1  UNL1       -0.0498
     26 H           4.1860    1.4103   -0.0660 H       1  UNL1        0.0252
     27 H           2.7427    1.9977    0.7712 H       1  UNL1        0.0252
     28 H           2.7297    1.8143   -0.9878 H       1  UNL1        0.0252
     29 H           2.9896   -0.6763   -0.7125 H       1  UNL1        0.0592
     30 H           0.5894    0.2542    0.8130 H       1  UNL1        0.1498
     31 H          -1.2816    1.4359   -0.4223 H       1  UNL1        0.0625
     32 H          -3.7577    1.3869   -0.4167 H       1  UNL1        0.0632
     33 H          -3.7054   -2.7221   -1.6812 H       1  UNL1        0.0632
     34 H          -1.2280   -2.6890   -1.6929 H       1  UNL1        0.0625
     35 H           5.1550   -0.4706    0.9300 H       1  UNL1        0.1728
     36 H           4.3363   -1.6581    3.5152 H       1  UNL1        0.1728
     37 H           6.4887   -3.0021    4.3845 H       1  UNL1        0.0361
     38 H           6.5237   -1.3933    5.1232 H       1  UNL1        0.0361
     39 H           8.8441   -1.0503    4.1153 H       1  UNL1        0.0305
     40 H           8.5168   -3.3825    6.0677 H       1  UNL1        0.0268
     41 H           8.6550   -1.6752    6.4855 H       1  UNL1        0.0268
     42 H          10.8119   -2.8920    6.7881 H       1  UNL1        0.0265
     43 H          10.9480   -1.5809    5.6198 H       1  UNL1        0.0265
     44 H          10.6456   -4.5563    4.9819 H       1  UNL1        0.0265
     45 H          12.0950   -3.5776    4.7592 H       1  UNL1        0.0265
     46 H          10.8580   -3.8828    2.6185 H       1  UNL1        0.0265
     47 H          10.9582   -2.1829    3.0770 H       1  UNL1        0.0265
     48 H           8.5604   -4.0364    3.4851 H       1  UNL1        0.0268
     49 H           8.7092   -2.7497    2.2964 H       1  UNL1        0.0268
@<TRIPOS>BOND
     1     3     4   am
     2     4     5    2
     3     4     6    1
     4     6     7   ar
     5     7     8   ar
     6     8     9   ar
     7     9    10    1
     8     9    11   ar
     9    11    12   ar
    10     6    12   ar
    11     2    13    1
    12    13    14    2
    13    13    15   am
    14    15    16    1
    15    16    17   am
    16    17    18    2
    17    17    19    1
    18    19    20    1
    19    20    21    1
    20    21    22    1
    21    22    23    1
    22    23    24    1
    23    24    25    1
    24    20    25    1
    25     2     3    1
    26     2     1    1
    27     1    26    1
    28     1    27    1
    29     1    28    1
    30     2    29    1
    31     3    30    1
    32     7    31    1
    33     8    32    1
    34    11    33    1
    35    12    34    1
    36    15    35    1
    37    16    36    1
    38    19    37    1
    39    19    38    1
    40    20    39    1
    41    21    40    1
    42    21    41    1
    43    22    42    1
    44    22    43    1
    45    23    44    1
    46    23    45    1
    47    24    46    1
    48    24    47    1
    49    25    48    1
    50    25    49    1
