REMARK  12 active torsions:
REMARK  status: ('A' for Active; 'I' for Inactive)
REMARK    1  A    between atoms: C_2  and  C_3 
REMARK       I    between atoms: C_2  and  N_23 
REMARK    2  A    between atoms: C_3  and  C_4 
REMARK    3  A    between atoms: C_4  and  C_5 
REMARK    4  A    between atoms: C_5  and  C_6 
REMARK    5  A    between atoms: C_6  and  C_7 
REMARK    6  A    between atoms: C_7  and  C_8 
REMARK    7  A    between atoms: C_8  and  C_9 
REMARK    8  A    between atoms: C_9  and  C_10 
REMARK       I    between atoms: C_10  and  N_12 
REMARK    9  A    between atoms: N_12  and  N_13 
REMARK       I    between atoms: N_13  and  C_14 
REMARK       I    between atoms: C_14  and  N_16 
REMARK   10  A    between atoms: N_16  and  C_17 
REMARK   11  A    between atoms: N_23  and  N_24 
REMARK       I    between atoms: N_24  and  C_25 
REMARK       I    between atoms: C_25  and  N_27 
REMARK   12  A    between atoms: N_27  and  C_28 
ROOT
ATOM      1  C   UNL d   1       1.924   2.293  -4.360  0.00  0.00     0.000 C 
ENDROOT
BRANCH   1   2
ATOM      2  C   UNL d   1       2.902   1.741  -3.321  0.00  0.00     0.000 C 
BRANCH   2   3
ATOM      3  C   UNL d   1       2.163   1.113  -2.137  0.00  0.00     0.009 C 
BRANCH   3   4
ATOM      4  C   UNL d   1       3.145   0.560  -1.096  0.00  0.00     0.104 C 
BRANCH   4   5
ATOM      5  C   UNL d   1       2.435  -0.070   0.088  0.00  0.00     0.236 C 
ATOM      6  O   UNL d   1       1.206  -0.110   0.168  0.00  0.00    -0.272 OA
ATOM      7  N   UNL d   1       3.206  -0.608   1.091  0.00  0.00    -0.266 N 
ATOM      8  H   UNL d   1       2.713  -1.024   1.886  0.00  0.00     0.190 HD
BRANCH   7   9
ATOM      9  N   UNL d   1       4.618  -0.629   1.166  0.00  0.00    -0.249 N 
ATOM     10  C   UNL d   1       5.192  -1.238   2.278  0.00  0.00     0.339 C 
ATOM     11  O   UNL d   1       4.480  -1.737   3.159  0.00  0.00    -0.245 OA
ATOM     12  N   UNL d   1       6.576  -1.188   2.310  0.00  0.00    -0.308 N 
ATOM     13  H   UNL d   1       7.056  -0.582   1.660  0.00  0.00     0.170 HD
ATOM     14  H   UNL d   1       5.160  -0.248   0.403  0.00  0.00     0.192 HD
BRANCH  12  15
ATOM     15  C   UNL d   1       7.379  -1.805   3.311  0.00  0.00     0.036 A 
ATOM     16  C   UNL d   1       8.599  -1.231   3.696  0.00  0.00     0.029 A 
ATOM     17  C   UNL d   1       9.452  -1.896   4.594  0.00  0.00     0.002 A 
ATOM     18  C   UNL d   1       9.081  -3.125   5.135  0.00  0.00     0.000 A 
ATOM     19  C   UNL d   1       7.865  -3.694   4.769  0.00  0.00     0.002 A 
ATOM     20  C   UNL d   1       7.019  -3.035   3.870  0.00  0.00     0.029 A 
ENDBRANCH  12  15
ENDBRANCH   7   9
ENDBRANCH   4   5
ENDBRANCH   3   4
ENDBRANCH   2   3
ENDBRANCH   1   2
BRANCH   1  21
ATOM     21  C   UNL d   1       2.670   2.921  -5.544  0.00  0.00     0.000 C 
BRANCH  21  22
ATOM     22  C   UNL d   1       1.690   3.474  -6.585  0.00  0.00     0.009 C 
BRANCH  22  23
ATOM     23  C   UNL d   1       2.385   4.118  -7.799  0.00  0.00     0.104 C 
BRANCH  23  24
ATOM     24  C   UNL d   1       1.365   4.656  -8.816  0.00  0.00     0.236 C 
ATOM     25  O   UNL d   1       0.147   4.570  -8.647  0.00  0.00    -0.272 OA
ATOM     26  N   UNL d   1       1.895   5.250  -9.948  0.00  0.00    -0.266 N 
ATOM     27  H   UNL d   1       2.893   5.358 -10.132  0.00  0.00     0.190 HD
BRANCH  26  28
ATOM     28  N   UNL d   1       1.015   5.797 -10.944  0.00  0.00    -0.249 N 
ATOM     29  C   UNL d   1       1.578   6.383 -12.067  0.00  0.00     0.339 C 
ATOM     30  O   UNL d   1       2.807   6.423 -12.184  0.00  0.00    -0.245 OA
ATOM     31  N   UNL d   1       0.677   6.921 -12.983  0.00  0.00    -0.308 N 
ATOM     32  H   UNL d   1      -0.283   7.070 -12.706  0.00  0.00     0.170 HD
ATOM     33  H   UNL d   1       0.019   5.687 -10.772  0.00  0.00     0.192 HD
BRANCH  31  34
ATOM     34  C   UNL d   1       1.111   7.521 -14.203  0.00  0.00     0.036 A 
ATOM     35  C   UNL d   1       0.541   8.702 -14.704  0.00  0.00     0.029 A 
ATOM     36  C   UNL d   1       1.014   9.265 -15.907  0.00  0.00     0.002 A 
ATOM     37  C   UNL d   1       2.058   8.661 -16.608  0.00  0.00     0.000 A 
ATOM     38  C   UNL d   1       2.595   7.469 -16.139  0.00  0.00     0.002 A 
ATOM     39  C   UNL d   1       2.121   6.907 -14.951  0.00  0.00     0.029 A 
ENDBRANCH  31  34
ENDBRANCH  26  28
ENDBRANCH  23  24
ENDBRANCH  22  23
ENDBRANCH  21  22
ENDBRANCH   1  21
TORSDOF 12
