@<TRIPOS>MOLECULE
*****
 55 57 0 0 0
SMALL
GASTEIGER

@<TRIPOS>ATOM
      1 C           1.2194   -0.5171    0.2646 C.3     1  UNL1        0.0790
      2 O           2.5634   -0.0965    0.0217 O.3     1  UNL1       -0.4915
      3 C           3.0418    0.0945   -1.2570 C.ar    1  UNL1        0.1615
      4 C           4.2007   -0.6528   -1.5275 C.ar    1  UNL1       -0.0156
      5 C           4.9819   -0.3968   -2.6678 C.ar    1  UNL1       -0.0459
      6 C           4.5958    0.5596   -3.6286 C.ar    1  UNL1        0.0408
      7 C           5.4088    0.6697   -4.8777 C.2     1  UNL1        0.2496
      8 O           6.3550   -0.1119   -4.9064 O.2     1  UNL1       -0.2698
      9 N           5.0700    1.5533   -5.9388 N.am    1  UNL1       -0.2636
     10 C           5.8261    1.7119   -7.1299 C.2     1  UNL1        0.1411
     11 S           7.3026    0.9172   -7.3821 S.2     1  UNL1       -0.0182
     12 N           5.2763    2.6331   -8.0679 N.am    1  UNL1       -0.2966
     13 C           5.8155    2.8224   -9.3934 C.ar    1  UNL1        0.0327
     14 C           6.0366    4.0750   -9.9847 C.ar    1  UNL1       -0.0388
     15 C           6.6262    4.1733  -11.2850 C.ar    1  UNL1       -0.0387
     16 C           7.0434    3.0249  -11.9814 C.ar    1  UNL1        0.0338
     17 N           7.7394    3.1053  -13.2261 N.am    1  UNL1       -0.2815
     18 C           8.2043    1.9873  -13.9368 C.2     1  UNL1        0.2483
     19 O           8.0806    0.8164  -13.6314 O.2     1  UNL1       -0.2699
     20 C           8.9426    2.2128  -15.2022 C.ar    1  UNL1        0.0373
     21 C           8.7251    1.3006  -16.2500 C.ar    1  UNL1       -0.0496
     22 C           9.5504    1.3042  -17.3725 C.ar    1  UNL1       -0.0608
     23 C          10.5617    2.2545  -17.4784 C.ar    1  UNL1       -0.0588
     24 C          10.7912    3.1653  -16.4368 C.ar    1  UNL1       -0.0497
     25 C          11.9427    4.1212  -16.5071 C.3     1  UNL1       -0.0397
     26 C           9.9795    3.1388  -15.2911 C.ar    1  UNL1       -0.0467
     27 C           6.7612    1.8013  -11.3916 C.ar    1  UNL1       -0.0387
     28 C           6.1345    1.7040  -10.1536 C.ar    1  UNL1       -0.0388
     29 C           3.4675    1.3111   -3.3609 C.ar    1  UNL1       -0.0042
     30 C           2.6991    1.1065   -2.1873 C.ar    1  UNL1        0.1622
     31 O           1.7135    2.0640   -2.1630 O.3     1  UNL1       -0.4914
     32 C           0.7489    1.9036   -1.1652 C.3     1  UNL1        0.0790
     33 H           1.1520   -0.9716    1.2572 H       1  UNL1        0.0660
     34 H           0.8258   -1.1899   -0.5007 H       1  UNL1        0.0660
     35 H           0.5437    0.3234    0.4154 H       1  UNL1        0.0660
     36 H           4.5321   -1.4332   -0.8414 H       1  UNL1        0.0655
     37 H           5.9138   -0.9538   -2.7954 H       1  UNL1        0.0626
     38 H           4.2367    2.1109   -5.8422 H       1  UNL1        0.1568
     39 H           4.5975    3.3234   -7.7731 H       1  UNL1        0.1538
     40 H           5.8440    4.9936   -9.4345 H       1  UNL1        0.0637
     41 H           6.7636    5.1606  -11.7226 H       1  UNL1        0.0637
     42 H           7.9150    4.0250  -13.6052 H       1  UNL1        0.1551
     43 H           7.9351    0.5554  -16.1704 H       1  UNL1        0.0625
     44 H           9.4278    0.5480  -18.1444 H       1  UNL1        0.0618
     45 H          11.1860    2.2639  -18.3699 H       1  UNL1        0.0620
     46 H          12.4828    4.0284  -17.4547 H       1  UNL1        0.0278
     47 H          12.6473    3.9116  -15.6959 H       1  UNL1        0.0278
     48 H          11.5781    5.1485  -16.4199 H       1  UNL1        0.0278
     49 H          10.2087    3.7892  -14.4517 H       1  UNL1        0.0628
     50 H           7.0186    0.8542  -11.8450 H       1  UNL1        0.0637
     51 H           5.9397    0.6998   -9.7907 H       1  UNL1        0.0637
     52 H           3.1573    2.1057   -4.0289 H       1  UNL1        0.0663
     53 H          -0.0233    2.6711   -1.1916 H       1  UNL1        0.0660
     54 H           1.2465    2.0080   -0.1963 H       1  UNL1        0.0660
     55 H           0.2276    0.9623   -1.3669 H       1  UNL1        0.0660
@<TRIPOS>BOND
     1     1     2    1
     2     2     3    1
     3     3     4   ar
     4     4     5   ar
     5     5     6   ar
     6     6     7    1
     7     7     8    2
     8     7     9   am
     9     9    10    1
    10    10    11    2
    11    10    12    1
    12    12    13    1
    13    13    14   ar
    14    14    15   ar
    15    15    16   ar
    16    16    17    1
    17    17    18   am
    18    18    19    2
    19    18    20    1
    20    20    21   ar
    21    21    22   ar
    22    22    23   ar
    23    23    24   ar
    24    24    25    1
    25    24    26   ar
    26    20    26   ar
    27    16    27   ar
    28    27    28   ar
    29    13    28   ar
    30     6    29   ar
    31    29    30   ar
    32     3    30   ar
    33    30    31    1
    34    31    32    1
    35     1    33    1
    36     1    34    1
    37     1    35    1
    38     4    36    1
    39     5    37    1
    40     9    38    1
    41    12    39    1
    42    14    40    1
    43    15    41    1
    44    17    42    1
    45    21    43    1
    46    22    44    1
    47    23    45    1
    48    25    46    1
    49    25    47    1
    50    25    48    1
    51    26    49    1
    52    27    50    1
    53    28    51    1
    54    29    52    1
    55    32    53    1
    56    32    54    1
    57    32    55    1
