REMARK  6 active torsions:
REMARK  status: ('A' for Active; 'I' for Inactive)
REMARK    1  A    between atoms: N_1  and  C_2 
REMARK    2  A    between atoms: C_7  and  N_8 
REMARK       I    between atoms: N_8  and  C_9 
REMARK    3  A    between atoms: C_9  and  C_11 
REMARK    4  A    between atoms: C_14  and  C_15 
REMARK    5  A    between atoms: C_15  and  S_16 
REMARK    6  A    between atoms: S_16  and  C_17 
ROOT
ATOM      1  C   UNL d   1       3.053   3.911  -0.220  0.00  0.00     0.032 A 
ATOM      2  C   UNL d   1       4.233   4.049  -0.983  0.00  0.00     0.017 A 
ATOM      3  C   UNL d   1       5.053   5.163  -0.833  0.00  0.00     0.009 A 
ATOM      4  C   UNL d   1       4.654   6.193   0.025  0.00  0.00    -0.049 A 
ATOM      5  C   UNL d   1       3.493   5.994   0.813  0.00  0.00     0.009 A 
ATOM      6  C   UNL d   1       2.693   4.868   0.704  0.00  0.00     0.017 A 
ENDROOT
BRANCH   1   7
ATOM      7  C   UNL d   1       2.451   2.589  -0.155  0.00  0.00     0.256 C 
ATOM      8  N   UNL d   1       1.079   2.421  -0.063  0.00  0.00    -0.321 N 
ATOM      9  H   UNL d   1       0.508   3.260  -0.083  0.00  0.00     0.169 HD
ATOM     10  O   UNL d   1       3.343   1.733  -0.148  0.00  0.00    -0.267 OA
BRANCH   8  11
ATOM     11  C   UNL d   1       0.356   1.171  -0.015  0.00  0.00     0.061 A 
ATOM     12  C   UNL d   1      -1.057   1.228   0.001  0.00  0.00     0.032 A 
ATOM     13  C   UNL d   1      -1.835   0.054   0.004  0.00  0.00     0.002 A 
ATOM     14  C   UNL d   1      -1.226  -1.194  -0.005  0.00  0.00     0.002 A 
ATOM     15  C   UNL d   1       0.155  -1.266  -0.002  0.00  0.00     0.031 A 
ATOM     16  C   UNL d   1       0.953  -0.116  -0.005  0.00  0.00     0.052 A 
BRANCH  16  17
ATOM     17  N   UNL d   1       2.306  -0.359   0.071  0.00  0.00    -0.397 N 
ATOM     18  H   UNL d   1       2.745  -1.255   0.004  0.00  0.00     0.156 HD
ATOM     19  H   UNL d   1       2.935   0.437   0.063  0.00  0.00     0.156 HD
ENDBRANCH  16  17
ENDBRANCH   8  11
ENDBRANCH   1   7
BRANCH   4  20
ATOM     20  C   UNL d   1       5.438   7.503   0.044  0.00  0.00     0.119 C 
BRANCH  20  21
ATOM     21  S   UNL d   1       4.650   8.718   1.170  0.00  0.00    -0.106 SA
BRANCH  21  22
ATOM     22  C   UNL d   1       5.551  10.205   0.943  0.00  0.00     0.093 A 
ATOM     23  C   UNL d   1       4.824  11.389   1.036  0.00  0.00     0.039 A 
ATOM     24  C   UNL d   1       5.502  12.597   0.993  0.00  0.00     0.004 A 
ATOM     25  C   UNL d   1       6.885  12.580   0.887  0.00  0.00     0.019 A 
ATOM     26  C   UNL d   1       7.529  11.351   0.827  0.00  0.00     0.118 A 
ATOM     27  N   UNL d   1       6.893  10.159   0.842  0.00  0.00    -0.254 NA
ENDBRANCH  21  22
ENDBRANCH  20  21
ENDBRANCH   4  20
TORSDOF 6
