REMARK  6 active torsions:
REMARK  status: ('A' for Active; 'I' for Inactive)
REMARK    1  A    between atoms: C_2  and  C_20 
REMARK    2  A    between atoms: C_2  and  N_3 
REMARK    3  A    between atoms: N_3  and  C_4 
REMARK    4  A    between atoms: C_7  and  O_8 
REMARK    5  A    between atoms: O_8  and  C_9 
REMARK    6  A    between atoms: C_9  and  C_10 
REMARK       I    between atoms: C_20  and  N_22 
REMARK       I    between atoms: N_22  and  C_23 
REMARK       I    between atoms: C_23  and  N_24 
ROOT
ATOM      1  C   UNL d   1       0.266   1.056  -0.833  0.00  0.00     0.031 C 
ATOM      2  C   UNL d   1       0.850   2.133  -1.503  0.00  0.00     0.032 C 
ATOM      3  C   UNL d   1       0.144   3.014  -2.312  0.00  0.00     0.042 C 
ATOM      4  C   UNL d   1      -1.231   2.941  -2.348  0.00  0.00     0.107 C 
ATOM      5  C   UNL d   1      -1.859   1.921  -1.622  0.00  0.00     0.151 C 
ATOM      6  F   UNL d   1      -3.196   1.823  -1.577  0.00  0.00    -0.203 F 
ATOM      7  C   UNL d   1      -1.124   0.966  -0.908  0.00  0.00     0.074 C 
ENDROOT
BRANCH   1   8
ATOM      8  N   UNL d   1       1.012   0.034  -0.241  0.00  0.00    -0.377 N 
ATOM      9  H   UNL d   1       0.531  -0.397   0.550  0.00  0.00     0.160 HD
BRANCH   8  10
ATOM     10  C   UNL d   1       2.490   0.105  -0.064  0.00  0.00     0.170 C 
ATOM     11  C   UNL d   1       3.203   0.214  -1.419  0.00  0.00     0.042 C 
BRANCH  10  12
ATOM     12  C   UNL d   1       2.891   1.164   1.006  0.00  0.00     0.247 C 
ATOM     13  O   UNL d   1       2.042   1.745   1.692  0.00  0.00    -0.271 OA
ATOM     14  N   UNL d   1       4.250   1.349   1.222  0.00  0.00    -0.278 N 
ATOM     15  C   UNL d   1       4.838   2.232   2.097  0.00  0.00     0.320 C 
ATOM     16  H   UNL d   1       4.933   0.817   0.703  0.00  0.00     0.173 HD
ATOM     17  N   UNL d   1       4.003   2.995   2.838  0.00  0.00    -0.352 N 
ATOM     18  O   UNL d   1       6.051   2.327   2.194  0.00  0.00    -0.247 OA
ATOM     19  H   UNL d   1       2.996   2.883   2.746  0.00  0.00     0.160 HD
ATOM     20  H   UNL d   1       4.366   3.661   3.503  0.00  0.00     0.160 HD
ENDBRANCH  10  12
ENDBRANCH   8  10
ENDBRANCH   1   8
BRANCH   4  21
ATOM     21  O   UNL d   1      -1.808   3.939  -3.082  0.00  0.00    -0.344 OA
BRANCH  21  22
ATOM     22  C   UNL d   1      -3.224   3.958  -3.031  0.00  0.00     0.214 C 
BRANCH  22  23
ATOM     23  C   UNL d   1      -3.747   5.139  -3.796  0.00  0.00    -0.031 A 
ATOM     24  C   UNL d   1      -4.321   6.213  -3.101  0.00  0.00     0.009 A 
ATOM     25  C   UNL d   1      -4.930   7.257  -3.793  0.00  0.00     0.004 A 
ATOM     26  C   UNL d   1      -4.954   7.241  -5.186  0.00  0.00     0.042 A 
ATOM     27  C   UNL d   1      -4.343   6.199  -5.875  0.00  0.00     0.117 A 
ATOM     28  F   UNL d   1      -4.368   6.191  -7.215  0.00  0.00    -0.206 F 
ATOM     29  C   UNL d   1      -3.730   5.153  -5.196  0.00  0.00     0.051 A 
ENDBRANCH  22  23
ENDBRANCH  21  22
ENDBRANCH   4  21
TORSDOF 6
