REMARK  10 active torsions:
REMARK  status: ('A' for Active; 'I' for Inactive)
REMARK    1  A    between atoms: C_2  and  C_3 
REMARK    2  A    between atoms: C_3  and  C_4 
REMARK    3  A    between atoms: C_4  and  O_5 
REMARK    4  A    between atoms: O_5  and  C_6 
REMARK    5  A    between atoms: C_11  and  N_12 
REMARK       I    between atoms: N_12  and  C_13 
REMARK    6  A    between atoms: C_13  and  C_15 
REMARK    7  A    between atoms: C_15  and  N_16 
REMARK    8  A    between atoms: N_16  and  C_17 
REMARK    9  A    between atoms: C_22  and  C_23 
REMARK       I    between atoms: C_23  and  N_25 
REMARK   10  A    between atoms: N_25  and  C_26 
ROOT
ATOM      1  N   UNL d   1       3.405   2.539   0.011  0.00  0.00    -0.381 N 
ATOM      2  H   UNL d   1       2.953   2.106   0.817  0.00  0.00     0.160 HD
ENDROOT
BRANCH   1   3
ATOM      3  C   UNL d   1       4.856   2.692   0.140  0.00  0.00     0.223 C 
BRANCH   3   4
ATOM      4  C   UNL d   1       5.338   2.024   1.458  0.00  0.00     0.239 C 
ATOM      5  N   UNL d   1       6.641   1.534   1.440  0.00  0.00    -0.323 N 
ATOM      6  H   UNL d   1       7.338   2.101   0.974  0.00  0.00     0.169 HD
ATOM      7  O   UNL d   1       4.565   1.897   2.408  0.00  0.00    -0.271 OA
BRANCH   5   8
ATOM      8  C   UNL d   1       7.125   0.484   2.280  0.00  0.00     0.068 A 
ATOM      9  C   UNL d   1       8.495   0.517   2.625  0.00  0.00     0.032 A 
ATOM     10  C   UNL d   1       9.052  -0.420   3.512  0.00  0.00     0.002 A 
ATOM     11  C   UNL d   1       8.253  -1.411   4.063  0.00  0.00     0.003 A 
ATOM     12  C   UNL d   1       6.919  -1.508   3.667  0.00  0.00     0.039 A 
ATOM     13  C   UNL d   1       6.347  -0.584   2.769  0.00  0.00     0.095 A 
BRANCH  13  14
ATOM     14  O   UNL d   1       5.022  -0.833   2.528  0.00  0.00    -0.349 OA
BRANCH  14  15
ATOM     15  C   UNL d   1       4.549  -0.793   1.181  0.00  0.00     0.175 C 
BRANCH  15  16
ATOM     16  C   UNL d   1       3.034  -0.567   1.223  0.00  0.00     0.026 C 
BRANCH  16  17
ATOM     17  C   UNL d   1       2.457  -0.362  -0.175  0.00  0.00    -0.002 C 
ATOM     18  C   UNL d   1       0.966  -0.081  -0.115  0.00  0.00     0.005 C 
ENDBRANCH  16  17
ENDBRANCH  15  16
ENDBRANCH  14  15
ENDBRANCH  13  14
ENDBRANCH   5   8
ENDBRANCH   3   4
ENDBRANCH   1   3
BRANCH   1  19
ATOM     19  C   UNL d   1       2.583   3.078  -0.953  0.00  0.00     0.029 A 
ATOM     20  C   UNL d   1       1.276   3.415  -0.596  0.00  0.00     0.031 A 
ATOM     21  C   UNL d   1       0.433   4.074  -1.483  0.00  0.00     0.027 A 
ATOM     22  C   UNL d   1       0.897   4.447  -2.745  0.00  0.00     0.049 A 
ATOM     23 CL   UNL d   1      -0.170   5.495  -3.621  0.00  0.00    -0.083 Cl
ATOM     24  C   UNL d   1       2.172   4.033  -3.180  0.00  0.00     0.055 A 
ATOM     25  C   UNL d   1       2.998   3.345  -2.261  0.00  0.00     0.048 A 
BRANCH  24  26
ATOM     26  C   UNL d   1       2.646   4.308  -4.574  0.00  0.00     0.253 C 
ATOM     27  O   UNL d   1       1.936   4.932  -5.373  0.00  0.00    -0.268 OA
ATOM     28  N   UNL d   1       3.890   3.849  -4.976  0.00  0.00    -0.352 N 
ATOM     29  H   UNL d   1       4.486   3.311  -4.367  0.00  0.00     0.163 HD
BRANCH  28  30
ATOM     30  C   UNL d   1       4.390   4.160  -6.311  0.00  0.00     0.084 C 
ATOM     31  C   UNL d   1       4.676   5.665  -6.444  0.00  0.00     0.025 C 
ATOM     32  C   UNL d   1       5.224   6.018  -7.820  0.00  0.00     0.002 C 
ATOM     33  C   UNL d   1       6.470   5.205  -8.144  0.00  0.00     0.000 C 
ATOM     34  C   UNL d   1       6.191   3.709  -8.028  0.00  0.00     0.002 C 
ATOM     35  C   UNL d   1       5.646   3.345  -6.647  0.00  0.00     0.025 C 
ENDBRANCH  28  30
ENDBRANCH  24  26
ENDBRANCH   1  19
TORSDOF 10
