@<TRIPOS>MOLECULE
*****
 44 45 0 0 0
SMALL
GASTEIGER

@<TRIPOS>ATOM
      1 C           1.0154   -0.0941   -0.0432 C.3     1  UNL1       -0.0306
      2 C           2.5368   -0.1092   -0.0244 C.3     1  UNL1        0.0900
      3 O           3.0231   -1.1297    0.8746 O.3     1  UNL1       -0.4614
      4 C           4.3793   -1.1578    0.9970 C.2     1  UNL1        0.3392
      5 O           5.1618   -0.4077    0.4145 O.2     1  UNL1       -0.2450
      6 C           4.8691   -2.2506    1.8817 C.ar    1  UNL1        0.0591
      7 C           6.0677   -2.1412    2.6070 C.ar    1  UNL1       -0.0460
      8 C           6.6753   -3.2837    3.2266 C.ar    1  UNL1       -0.0397
      9 C           6.0589   -4.5540    3.1879 C.ar    1  UNL1        0.0326
     10 N           6.6044   -5.7312    3.8847 N.am    1  UNL1       -0.2958
     11 C           6.0396   -7.0383    4.0129 C.2     1  UNL1        0.1510
     12 S           4.5961   -7.6180    3.3423 S.2     1  UNL1       -0.0171
     13 N           6.7740   -7.9728    4.7917 N.am    1  UNL1       -0.2453
     14 N           6.2007   -9.3619    4.9275 N.am    1  UNL1       -0.2298
     15 C           6.7277  -10.3859    5.7311 C.2     1  UNL1        0.2792
     16 O           7.7559  -10.1755    6.3737 O.2     1  UNL1       -0.2670
     17 C           6.0183  -11.7001    5.7472 C.ar    1  UNL1        0.1386
     18 C           5.7897  -12.6300    6.7725 C.ar    1  UNL1        0.0706
     19 BR          6.2027  -12.4618    8.5973 Br      1  UNL1       -0.0460
     20 C           5.1419  -13.7796    6.2177 C.ar    1  UNL1        0.0746
     21 C           4.6339  -15.0736    6.8083 C.3     1  UNL1       -0.0195
     22 N           4.9861  -13.5927    4.9038 N.ar    1  UNL1       -0.1749
     23 N           5.5130  -12.3741    4.6514 N.ar    1  UNL1       -0.2609
     24 C           5.5422  -11.9490    3.2725 C.3     1  UNL1        0.0311
     25 C           4.8766   -4.5936    2.4420 C.ar    1  UNL1       -0.0397
     26 C           4.2662   -3.4896    1.8281 C.ar    1  UNL1       -0.0460
     27 H           0.6412    0.6843   -0.7185 H       1  UNL1        0.0262
     28 H           0.6139    0.0963    0.9570 H       1  UNL1        0.0262
     29 H           0.6164   -1.0577   -0.3753 H       1  UNL1        0.0262
     30 H           2.8967    0.8729    0.3035 H       1  UNL1        0.0695
     31 H           2.9033   -0.3088   -1.0386 H       1  UNL1        0.0695
     32 H           6.5428   -1.1609    2.6748 H       1  UNL1        0.0626
     33 H           7.6490   -3.1277    3.6905 H       1  UNL1        0.0636
     34 H           7.4642   -5.5400    4.3927 H       1  UNL1        0.1539
     35 H           7.6272   -7.7905    5.3169 H       1  UNL1        0.1718
     36 H           5.2887   -9.4429    4.4822 H       1  UNL1        0.1731
     37 H           4.7712  -15.1611    7.8905 H       1  UNL1        0.0293
     38 H           5.1252  -15.9448    6.3507 H       1  UNL1        0.0293
     39 H           3.5592  -15.2000    6.6116 H       1  UNL1        0.0293
     40 H           5.0967  -12.7234    2.6417 H       1  UNL1        0.0473
     41 H           6.5810  -11.7818    2.9834 H       1  UNL1        0.0473
     42 H           4.9455  -11.0425    3.1871 H       1  UNL1        0.0473
     43 H           4.3608   -5.5075    2.2293 H       1  UNL1        0.0636
     44 H           3.3512   -3.6581    1.2668 H       1  UNL1        0.0626
@<TRIPOS>BOND
     1     1     2    1
     2     2     3    1
     3     3     4    1
     4     4     5    2
     5     4     6    1
     6     6     7   ar
     7     7     8   ar
     8     8     9   ar
     9     9    10    1
    10    10    11    1
    11    11    12    2
    12    11    13    1
    13    13    14    1
    14    14    15   am
    15    15    16    2
    16    15    17    1
    17    17    18   ar
    18    18    19    1
    19    18    20   ar
    20    20    21    1
    21    20    22   ar
    22    22    23   ar
    23    17    23   ar
    24    23    24    1
    25     9    25   ar
    26    25    26   ar
    27     6    26   ar
    28     1    27    1
    29     1    28    1
    30     1    29    1
    31     2    30    1
    32     2    31    1
    33     7    32    1
    34     8    33    1
    35    10    34    1
    36    13    35    1
    37    14    36    1
    38    21    37    1
    39    21    38    1
    40    21    39    1
    41    24    40    1
    42    24    41    1
    43    24    42    1
    44    25    43    1
    45    26    44    1
