REMARK  5 active torsions:
REMARK  status: ('A' for Active; 'I' for Inactive)
REMARK    1  A    between atoms: C_5  and  N_6 
REMARK       I    between atoms: N_6  and  C_7 
REMARK       I    between atoms: C_7  and  N_9 
REMARK       I    between atoms: N_9  and  C_10 
REMARK    2  A    between atoms: C_10  and  C_12 
REMARK    3  A    between atoms: C_12  and  S_14 
REMARK    4  A    between atoms: S_14  and  C_15 
REMARK    5  A    between atoms: C_20  and  C_21 
REMARK       I    between atoms: C_21  and  N_22 
ROOT
ATOM      1  N   UNL d   1      -2.444  -1.962  -0.013  0.00  0.00    -0.308 N 
ATOM      2  C   UNL d   1      -2.428  -3.353  -0.027  0.00  0.00     0.327 C 
ATOM      3  O   UNL d   1      -1.383  -3.996  -0.039  0.00  0.00    -0.247 OA
ATOM      4  N   UNL d   1      -3.647  -4.000  -0.026  0.00  0.00    -0.278 N 
ATOM      5  C   UNL d   1      -3.665  -5.397  -0.047  0.00  0.00     0.239 C 
ATOM      6  O   UNL d   1      -2.633  -6.071  -0.011  0.00  0.00    -0.272 OA
ATOM      7  H   UNL d   1      -3.329  -1.484  -0.017  0.00  0.00     0.170 HD
ATOM      8  H   UNL d   1      -4.505  -3.476  -0.035  0.00  0.00     0.173 HD
ENDROOT
BRANCH   5   9
ATOM      9  C   UNL d   1      -5.045  -6.111  -0.098  0.00  0.00     0.141 C 
ATOM     10  C   UNL d   1      -5.774  -5.746  -1.379  0.00  0.00     0.031 C 
BRANCH   9  11
ATOM     11  S   UNL d   1      -4.693  -7.931  -0.080  0.00  0.00    -0.115 SA
BRANCH  11  12
ATOM     12  C   UNL d   1      -6.201  -8.881  -0.074  0.00  0.00     0.017 A 
ATOM     13  C   UNL d   1      -7.450  -8.255   0.081  0.00  0.00     0.019 A 
ATOM     14  C   UNL d   1      -8.630  -8.988   0.195  0.00  0.00     0.001 A 
ATOM     15  C   UNL d   1      -8.591 -10.369   0.130  0.00  0.00     0.001 A 
ATOM     16  C   UNL d   1      -7.368 -11.020  -0.030  0.00  0.00     0.018 A 
ATOM     17  C   UNL d   1      -6.158 -10.302  -0.147  0.00  0.00     0.048 A 
BRANCH  17  18
ATOM     18  C   UNL d   1      -4.869 -11.073  -0.353  0.00  0.00     0.250 C 
ATOM     19  N   UNL d   1      -4.905 -12.440  -0.373  0.00  0.00    -0.366 N 
ATOM     20  H   UNL d   1      -5.717 -13.025  -0.290  0.00  0.00     0.159 HD
ATOM     21  H   UNL d   1      -4.010 -12.885  -0.532  0.00  0.00     0.159 HD
ATOM     22  O   UNL d   1      -3.761 -10.574  -0.529  0.00  0.00    -0.268 OA
ENDBRANCH  17  18
ENDBRANCH  11  12
ENDBRANCH   9  11
ENDBRANCH   5   9
BRANCH   1  23
ATOM     23  C   UNL d   1      -1.246  -1.147  -0.005  0.00  0.00     0.042 A 
ATOM     24  C   UNL d   1       0.030  -1.739   0.001  0.00  0.00     0.030 A 
ATOM     25  C   UNL d   1       1.221  -1.019   0.005  0.00  0.00     0.009 A 
ATOM     26  C   UNL d   1       1.199   0.361  -0.000  0.00  0.00    -0.061 A 
ATOM     27  C   UNL d   1       2.502   1.104   0.008  0.00  0.00     0.048 C 
ATOM     28  C   UNL d   1      -0.051   0.998  -0.007  0.00  0.00     0.015 A 
ATOM     29  C   UNL d   1      -1.279   0.264  -0.004  0.00  0.00    -0.035 A 
ATOM     30  C   UNL d   1      -2.549   1.073  -0.005  0.00  0.00     0.050 C 
ENDBRANCH   1  23
TORSDOF 5
