REMARK  4 active torsions:
REMARK  status: ('A' for Active; 'I' for Inactive)
REMARK    1  A    between atoms: C_2  and  C_4 
REMARK    2  A    between atoms: C_4  and  C_5 
REMARK       I    between atoms: C_5  and  N_7 
REMARK    3  A    between atoms: N_7  and  N_8 
REMARK       I    between atoms: N_8  and  C_9 
REMARK    4  A    between atoms: C_9  and  C_11 
ROOT
ATOM      1  C   UNL d   1       4.681  -1.376  -0.264  0.00  0.00     0.236 C 
ATOM      2  O   UNL d   1       5.365  -0.350  -0.264  0.00  0.00    -0.272 OA
ATOM      3  N   UNL d   1       5.282  -2.618  -0.316  0.00  0.00    -0.268 N 
ATOM      4  H   UNL d   1       4.788  -3.505  -0.401  0.00  0.00     0.190 HD
ENDROOT
BRANCH   3   5
ATOM      5  N   UNL d   1       6.701  -2.672  -0.338  0.00  0.00    -0.267 N 
ATOM      6  C   UNL d   1       7.331  -3.897  -0.439  0.00  0.00     0.239 C 
ATOM      7  O   UNL d   1       6.681  -4.939  -0.555  0.00  0.00    -0.271 OA
ATOM      8  H   UNL d   1       7.183  -1.776  -0.258  0.00  0.00     0.190 HD
BRANCH   6   9
ATOM      9  C   UNL d   1       8.870  -3.870  -0.429  0.00  0.00     0.071 C 
ATOM     10  C   UNL d   1       9.426  -3.268   0.860  0.00  0.00     0.019 C 
ATOM     11  C   UNL d   1       9.437  -5.287  -0.592  0.00  0.00     0.019 C 
ENDBRANCH   6   9
ENDBRANCH   3   5
BRANCH   1  12
ATOM     12  C   UNL d   1       3.147  -1.371  -0.206  0.00  0.00     0.108 C 
BRANCH  12  13
ATOM     13  C   UNL d   1       2.557   0.051  -0.043  0.00  0.00    -0.014 C 
ATOM     14  C   UNL d   1       1.023   0.045  -0.082  0.00  0.00     0.010 C 
ATOM     15  C   UNL d   1       2.999   0.697   1.274  0.00  0.00     0.010 C 
ENDBRANCH  12  13
ENDBRANCH   1  12
TORSDOF 4
