REMARK  6 active torsions:
REMARK  status: ('A' for Active; 'I' for Inactive)
REMARK       I    between atoms: C_2  and  N_4 
REMARK    1  A    between atoms: N_4  and  C_5 
REMARK    2  A    between atoms: C_8  and  N_9 
REMARK       I    between atoms: N_9  and  C_10 
REMARK    3  A    between atoms: C_10  and  C_12 
REMARK    4  A    between atoms: N_15  and  C_16 
REMARK    5  A    between atoms: C_21  and  S_22 
REMARK    6  A    between atoms: S_22  and  C_23 
ROOT
ATOM      1  C   UNL d   1      10.548  -0.343  -1.669  0.00  0.00     0.081 C 
ATOM      2  C   UNL d   1      10.872   1.050  -1.095  0.00  0.00     0.034 C 
ATOM      3  C   UNL d   1      11.192   2.161  -2.029  0.00  0.00     0.125 C 
ATOM      4  N   UNL d   1      11.946   1.517  -3.068  0.00  0.00    -0.363 N 
ATOM      5  C   UNL d   1      11.278   0.427  -3.789  0.00  0.00     0.125 C 
ATOM      6  C   UNL d   1      11.289  -0.796  -2.910  0.00  0.00     0.034 C 
ENDROOT
BRANCH   1   7
ATOM      7  C   UNL d   1       9.123  -0.432  -1.795  0.00  0.00     0.226 C 
ATOM      8  N   UNL d   1       8.493   0.710  -1.422  0.00  0.00    -0.327 N 
ATOM      9  H   UNL d   1       8.962   1.573  -1.190  0.00  0.00     0.169 HD
ATOM     10  O   UNL d   1       8.641  -1.563  -2.083  0.00  0.00    -0.273 OA
BRANCH   8  11
ATOM     11  C   UNL d   1       7.174   0.805  -1.170  0.00  0.00     0.034 A 
ATOM     12  C   UNL d   1       6.616   2.071  -1.150  0.00  0.00     0.032 A 
ATOM     13  C   UNL d   1       5.255   2.133  -0.961  0.00  0.00     0.032 A 
ATOM     14  C   UNL d   1       4.537   0.936  -0.805  0.00  0.00     0.034 A 
ATOM     15  C   UNL d   1       5.165  -0.301  -0.787  0.00  0.00     0.032 A 
ATOM     16  C   UNL d   1       6.498  -0.366  -0.946  0.00  0.00     0.032 A 
BRANCH  14  17
ATOM     17  N   UNL d   1       3.148   0.937  -0.712  0.00  0.00    -0.328 N 
ATOM     18  C   UNL d   1       2.495   0.043   0.119  0.00  0.00     0.218 C 
ATOM     19  C   UNL d   1       1.005   0.092   0.039  0.00  0.00     0.117 C 
ATOM     20  O   UNL d   1       3.041  -0.718   0.917  0.00  0.00    -0.274 OA
ATOM     21  H   UNL d   1       2.651   1.619  -1.265  0.00  0.00     0.169 HD
ENDBRANCH  14  17
ENDBRANCH   8  11
ENDBRANCH   1   7
BRANCH   4  22
ATOM     22  C   UNL d   1      12.955   2.258  -3.625  0.00  0.00     0.161 A 
ATOM     23  N   UNL d   1      12.732   2.666  -4.912  0.00  0.00    -0.239 NA
ATOM     24  C   UNL d   1      13.690   3.413  -5.500  0.00  0.00     0.138 A 
ATOM     25  C   UNL d   1      14.866   3.721  -4.856  0.00  0.00     0.137 A 
ATOM     26  N   UNL d   1      15.112   3.340  -3.578  0.00  0.00    -0.248 NA
ATOM     27  C   UNL d   1      14.146   2.613  -2.921  0.00  0.00     0.143 A 
BRANCH  27  28
ATOM     28  S   UNL d   1      14.612   2.358  -1.163  0.00  0.00    -0.067 SA
BRANCH  28  29
ATOM     29  C   UNL d   1      13.724   1.083  -0.201  0.00  0.00     0.007 C 
ATOM     30  C   UNL d   1      12.868   1.429   0.944  0.00  0.00     0.019 C 
ATOM     31  C   UNL d   1      11.832   0.528   1.534  0.00  0.00     0.008 C 
ATOM     32  C   UNL d   1      11.594  -0.769   1.000  0.00  0.00    -0.062 C 
ATOM     33  C   UNL d   1      10.019  -1.341   1.147  0.00  0.00     0.048 C 
ATOM     34  C   UNL d   1      12.583  -1.174  -0.061  0.00  0.00     0.008 C 
ATOM     35  C   UNL d   1      13.565  -0.228  -0.700  0.00  0.00     0.019 C 
ENDBRANCH  28  29
ENDBRANCH  27  28
ENDBRANCH   4  22
TORSDOF 6
