REMARK  5 active torsions:
REMARK  status: ('A' for Active; 'I' for Inactive)
REMARK       I    between atoms: N_1  and  C_2 
REMARK    1  A    between atoms: C_2  and  C_4 
REMARK    2  A    between atoms: C_4  and  C_5 
REMARK    3  A    between atoms: C_6  and  C_5 
REMARK    4  A    between atoms: N_22  and  C_23 
REMARK    5  A    between atoms: C_23  and  C_24 
ROOT
ATOM      1  C   UNL d   1       5.509   1.625   1.753  0.00  0.00     0.237 A 
ATOM      2  N   UNL d   1       5.096   2.934   1.240  0.00  0.00     0.113 N 
ATOM      3  C   UNL d   1       4.415   3.664   2.299  0.00  0.00     0.279 A 
ATOM      4  C   UNL d   1       5.207   4.986   2.589  0.00  0.00     0.267 C 
ATOM      5  O   UNL d   1       6.396   5.100   2.837  0.00  0.00    -0.270 OA
ATOM      6  N   UNL d   1       4.282   6.023   2.526  0.00  0.00    -0.324 N 
ATOM      7  C   UNL d   1       3.058   5.583   2.048  0.00  0.00     0.044 A 
ATOM      8  C   UNL d   1       1.957   6.349   1.740  0.00  0.00     0.032 A 
ATOM      9  C   UNL d   1       0.840   5.692   1.211  0.00  0.00     0.026 A 
ATOM     10  C   UNL d   1       0.850   4.299   1.017  0.00  0.00     0.034 A 
ATOM     11 CL   UNL d   1      -0.542   3.523   0.365  0.00  0.00    -0.084 Cl
ATOM     12  C   UNL d   1       1.971   3.536   1.343  0.00  0.00     0.036 A 
ATOM     13  C   UNL d   1       3.077   4.202   1.856  0.00  0.00     0.019 A 
ATOM     14  C   UNL d   1       4.251   2.743   3.489  0.00  0.00     0.147 A 
ATOM     15  C   UNL d   1       4.916   3.226   4.744  0.00  0.00     0.235 C 
ATOM     16  O   UNL d   1       5.059   4.375   5.087  0.00  0.00    -0.272 OA
ATOM     17  N   UNL d   1       5.298   2.153   5.486  0.00  0.00    -0.283 N 
ATOM     18  C   UNL d   1       5.629   1.158   4.595  0.00  0.00     0.234 C 
ATOM     19  O   UNL d   1       6.305   0.172   4.858  0.00  0.00    -0.272 OA
ATOM     20  C   UNL d   1       4.935   1.427   3.192  0.00  0.00     0.128 A 
ATOM     21  H   UNL d   1       4.569   2.911   0.369  0.00  0.00     0.318 HD
ATOM     22  H   UNL d   1       4.543   6.971   2.746  0.00  0.00     0.169 HD
ENDROOT
BRANCH   1  23
ATOM     23  C   UNL d   1       7.012   1.518   1.553  0.00  0.00     0.045 C 
BRANCH  23  24
ATOM     24  C   UNL d   1       7.497   0.141   1.955  0.00  0.00     0.105 C 
BRANCH  24  25
ATOM     25  C   UNL d   1       8.992   0.034   2.026  0.00  0.00     0.215 C 
ATOM     26  N   UNL d   1       9.437  -1.155   2.528  0.00  0.00    -0.370 N 
ATOM     27  H   UNL d   1      10.429  -1.222   2.704  0.00  0.00     0.159 HD
ATOM     28  H   UNL d   1       8.822  -1.819   2.982  0.00  0.00     0.159 HD
ATOM     29  O   UNL d   1       9.772   0.921   1.707  0.00  0.00    -0.274 OA
ENDBRANCH  24  25
ENDBRANCH  23  24
ENDBRANCH   1  23
BRANCH  17  30
ATOM     30  C   UNL d   1       5.761   2.508   6.863  0.00  0.00     0.175 C 
BRANCH  30  31
ATOM     31  C   UNL d   1       5.560   1.549   8.016  0.00  0.00    -0.018 C 
ATOM     32  C   UNL d   1       6.417   0.448   8.060  0.00  0.00     0.010 C 
ATOM     33  C   UNL d   1       6.240  -0.566   8.997  0.00  0.00     0.001 C 
ATOM     34  C   UNL d   1       5.313  -0.422  10.023  0.00  0.00     0.002 C 
ATOM     35  C   UNL d   1       4.588   0.761  10.127  0.00  0.00     0.024 C 
ATOM     36  C   UNL d   1       4.667   1.720   9.101  0.00  0.00     0.042 C 
ATOM     37 CL   UNL d   1       3.615   3.085   9.252  0.00  0.00    -0.084 Cl
ENDBRANCH  30  31
ENDBRANCH  17  30
TORSDOF 5
