@<TRIPOS>MOLECULE
*****
 70 73 0 0 0
SMALL
GASTEIGER

@<TRIPOS>ATOM
      1 C           1.1751   -0.1182    0.0418 C.3     1  UNL1        0.0820
      2 O           2.6148   -0.1858    0.0380 O.3     1  UNL1       -0.4644
      3 C           3.1625   -0.9848    0.9934 C.2     1  UNL1        0.3390
      4 O           2.5348   -1.6162    1.8417 O.2     1  UNL1       -0.2450
      5 C           4.6600   -0.9939    0.9540 C.ar    1  UNL1        0.0609
      6 C           5.4444   -2.0831    1.2435 C.ar    1  UNL1       -0.0459
      7 C           6.8445   -1.9107    1.3739 C.ar    1  UNL1       -0.0381
      8 C           7.5235   -0.6563    1.2014 C.ar    1  UNL1        0.0516
      9 N           8.9146   -0.6730    1.2721 N.pl3   1  UNL1       -0.3183
     10 C           9.7563    0.1716    2.1156 C.3     1  UNL1        0.0525
     11 C          10.5830    1.1547    1.2437 C.3     1  UNL1       -0.0154
     12 N          11.3513    0.4464    0.1171 N.4     1  UNL1        0.2407
     13 C          11.9890    1.4655   -0.8362 C.3     1  UNL1       -0.0058
     14 C          12.9432    0.8897   -1.8528 C.ar    1  UNL1       -0.0029
     15 C          14.2855    1.2917   -1.9129 C.ar    1  UNL1       -0.0535
     16 C          15.1242    0.7969   -2.9197 C.ar    1  UNL1       -0.0613
     17 C          14.6732   -0.1886   -3.7959 C.ar    1  UNL1       -0.0617
     18 C          13.3533   -0.6033   -3.7418 C.ar    1  UNL1       -0.0613
     19 C          12.4890   -0.0113   -2.8291 C.ar    1  UNL1       -0.0535
     20 C          10.4590   -0.5933   -0.6096 C.3     1  UNL1       -0.0154
     21 C           9.6908   -1.5142    0.3534 C.3     1  UNL1        0.0525
     22 C           6.6944    0.4721    0.9330 C.ar    1  UNL1        0.0547
     23 N           7.1760    1.8465    0.7952 N.am    1  UNL1       -0.2951
     24 C           6.4245    3.0453    0.5901 C.2     1  UNL1        0.1411
     25 S           4.7489    3.1707    0.4375 S.2     1  UNL1       -0.0182
     26 N           7.1969    4.2260    0.5003 N.am    1  UNL1       -0.2636
     27 C           6.6081    5.4973    0.3178 C.2     1  UNL1        0.2495
     28 O           5.4228    5.7476    0.1133 O.2     1  UNL1       -0.2698
     29 C           7.4029    6.7181    0.2886 C.ar    1  UNL1        0.0376
     30 C           6.7921    7.8724    0.8215 C.ar    1  UNL1       -0.0467
     31 C           7.2859    9.1350    0.5123 C.ar    1  UNL1       -0.0495
     32 C           6.5174   10.3802    0.8409 C.3     1  UNL1       -0.0397
     33 C           8.4635    9.2235   -0.2298 C.ar    1  UNL1       -0.0559
     34 C           9.0602    8.0774   -0.7779 C.ar    1  UNL1       -0.0495
     35 C          10.2263    8.2068   -1.7034 C.3     1  UNL1       -0.0397
     36 C           8.5120    6.8153   -0.5366 C.ar    1  UNL1       -0.0467
     37 C           5.3165    0.2118    0.7887 C.ar    1  UNL1       -0.0247
     38 H           0.8403    0.5108   -0.7923 H       1  UNL1        0.0661
     39 H           0.7999    0.3287    0.9695 H       1  UNL1        0.0661
     40 H           0.7498   -1.1164   -0.1009 H       1  UNL1        0.0661
     41 H           4.9723   -3.0524    1.3750 H       1  UNL1        0.0626
     42 H           7.4091   -2.7917    1.6816 H       1  UNL1        0.0637
     43 H          10.4732   -0.4779    2.6421 H       1  UNL1        0.0516
     44 H           9.1734    0.6773    2.8887 H       1  UNL1        0.0516
     45 H          11.3029    1.7063    1.8566 H       1  UNL1        0.0830
     46 H           9.9480    1.8780    0.7341 H       1  UNL1        0.0830
     47 H          12.1360   -0.0648    0.5405 H       1  UNL1        0.2038
     48 H          12.5129    2.1935   -0.2011 H       1  UNL1        0.0867
     49 H          11.1767    2.0007   -1.3440 H       1  UNL1        0.0867
     50 H          14.7018    2.0139   -1.2116 H       1  UNL1        0.0622
     51 H          16.1349    1.1843   -3.0356 H       1  UNL1        0.0618
     52 H          15.3405   -0.6142   -4.5415 H       1  UNL1        0.0618
     53 H          12.9789   -1.3544   -4.4337 H       1  UNL1        0.0618
     54 H          11.4420   -0.2759   -2.9223 H       1  UNL1        0.0622
     55 H          11.1173   -1.2385   -1.1890 H       1  UNL1        0.0830
     56 H           9.7694   -0.0293   -1.2484 H       1  UNL1        0.0830
     57 H          10.4302   -2.1082    0.9106 H       1  UNL1        0.0516
     58 H           9.0850   -2.2274   -0.2182 H       1  UNL1        0.0516
     59 H           8.1495    1.9378    0.9875 H       1  UNL1        0.1539
     60 H           8.1914    4.2084    0.6538 H       1  UNL1        0.1568
     61 H           5.8636    7.7779    1.3893 H       1  UNL1        0.0628
     62 H           5.5764   10.1571    1.3543 H       1  UNL1        0.0278
     63 H           6.2617   10.9032   -0.0894 H       1  UNL1        0.0278
     64 H           7.1158   11.0424    1.4705 H       1  UNL1        0.0278
     65 H           8.8828   10.2076   -0.4310 H       1  UNL1        0.0623
     66 H          10.5496    9.2476   -1.7904 H       1  UNL1        0.0278
     67 H           9.9499    7.8492   -2.7006 H       1  UNL1        0.0278
     68 H          11.0587    7.6143   -1.3160 H       1  UNL1        0.0278
     69 H           8.8863    5.9471   -1.0677 H       1  UNL1        0.0628
     70 H           4.6047    0.9596    0.5497 H       1  UNL1        0.0645
@<TRIPOS>UNITY_ATOM_ATTR
12 1
charge 1
@<TRIPOS>BOND
     1     1     2    1
     2     2     3    1
     3     3     4    2
     4     3     5    1
     5     5     6   ar
     6     6     7   ar
     7     7     8   ar
     8     8     9    1
     9     9    10    1
    10    10    11    1
    11    11    12    1
    12    12    13    1
    13    13    14    1
    14    14    15   ar
    15    15    16   ar
    16    16    17   ar
    17    17    18   ar
    18    18    19   ar
    19    14    19   ar
    20    12    20    1
    21    20    21    1
    22     9    21    1
    23     8    22   ar
    24    22    23    1
    25    23    24    1
    26    24    25    2
    27    24    26    1
    28    26    27   am
    29    27    28    2
    30    27    29    1
    31    29    30   ar
    32    30    31   ar
    33    31    32    1
    34    31    33   ar
    35    33    34   ar
    36    34    35    1
    37    34    36   ar
    38    29    36   ar
    39    22    37   ar
    40     5    37   ar
    41     1    38    1
    42     1    39    1
    43     1    40    1
    44     6    41    1
    45     7    42    1
    46    10    43    1
    47    10    44    1
    48    11    45    1
    49    11    46    1
    50    12    47    1
    51    13    48    1
    52    13    49    1
    53    15    50    1
    54    16    51    1
    55    17    52    1
    56    18    53    1
    57    19    54    1
    58    20    55    1
    59    20    56    1
    60    21    57    1
    61    21    58    1
    62    23    59    1
    63    26    60    1
    64    30    61    1
    65    32    62    1
    66    32    63    1
    67    32    64    1
    68    33    65    1
    69    35    66    1
    70    35    67    1
    71    35    68    1
    72    36    69    1
    73    37    70    1
