@<TRIPOS>MOLECULE
*****
 41 43 0 0 0
SMALL
GASTEIGER

@<TRIPOS>ATOM
      1 C           1.0205   -0.0630    0.0496 C.3     1  UNL1        0.0788
      2 O           2.4399    0.0664    0.0360 O.3     1  UNL1       -0.4951
      3 C           3.0826   -0.3499    1.1679 C.ar    1  UNL1        0.1202
      4 C           4.2622    0.3227    1.4984 C.ar    1  UNL1       -0.0182
      5 C           5.0360   -0.0803    2.5977 C.ar    1  UNL1       -0.0371
      6 C           4.6022   -1.1233    3.4210 C.ar    1  UNL1        0.0315
      7 N           5.2176   -1.3650    4.6704 N.pl3   1  UNL1       -0.3145
      8 C           5.0263   -2.4950    5.4894 C.ar    1  UNL1        0.0314
      9 C           4.9184   -2.3657    6.8773 C.ar    1  UNL1       -0.0388
     10 C           4.7607   -3.5015    7.7005 C.ar    1  UNL1       -0.0387
     11 C           4.6515   -4.7797    7.1338 C.ar    1  UNL1        0.0338
     12 N           4.3935   -5.9174    7.9491 N.am    1  UNL1       -0.2802
     13 C           4.2154   -7.2174    7.4642 C.2     1  UNL1        0.2666
     14 O           4.2836   -7.5668    6.2801 O.2     1  UNL1       -0.2682
     15 C           3.8753   -8.2982    8.4309 C.ar    1  UNL1        0.1256
     16 C           2.9218   -8.0963    9.4181 C.ar    1  UNL1       -0.0312
     17 C           2.5234   -9.1981   10.1736 C.ar    1  UNL1       -0.0582
     18 C           3.0747  -10.4512    9.9151 C.ar    1  UNL1       -0.0436
     19 C           4.0141  -10.5604    8.9061 C.ar    1  UNL1        0.0284
     20 N           4.4301   -9.5141    8.1684 N.ar    1  UNL1       -0.2504
     21 C           4.7785   -4.8865    5.7502 C.ar    1  UNL1       -0.0387
     22 C           4.9832   -3.7731    4.9454 C.ar    1  UNL1       -0.0388
     23 C           3.4222   -1.7910    3.0622 C.ar    1  UNL1       -0.0371
     24 C           2.6795   -1.4277    1.9423 C.ar    1  UNL1       -0.0182
     25 H           0.6564    0.1826   -0.9522 H       1  UNL1        0.0660
     26 H           0.5887    0.6517    0.7570 H       1  UNL1        0.0660
     27 H           0.6726   -1.0773    0.2667 H       1  UNL1        0.0660
     28 H           4.5684    1.1857    0.9126 H       1  UNL1        0.0655
     29 H           5.9670    0.4409    2.8044 H       1  UNL1        0.0637
     30 H           6.1470   -0.9683    4.7680 H       1  UNL1        0.1522
     31 H           4.9041   -1.3701    7.3172 H       1  UNL1        0.0637
     32 H           4.7173   -3.3501    8.7759 H       1  UNL1        0.0637
     33 H           4.3345   -5.7578    8.9478 H       1  UNL1        0.1552
     34 H           2.4489   -7.1326    9.5585 H       1  UNL1        0.0640
     35 H           1.7617   -9.0889   10.9403 H       1  UNL1        0.0619
     36 H           2.7684  -11.3274   10.4764 H       1  UNL1        0.0633
     37 H           4.4588  -11.5182    8.6480 H       1  UNL1        0.0830
     38 H           4.7298   -5.8314    5.2270 H       1  UNL1        0.0637
     39 H           5.0713   -3.9313    3.8739 H       1  UNL1        0.0637
     40 H           3.0434   -2.6114    3.6642 H       1  UNL1        0.0637
     41 H           1.7960   -2.0128    1.7198 H       1  UNL1        0.0655
@<TRIPOS>BOND
     1     1     2    1
     2     2     3    1
     3     3     4   ar
     4     4     5   ar
     5     5     6   ar
     6     6     7    1
     7     7     8    1
     8     8     9   ar
     9     9    10   ar
    10    10    11   ar
    11    11    12    1
    12    12    13   am
    13    13    14    2
    14    13    15    1
    15    15    16   ar
    16    16    17   ar
    17    17    18   ar
    18    18    19   ar
    19    19    20   ar
    20    15    20   ar
    21    11    21   ar
    22    21    22   ar
    23     8    22   ar
    24     6    23   ar
    25    23    24   ar
    26     3    24   ar
    27     1    25    1
    28     1    26    1
    29     1    27    1
    30     4    28    1
    31     5    29    1
    32     7    30    1
    33     9    31    1
    34    10    32    1
    35    12    33    1
    36    16    34    1
    37    17    35    1
    38    18    36    1
    39    19    37    1
    40    21    38    1
    41    22    39    1
    42    23    40    1
    43    24    41    1
