REMARK  8 active torsions:
REMARK  status: ('A' for Active; 'I' for Inactive)
REMARK    1  A    between atoms: N_2  and  C_27 
REMARK    2  A    between atoms: N_2  and  C_3 
REMARK    3  A    between atoms: C_3  and  C_4 
REMARK    4  A    between atoms: C_5  and  C_6 
REMARK       I    between atoms: C_6  and  N_8 
REMARK    5  A    between atoms: N_8  and  N_9 
REMARK    6  A    between atoms: C_10  and  C_11 
REMARK    7  A    between atoms: N_20  and  C_21 
REMARK    8  A    between atoms: C_25  and  N_26 
ROOT
ATOM      1  C   UNL d   1       0.483  -0.993   1.335  0.00  0.00     0.096 C 
ATOM      2  C   UNL d   1       1.112  -1.698   2.446  0.00  0.00     0.170 C 
ATOM      3  N   UNL d   1       0.050  -2.091   3.254  0.00  0.00    -0.152 NA
ATOM      4  N   UNL d   1      -1.111  -1.690   2.748  0.00  0.00     0.012 NA
ATOM      5  N   UNL d   1      -0.925  -1.134   1.538  0.00  0.00    -0.215 N 
ENDROOT
BRANCH   2   6
ATOM      6  C   UNL d   1       2.643  -1.985   3.085  0.00  0.00     0.293 C 
ATOM      7  O   UNL d   1       2.748  -2.266   4.261  0.00  0.00    -0.264 OA
ATOM      8  N   UNL d   1       3.862  -1.837   2.272  0.00  0.00    -0.242 N 
ATOM      9  H   UNL d   1       3.807  -1.924   1.285  0.00  0.00     0.192 HD
BRANCH   8  10
ATOM     10  N   UNL d   1       5.179  -1.560   2.696  0.00  0.00    -0.183 NA
ATOM     11  C   UNL d   1       5.996  -0.902   1.897  0.00  0.00     0.150 C 
BRANCH  11  12
ATOM     12  C   UNL d   1       7.474  -0.961   2.009  0.00  0.00    -0.014 A 
ATOM     13  C   UNL d   1       7.972  -2.199   2.402  0.00  0.00     0.013 A 
ATOM     14  C   UNL d   1       9.337  -2.389   2.557  0.00  0.00     0.004 A 
ATOM     15  C   UNL d   1      10.216  -1.342   2.293  0.00  0.00     0.042 A 
ATOM     16  C   UNL d   1       9.723  -0.129   1.820  0.00  0.00     0.117 A 
ATOM     17  F   UNL d   1      10.583   0.865   1.556  0.00  0.00    -0.206 F 
ATOM     18  C   UNL d   1       8.351   0.073   1.639  0.00  0.00     0.055 A 
ENDBRANCH  11  12
ENDBRANCH   8  10
ENDBRANCH   2   6
BRANCH   1  19
ATOM     19  C   UNL d   1       0.866  -0.070   0.169  0.00  0.00     0.296 C 
BRANCH  19  20
ATOM     20  N   UNL d   1       2.339   0.094  -0.114  0.00  0.00    -0.065 N 
ATOM     21  C   UNL d   1       2.924   0.439   1.186  0.00  0.00     0.270 C 
ATOM     22  H   UNL d   1       2.487   0.956  -0.660  0.00  0.00     0.280 HD
BRANCH  20  23
ATOM     23  C   UNL d   1       2.861  -1.091  -0.996  0.00  0.00     0.188 C 
ATOM     24  C   UNL d   1       4.386  -1.180  -1.090  0.00  0.00     0.033 C 
ATOM     25  C   UNL d   1       4.873  -2.361  -1.931  0.00  0.00     0.002 C 
ATOM     26  C   UNL d   1       4.270  -3.683  -1.451  0.00  0.00     0.000 C 
ATOM     27  C   UNL d   1       2.754  -3.605  -1.450  0.00  0.00     0.002 C 
ATOM     28  C   UNL d   1       2.273  -2.463  -0.581  0.00  0.00     0.033 C 
ENDBRANCH  20  23
ENDBRANCH  19  20
ENDBRANCH   1  19
BRANCH   5  29
ATOM     29  C   UNL d   1      -2.007  -0.790   0.639  0.00  0.00     0.219 A 
ATOM     30  N   UNL d   1      -3.068  -0.101   1.071  0.00  0.00    -0.082 NA
ATOM     31  O   UNL d   1      -3.859   0.079  -0.077  0.00  0.00    -0.103 OA
ATOM     32  N   UNL d   1      -3.271  -0.515  -1.190  0.00  0.00    -0.089 NA
ATOM     33  C   UNL d   1      -2.137  -1.048  -0.745  0.00  0.00     0.180 A 
BRANCH  33  34
ATOM     34  N   UNL d   1      -1.275  -1.736  -1.529  0.00  0.00    -0.282 NA
ATOM     35  H   UNL d   1      -1.663  -2.054  -2.421  0.00  0.00     0.126 HD
ATOM     36  H   UNL d   1      -0.706  -2.466  -1.119  0.00  0.00     0.126 HD
ENDBRANCH  33  34
ENDBRANCH   5  29
TORSDOF 8
