@<TRIPOS>MOLECULE
*****
 51 53 0 0 0
SMALL
GASTEIGER

@<TRIPOS>ATOM
      1 C           2.2091   -0.1639    0.0248 C.3     1  UNL1        0.0170
      2 N           0.7476   -0.0534   -0.0023 N.ar    1  UNL1       -0.2962
      3 C          -0.0842   -1.1669   -0.0076 C.ar    1  UNL1        0.0731
      4 C          -1.3644   -0.7102    0.0052 C.ar    1  UNL1        0.1873
      5 N          -1.2781    0.6627    0.0058 N.ar    1  UNL1       -0.1984
      6 C           0.0042    1.0834   -0.0076 C.ar    1  UNL1        0.2603
      7 C           0.4385    2.5424   -0.0185 C.3     1  UNL1        0.0659
      8 C           1.9358    2.7760   -0.0481 C.3     1  UNL1        0.0242
      9 N           2.4481    4.1195   -0.0516 N.am    1  UNL1       -0.2988
     10 C           3.8200    4.2734   -0.0740 C.2     1  UNL1        0.2999
     11 O           4.5905    3.3123   -0.0890 O.2     1  UNL1       -0.2529
     12 N           4.2253    5.5679   -0.0887 N.am    1  UNL1       -0.2953
     13 C           5.6394    5.9315   -0.1100 C.3     1  UNL1        0.0383
     14 C           5.8436    7.4280   -0.0938 C.ar    1  UNL1       -0.0300
     15 C           6.8617    8.0273    0.6649 C.ar    1  UNL1       -0.0536
     16 C           6.9696    9.4266    0.7380 C.ar    1  UNL1       -0.0190
     17 C           6.1314   10.2418   -0.0307 C.ar    1  UNL1        0.1285
     18 O           6.3693   11.6027    0.0191 O.3     1  UNL1       -0.4560
     19 C           5.6177   12.4374   -0.7810 C.ar    1  UNL1        0.1289
     20 C           6.2662   13.1817   -1.7705 C.ar    1  UNL1       -0.0129
     21 C           5.5392   14.0877   -2.5537 C.ar    1  UNL1        0.0191
     22 C           4.1492   14.1808   -2.3933 C.ar    1  UNL1        0.2734
     23 N           3.3586   15.0063   -3.3180 N.pl3   1  UNL1        0.0796
     24 O           3.9664   15.6324   -4.1968 O.2     1  UNL1        0.0414
     25 O           2.1260   14.9993   -3.1832 O.co2   1  UNL1       -0.5760
     26 C           3.4993   13.4464   -1.3926 C.ar    1  UNL1        0.0191
     27 C           4.2450   12.6036   -0.5647 C.ar    1  UNL1       -0.0129
     28 C           5.1606    9.6391   -0.8292 C.ar    1  UNL1       -0.0190
     29 C           5.0212    8.2549   -0.8644 C.ar    1  UNL1       -0.0536
     30 H           2.5215   -1.2087    0.0116 H       1  UNL1        0.0457
     31 H           2.5782    0.2868    0.9479 H       1  UNL1        0.0457
     32 H           2.6240    0.3165   -0.8620 H       1  UNL1        0.0457
     33 H           0.3583   -2.1490   -0.0111 H       1  UNL1        0.0871
     34 H          -2.3266   -1.1936    0.0161 H       1  UNL1        0.1392
     35 H          -2.0849    1.2832    0.0165 H       1  UNL1        0.4541
     36 H          -0.0140    2.9824    0.8762 H       1  UNL1        0.0404
     37 H          -0.0452    2.9780   -0.8992 H       1  UNL1        0.0404
     38 H           2.3412    2.3069   -0.9491 H       1  UNL1        0.0468
     39 H           2.3780    2.3028    0.8326 H       1  UNL1        0.0468
     40 H           1.8447    4.9288   -0.0462 H       1  UNL1        0.1502
     41 H           3.5414    6.3012    0.0051 H       1  UNL1        0.1506
     42 H           6.0985    5.5010   -1.0077 H       1  UNL1        0.0512
     43 H           6.1119    5.4722    0.7660 H       1  UNL1        0.0512
     44 H           7.5841    7.4151    1.2042 H       1  UNL1        0.0622
     45 H           7.7171    9.8726    1.3927 H       1  UNL1        0.0654
     46 H           7.3319   13.0518   -1.9460 H       1  UNL1        0.0656
     47 H           6.0628   14.7030   -3.2836 H       1  UNL1        0.0686
     48 H           2.4235   13.5164   -1.2468 H       1  UNL1        0.0686
     49 H           3.7469   12.0361    0.2171 H       1  UNL1        0.0656
     50 H           4.4850   10.2186   -1.4459 H       1  UNL1        0.0654
     51 H           4.2597    7.8334   -1.5144 H       1  UNL1        0.0622
@<TRIPOS>UNITY_ATOM_ATTR
5 1
charge 1
23 1
charge 1
25 1
charge -1
@<TRIPOS>BOND
     1     1     2    1
     2     2     3   ar
     3     3     4   ar
     4     4     5   ar
     5     5     6   ar
     6     2     6   ar
     7     6     7    1
     8     7     8    1
     9     8     9    1
    10     9    10   am
    11    10    11    2
    12    10    12   am
    13    12    13    1
    14    13    14    1
    15    14    15   ar
    16    15    16   ar
    17    16    17   ar
    18    17    18    1
    19    18    19    1
    20    19    20   ar
    21    20    21   ar
    22    21    22   ar
    23    22    23    1
    24    23    24    2
    25    23    25    1
    26    22    26   ar
    27    26    27   ar
    28    19    27   ar
    29    17    28   ar
    30    28    29   ar
    31    14    29   ar
    32     1    30    1
    33     1    31    1
    34     1    32    1
    35     3    33    1
    36     4    34    1
    37     5    35    1
    38     7    36    1
    39     7    37    1
    40     8    38    1
    41     8    39    1
    42     9    40    1
    43    12    41    1
    44    13    42    1
    45    13    43    1
    46    15    44    1
    47    16    45    1
    48    20    46    1
    49    21    47    1
    50    26    48    1
    51    27    49    1
    52    28    50    1
    53    29    51    1
