@<TRIPOS>MOLECULE
*****
 48 51 0 0 0
SMALL
GASTEIGER

@<TRIPOS>ATOM
      1 C           2.2421    0.0752   -0.0045 C.3     1  UNL1       -0.0029
      2 C           0.7920   -0.1775   -0.0071 C.ar    1  UNL1        0.1469
      3 O           0.0088    0.9328    0.0143 O.2     1  UNL1       -0.3586
      4 N          -1.3187    0.5721    0.0342 N.ar    1  UNL1       -0.0772
      5 C          -1.3406   -0.7681    0.0122 C.ar    1  UNL1        0.1285
      6 C          -2.6055   -1.5064    0.0520 C.ar    1  UNL1        0.0410
      7 C          -2.8854   -2.3894    1.1158 C.ar    1  UNL1        0.0517
      8 CL         -1.8566   -2.5444    2.5086 Cl      1  UNL1       -0.0828
      9 C          -4.0320   -3.1917    1.1011 C.ar    1  UNL1       -0.0427
     10 C          -4.9438   -3.0939    0.0552 C.ar    1  UNL1       -0.0590
     11 C          -4.7066   -2.1974   -0.9836 C.ar    1  UNL1       -0.0427
     12 C          -3.5443   -1.4121   -0.9930 C.ar    1  UNL1        0.0517
     13 CL         -3.3298   -0.3704   -2.3615 Cl      1  UNL1       -0.0828
     14 C          -0.0036   -1.3042   -0.0283 C.ar    1  UNL1        0.1064
     15 C           0.3485   -2.7135   -0.0849 C.2     1  UNL1        0.2538
     16 O          -0.5491   -3.5556   -0.1931 O.2     1  UNL1       -0.2697
     17 N           1.6846   -3.0747    0.0224 N.am    1  UNL1       -0.2814
     18 C           2.1095   -4.4195   -0.0652 C.ar    1  UNL1        0.0337
     19 C           3.1959   -4.8705    0.6813 C.ar    1  UNL1       -0.0394
     20 C           3.6200   -6.2010    0.5485 C.ar    1  UNL1       -0.0466
     21 C           2.9425   -7.1024   -0.2905 C.ar    1  UNL1        0.0083
     22 S           3.4686   -8.7979   -0.2487 S.3     1  UNL1       -0.1205
     23 C           2.3359   -9.6902   -1.4002 C.3     1  UNL1        0.0248
     24 C           2.6672  -11.1621   -1.4452 C.ar    1  UNL1       -0.0191
     25 C           3.9894  -11.6204   -1.5086 C.ar    1  UNL1       -0.0549
     26 C           4.2622  -12.9814   -1.5007 C.ar    1  UNL1       -0.0433
     27 C           3.1943  -13.8576   -1.4731 C.ar    1  UNL1        0.0276
     28 N           1.9019  -13.4651   -1.4672 N.ar    1  UNL1       -0.2630
     29 C           1.6677  -12.1310   -1.4547 C.ar    1  UNL1        0.0315
     30 C           1.8828   -6.6312   -1.0541 C.ar    1  UNL1       -0.0466
     31 C           1.4714   -5.3055   -0.9366 C.ar    1  UNL1       -0.0394
     32 H           2.4718    1.1445   -0.0046 H       1  UNL1        0.0309
     33 H           2.7034   -0.3739   -0.8886 H       1  UNL1        0.0309
     34 H           2.6940   -0.3622    0.8912 H       1  UNL1        0.0309
     35 H          -4.2116   -3.9006    1.9060 H       1  UNL1        0.0632
     36 H          -5.8370   -3.7137    0.0522 H       1  UNL1        0.0618
     37 H          -5.4259   -2.1250   -1.7969 H       1  UNL1        0.0632
     38 H           2.3841   -2.3930    0.2711 H       1  UNL1        0.1551
     39 H           3.6788   -4.2406    1.4245 H       1  UNL1        0.0636
     40 H           4.4797   -6.5411    1.1254 H       1  UNL1        0.0629
     41 H           2.4249   -9.2799   -2.4124 H       1  UNL1        0.0429
     42 H           1.3026   -9.5526   -1.0587 H       1  UNL1        0.0429
     43 H           4.8202  -10.9191   -1.5306 H       1  UNL1        0.0621
     44 H           5.2844  -13.3405   -1.5060 H       1  UNL1        0.0633
     45 H           3.3579  -14.9308   -1.4549 H       1  UNL1        0.0829
     46 H           0.6133  -11.8655   -1.4452 H       1  UNL1        0.0832
     47 H           1.3433   -7.2605   -1.7514 H       1  UNL1        0.0629
     48 H           0.6449   -4.9743   -1.5590 H       1  UNL1        0.0636
@<TRIPOS>BOND
     1     1     2    1
     2     2     3   ar
     3     3     4   ar
     4     4     5   ar
     5     5     6    1
     6     6     7   ar
     7     7     8    1
     8     7     9   ar
     9     9    10   ar
    10    10    11   ar
    11    11    12   ar
    12     6    12   ar
    13    12    13    1
    14     5    14   ar
    15     2    14   ar
    16    14    15    1
    17    15    16    2
    18    15    17   am
    19    17    18    1
    20    18    19   ar
    21    19    20   ar
    22    20    21   ar
    23    21    22    1
    24    22    23    1
    25    23    24    1
    26    24    25   ar
    27    25    26   ar
    28    26    27   ar
    29    27    28   ar
    30    28    29   ar
    31    24    29   ar
    32    21    30   ar
    33    30    31   ar
    34    18    31   ar
    35     1    32    1
    36     1    33    1
    37     1    34    1
    38     9    35    1
    39    10    36    1
    40    11    37    1
    41    17    38    1
    42    19    39    1
    43    20    40    1
    44    23    41    1
    45    23    42    1
    46    25    43    1
    47    26    44    1
    48    27    45    1
    49    29    46    1
    50    30    47    1
    51    31    48    1
