REMARK  12 active torsions:
REMARK  status: ('A' for Active; 'I' for Inactive)
REMARK    1  A    between atoms: C_2  and  C_3 
REMARK    2  A    between atoms: C_3  and  C_4 
REMARK    3  A    between atoms: C_5  and  C_6 
REMARK    4  A    between atoms: C_6  and  C_7 
REMARK    5  A    between atoms: C_6  and  N_21 
REMARK       I    between atoms: C_7  and  N_9 
REMARK    6  A    between atoms: N_9  and  C_10 
REMARK    7  A    between atoms: C_10  and  S_11 
REMARK    8  A    between atoms: S_11  and  C_14 
REMARK       I    between atoms: N_21  and  C_22 
REMARK    9  A    between atoms: N_21  and  C_32 
REMARK   10  A    between atoms: C_22  and  C_24 
REMARK   11  A    between atoms: C_28  and  O_29 
REMARK   12  A    between atoms: C_30  and  O_31 
ROOT
ATOM      1  C   UNL d   1       6.630  -1.567  -2.073  0.00  0.00     0.208 C 
ENDROOT
BRANCH   1   2
ATOM      2  C   UNL d   1       5.114  -1.585  -1.921  0.00  0.00     0.004 C 
ATOM      3  C   UNL d   1       4.391  -0.737  -1.171  0.00  0.00    -0.028 C 
BRANCH   3   4
ATOM      4  C   UNL d   1       2.899  -0.757  -1.181  0.00  0.00     0.026 C 
BRANCH   4   5
ATOM      5  C   UNL d   1       2.372  -0.006   0.032  0.00  0.00    -0.001 C 
ATOM      6  C   UNL d   1       0.859   0.002   0.029  0.00  0.00     0.005 C 
ENDBRANCH   4   5
ENDBRANCH   3   4
ENDBRANCH   1   2
BRANCH   1   7
ATOM      7  C   UNL d   1       7.047  -2.310  -0.780  0.00  0.00     0.245 C 
ATOM      8  O   UNL d   1       7.373  -3.496  -0.723  0.00  0.00    -0.271 OA
ATOM      9  N   UNL d   1       7.004  -1.542   0.369  0.00  0.00    -0.345 N 
ATOM     10  H   UNL d   1       6.455  -0.691   0.387  0.00  0.00     0.163 HD
BRANCH   9  11
ATOM     11  C   UNL d   1       7.303  -2.139   1.661  0.00  0.00     0.268 C 
BRANCH  11  12
ATOM     12  S   UNL d   1       6.654  -1.241   3.075  0.00  0.00     0.192 S 
ATOM     13  O   UNL d   1       7.274   0.079   3.057  0.00  0.00    -0.221 OA
ATOM     14  O   UNL d   1       5.212  -1.359   3.067  0.00  0.00    -0.221 OA
BRANCH  12  15
ATOM     15  C   UNL d   1       7.236  -2.095   4.515  0.00  0.00     0.060 A 
ATOM     16  C   UNL d   1       7.821  -1.369   5.556  0.00  0.00     0.024 A 
ATOM     17  C   UNL d   1       8.178  -2.022   6.737  0.00  0.00     0.008 A 
ATOM     18  C   UNL d   1       7.962  -3.398   6.883  0.00  0.00    -0.062 A 
ATOM     19  C   UNL d   1       8.326  -4.101   8.159  0.00  0.00     0.048 C 
ATOM     20  C   UNL d   1       7.391  -4.117   5.822  0.00  0.00     0.008 A 
ATOM     21  C   UNL d   1       7.026  -3.470   4.638  0.00  0.00     0.024 A 
ENDBRANCH  12  15
ENDBRANCH  11  12
ENDBRANCH   9  11
ENDBRANCH   1   7
BRANCH   1  22
ATOM     22  N   UNL d   1       7.118  -2.083  -3.395  0.00  0.00    -0.296 N 
ATOM     23  C   UNL d   1       6.270  -2.569  -4.416  0.00  0.00     0.262 C 
ATOM     24  O   UNL d   1       6.442  -3.682  -4.925  0.00  0.00    -0.267 OA
BRANCH  23  25
ATOM     25  C   UNL d   1       5.118  -1.751  -4.944  0.00  0.00     0.068 C 
ATOM     26  C   UNL d   1       4.182  -2.377  -5.794  0.00  0.00     0.020 C 
ATOM     27  C   UNL d   1       3.040  -1.692  -6.241  0.00  0.00     0.004 C 
ATOM     28  C   UNL d   1       2.770  -0.402  -5.785  0.00  0.00     0.039 C 
ATOM     29  C   UNL d   1       3.680   0.209  -4.938  0.00  0.00     0.099 C 
ATOM     30  C   UNL d   1       4.880  -0.419  -4.601  0.00  0.00     0.114 C 
BRANCH  29  31
ATOM     31  O   UNL d   1       3.447   1.432  -4.365  0.00  0.00    -0.358 OA
ATOM     32  H   UNL d   1       2.608   1.786  -4.707  0.00  0.00     0.217 HD
ENDBRANCH  29  31
BRANCH  30  33
ATOM     33  O   UNL d   1       5.770   0.327  -3.876  0.00  0.00    -0.357 OA
ATOM     34  H   UNL d   1       5.209   0.962  -3.387  0.00  0.00     0.217 HD
ENDBRANCH  30  33
ENDBRANCH  23  25
BRANCH  22  35
ATOM     35  C   UNL d   1       8.548  -2.232  -3.615  0.00  0.00     0.038 A 
ATOM     36  C   UNL d   1       9.077  -2.134  -4.915  0.00  0.00     0.030 A 
ATOM     37  C   UNL d   1      10.431  -2.403  -5.176  0.00  0.00     0.002 A 
ATOM     38  C   UNL d   1      11.294  -2.747  -4.141  0.00  0.00     0.000 A 
ATOM     39  C   UNL d   1      10.807  -2.797  -2.848  0.00  0.00     0.002 A 
ATOM     40  C   UNL d   1       9.466  -2.495  -2.593  0.00  0.00     0.030 A 
ENDBRANCH  22  35
ENDBRANCH   1  22
TORSDOF 12
