@<TRIPOS>MOLECULE
*****
 57 60 0 0 0
SMALL
GASTEIGER

@<TRIPOS>ATOM
      1 C           2.0239    2.4478    2.7653 C.3     1  UNL1       -0.0647
      2 C           2.3381    1.0356    2.2940 C.3     1  UNL1       -0.0493
      3 C           2.9800    1.0605    0.8947 C.3     1  UNL1       -0.0189
      4 C           2.4611   -0.1226    0.0658 C.3     1  UNL1       -0.0584
      5 C           4.5006    1.1319    0.8916 C.ar    1  UNL1       -0.0444
      6 C           5.3120    1.1433    2.0388 C.ar    1  UNL1       -0.0566
      7 C           6.7084    1.3016    1.9600 C.ar    1  UNL1       -0.0402
      8 C           7.3389    1.3709    0.7185 C.ar    1  UNL1        0.0334
      9 N           8.7644    1.4027    0.6398 N.am    1  UNL1       -0.2848
     10 C           9.4741    1.3648   -0.5564 C.2     1  UNL1        0.2275
     11 O           8.9256    1.3517   -1.6685 O.2     1  UNL1       -0.2746
     12 C          11.0066    1.3448   -0.4723 C.3     1  UNL1        0.0780
     13 S          11.6499    1.3915   -2.1960 S.3     1  UNL1       -0.0752
     14 C          13.3595    1.3332   -2.0615 C.ar    1  UNL1        0.2091
     15 N          14.1064    0.2597   -2.1789 N.ar    1  UNL1       -0.1205
     16 N          15.4171    0.6802   -2.3222 N.ar    1  UNL1       -0.1250
     17 C          15.4356    1.9987   -2.2350 C.ar    1  UNL1        0.2018
     18 C          16.6525    2.8583   -2.2341 C.ar    1  UNL1        0.1316
     19 C          16.9123    3.8592   -1.2718 C.ar    1  UNL1       -0.0055
     20 C          18.1120    4.4302   -1.6350 C.ar    1  UNL1        0.0664
     21 C          18.9542    5.3914   -0.9422 C.ar    1  UNL1       -0.0001
     22 C          19.4143    6.5561   -1.5660 C.ar    1  UNL1       -0.0512
     23 C          20.3263    7.3895   -0.9078 C.ar    1  UNL1       -0.0428
     24 C          20.7182    7.0994    0.3989 C.ar    1  UNL1        0.0410
     25 CL         21.7787    8.1659    1.2332 Cl      1  UNL1       -0.0835
     26 C          20.2337    5.9652    1.0433 C.ar    1  UNL1       -0.0428
     27 C          19.3534    5.1149    0.3729 C.ar    1  UNL1       -0.0512
     28 N          18.4909    3.7582   -2.7707 N.ar    1  UNL1       -0.2763
     29 N          17.6401    2.7782   -3.1339 N.ar    1  UNL1       -0.1701
     30 N          14.1474    2.4579   -2.0644 N.ar    1  UNL1       -0.2225
     31 N          13.7220    3.8305   -1.8529 N.pl3   1  UNL1       -0.2945
     32 C           6.5221    1.3696   -0.4155 C.ar    1  UNL1       -0.0402
     33 C           5.1387    1.2547   -0.3384 C.ar    1  UNL1       -0.0566
     34 H           1.6603    2.4289    3.7955 H       1  UNL1        0.0230
     35 H           1.2430    2.8868    2.1348 H       1  UNL1        0.0230
     36 H           2.9036    3.0978    2.7196 H       1  UNL1        0.0230
     37 H           1.4071    0.4591    2.2858 H       1  UNL1        0.0268
     38 H           2.9679    0.5318    3.0314 H       1  UNL1        0.0268
     39 H           2.6342    1.9712    0.3802 H       1  UNL1        0.0346
     40 H           2.8031   -1.0742    0.4818 H       1  UNL1        0.0236
     41 H           2.7915   -0.0713   -0.9776 H       1  UNL1        0.0236
     42 H           1.3653   -0.1224    0.0429 H       1  UNL1        0.0236
     43 H           4.8903    1.0271    3.0322 H       1  UNL1        0.0621
     44 H           7.2616    1.3643    2.8933 H       1  UNL1        0.0636
     45 H           9.2645    1.3587    1.5211 H       1  UNL1        0.1548
     46 H          11.3327    0.4314    0.0333 H       1  UNL1        0.0475
     47 H          11.3492    2.2293    0.0713 H       1  UNL1        0.0475
     48 H          16.3321    4.0852   -0.3885 H       1  UNL1        0.0662
     49 H          19.0628    6.8358   -2.5567 H       1  UNL1        0.0625
     50 H          20.7300    8.2605   -1.4178 H       1  UNL1        0.0632
     51 H          20.5443    5.7267    2.0569 H       1  UNL1        0.0632
     52 H          18.9932    4.2208    0.8785 H       1  UNL1        0.0625
     53 H          19.3411    3.8840   -3.3110 H       1  UNL1        0.1889
     54 H          14.3180    4.5023   -2.3387 H       1  UNL1        0.1627
     55 H          12.7665    3.9879   -2.1760 H       1  UNL1        0.1627
     56 H           6.9065    1.4598   -1.4214 H       1  UNL1        0.0636
     57 H           4.5798    1.2584   -1.2719 H       1  UNL1        0.0621
@<TRIPOS>BOND
     1     1     2    1
     2     3     5    1
     3     5     6   ar
     4     6     7   ar
     5     7     8   ar
     6     8     9    1
     7     9    10   am
     8    10    11    2
     9    10    12    1
    10    12    13    1
    11    13    14    1
    12    14    15   ar
    13    15    16   ar
    14    16    17   ar
    15    17    18    1
    16    18    19   ar
    17    19    20   ar
    18    20    21    1
    19    21    22   ar
    20    22    23   ar
    21    23    24   ar
    22    24    25    1
    23    24    26   ar
    24    26    27   ar
    25    21    27   ar
    26    20    28   ar
    27    28    29   ar
    28    18    29   ar
    29    17    30   ar
    30    14    30   ar
    31    30    31    1
    32     8    32   ar
    33    32    33   ar
    34     5    33   ar
    35     3     4    1
    36     3     2    1
    37     1    34    1
    38     1    35    1
    39     1    36    1
    40     2    37    1
    41     2    38    1
    42     3    39    1
    43     4    40    1
    44     4    41    1
    45     4    42    1
    46     6    43    1
    47     7    44    1
    48     9    45    1
    49    12    46    1
    50    12    47    1
    51    19    48    1
    52    22    49    1
    53    23    50    1
    54    26    51    1
    55    27    52    1
    56    28    53    1
    57    31    54    1
    58    31    55    1
    59    32    56    1
    60    33    57    1
