REMARK  5 active torsions:
REMARK  status: ('A' for Active; 'I' for Inactive)
REMARK       I    between atoms: N_2  and  C_3 
REMARK    1  A    between atoms: C_3  and  C_5 
REMARK    2  A    between atoms: C_8  and  N_9 
REMARK       I    between atoms: N_9  and  C_10 
REMARK    3  A    between atoms: C_10  and  C_12 
REMARK    4  A    between atoms: C_15  and  C_16 
REMARK    5  A    between atoms: C_16  and  O_17 
ROOT
ATOM      1  N   UNL d   1       8.982  -1.335   0.380  0.00  0.00    -0.323 N 
ATOM      2  C   UNL d   1       9.729  -0.459   1.163  0.00  0.00     0.256 C 
ATOM      3  O   UNL d   1       9.287   0.395   1.933  0.00  0.00    -0.267 OA
ATOM      4  H   UNL d   1       9.478  -2.004  -0.200  0.00  0.00     0.169 HD
ENDROOT
BRANCH   1   5
ATOM      5  C   UNL d   1       7.557  -1.339   0.303  0.00  0.00     0.035 A 
ATOM      6  C   UNL d   1       6.894  -2.230  -0.552  0.00  0.00     0.030 A 
ATOM      7  C   UNL d   1       5.490  -2.167  -0.703  0.00  0.00     0.019 A 
ATOM      8  C   UNL d   1       4.730  -1.250   0.039  0.00  0.00     0.032 A 
ATOM      9  C   UNL d   1       5.381  -0.394   0.918  0.00  0.00     0.019 A 
ATOM     10  C   UNL d   1       6.771  -0.449   1.045  0.00  0.00     0.030 A 
BRANCH   8  11
ATOM     11  C   UNL d   1       3.244  -1.286   0.005  0.00  0.00     0.251 C 
ATOM     12  N   UNL d   1       2.580  -0.077   0.065  0.00  0.00    -0.361 N 
ATOM     13  C   UNL d   1       1.136  -0.025   0.064  0.00  0.00     0.149 C 
ATOM     14  H   UNL d   1       3.098   0.792   0.035  0.00  0.00     0.162 HD
ATOM     15  O   UNL d   1       2.667  -2.373  -0.055  0.00  0.00    -0.268 OA
ENDBRANCH   8  11
ENDBRANCH   1   5
BRANCH   2  16
ATOM     16  C   UNL d   1      11.205  -0.507   1.083  0.00  0.00     0.032 A 
ATOM     17  C   UNL d   1      11.932  -0.293   2.266  0.00  0.00     0.017 A 
ATOM     18  C   UNL d   1      13.316  -0.107   2.226  0.00  0.00     0.010 A 
ATOM     19  C   UNL d   1      14.004  -0.197   1.009  0.00  0.00    -0.035 A 
ATOM     20  C   UNL d   1      13.261  -0.377  -0.171  0.00  0.00     0.010 A 
ATOM     21  C   UNL d   1      11.870  -0.535  -0.140  0.00  0.00     0.017 A 
BRANCH  19  22
ATOM     22  C   UNL d   1      15.513  -0.131   1.018  0.00  0.00     0.202 C 
BRANCH  22  23
ATOM     23  O   UNL d   1      16.075  -0.329  -0.274  0.00  0.00    -0.396 OA
ATOM     24  H   UNL d   1      15.744  -1.186  -0.591  0.00  0.00     0.209 HD
ENDBRANCH  22  23
ENDBRANCH  19  22
ENDBRANCH   2  16
TORSDOF 5
