REMARK  7 active torsions:
REMARK  status: ('A' for Active; 'I' for Inactive)
REMARK    1  A    between atoms: C_2  and  O_3 
REMARK    2  A    between atoms: O_3  and  C_4 
REMARK    3  A    between atoms: C_9  and  C_10 
REMARK    4  A    between atoms: C_10  and  C_11 
REMARK    5  A    between atoms: C_11  and  C_12 
REMARK       I    between atoms: C_12  and  N_14 
REMARK    6  A    between atoms: N_14  and  N_15 
REMARK       I    between atoms: N_15  and  C_16 
REMARK       I    between atoms: C_16  and  N_18 
REMARK    7  A    between atoms: N_18  and  C_19 
ROOT
ATOM      1  C   UNL d   1       2.741  -2.561  -1.684  0.00  0.00     0.236 C 
ATOM      2  O   UNL d   1       3.348  -3.545  -2.126  0.00  0.00    -0.272 OA
ATOM      3  N   UNL d   1       1.384  -2.616  -1.331  0.00  0.00    -0.266 N 
ATOM      4  H   UNL d   1       0.814  -1.847  -0.971  0.00  0.00     0.190 HD
ENDROOT
BRANCH   1   5
ATOM      5  C   UNL d   1       3.446  -1.264  -1.390  0.00  0.00     0.109 C 
BRANCH   5   6
ATOM      6  C   UNL d   1       4.868  -0.867  -1.629  0.00  0.00     0.051 C 
BRANCH   6   7
ATOM      7  C   UNL d   1       5.205   0.519  -1.050  0.00  0.00    -0.024 A 
ATOM      8  C   UNL d   1       6.575   0.859  -1.234  0.00  0.00     0.010 A 
ATOM      9  C   UNL d   1       7.098   2.093  -0.859  0.00  0.00     0.001 A 
ATOM     10  C   UNL d   1       6.257   3.031  -0.281  0.00  0.00     0.003 A 
ATOM     11  C   UNL d   1       4.913   2.706  -0.026  0.00  0.00     0.037 A 
ATOM     12  C   UNL d   1       4.355   1.460  -0.399  0.00  0.00     0.075 A 
BRANCH  12  13
ATOM     13  O   UNL d   1       2.968   1.433  -0.312  0.00  0.00    -0.351 OA
BRANCH  13  14
ATOM     14  C   UNL d   1       2.284   0.501   0.534  0.00  0.00     0.171 C 
ATOM     15  C   UNL d   1       0.777   0.461   0.338  0.00  0.00     0.034 C 
ENDBRANCH  13  14
ENDBRANCH  12  13
ENDBRANCH   6   7
ENDBRANCH   5   6
ENDBRANCH   1   5
BRANCH   3  16
ATOM     16  N   UNL d   1       0.684  -3.840  -1.528  0.00  0.00    -0.249 N 
ATOM     17  C   UNL d   1      -0.653  -3.977  -1.193  0.00  0.00     0.335 C 
ATOM     18  O   UNL d   1      -1.296  -3.071  -0.649  0.00  0.00    -0.246 OA
ATOM     19  N   UNL d   1      -1.200  -5.195  -1.556  0.00  0.00    -0.338 N 
ATOM     20  H   UNL d   1      -0.590  -5.895  -1.953  0.00  0.00     0.164 HD
ATOM     21  H   UNL d   1       1.242  -4.584  -1.933  0.00  0.00     0.192 HD
BRANCH  19  22
ATOM     22  C   UNL d   1      -2.614  -5.554  -1.336  0.00  0.00     0.078 C 
ATOM     23  C   UNL d   1      -3.557  -4.627  -2.105  0.00  0.00     0.032 C 
ATOM     24  C   UNL d   1      -2.928  -7.000  -1.753  0.00  0.00     0.032 C 
ENDBRANCH  19  22
ENDBRANCH   3  16
TORSDOF 7
