@<TRIPOS>MOLECULE
*****
 56 58 0 0 0
SMALL
GASTEIGER

@<TRIPOS>ATOM
      1 C           1.7890    1.3907  -12.0438 C.3     1  UNL1        0.0788
      2 O           1.1195    0.8460  -10.9061 O.3     1  UNL1       -0.4951
      3 C           1.1770    1.6838   -9.8263 C.ar    1  UNL1        0.1201
      4 C           1.3030    1.1240   -8.5586 C.ar    1  UNL1       -0.0194
      5 C           1.2719    1.9823   -7.4441 C.ar    1  UNL1       -0.0511
      6 C           1.1486    3.3999   -7.6134 C.ar    1  UNL1       -0.0246
      7 C           0.8766    4.3687   -6.5170 C.2     1  UNL1       -0.0497
      8 C           0.7964    5.7512   -6.4406 C.2     1  UNL1        0.0011
      9 C           0.4581    6.6389   -5.1330 C.2     1  UNL1        0.2424
     10 O          -0.1892    6.0848   -4.2231 O.2     1  UNL1       -0.2704
     11 N           0.9670    7.9712   -4.9656 N.am    1  UNL1       -0.2640
     12 C           1.2122    8.6339   -3.6993 C.2     1  UNL1        0.1411
     13 S           0.8912    7.9981   -2.1638 S.2     1  UNL1       -0.0182
     14 N           1.8471    9.9119   -3.8736 N.am    1  UNL1       -0.2960
     15 C           2.2942   10.6822   -2.7324 C.ar    1  UNL1        0.0448
     16 C           1.5523   11.8292   -2.3517 C.ar    1  UNL1       -0.0398
     17 C           1.8556   12.5330   -1.1744 C.ar    1  UNL1       -0.0600
     18 C           2.8713   12.0742   -0.3424 C.ar    1  UNL1       -0.0609
     19 C           3.6256   10.9530   -0.7194 C.ar    1  UNL1       -0.0478
     20 C           3.3778   10.2569   -1.9288 C.ar    1  UNL1        0.0578
     21 C           4.2607    9.0564   -2.2317 C.2     1  UNL1        0.2459
     22 O           5.0332    8.6413   -1.3703 O.2     1  UNL1       -0.2701
     23 N           4.1756    8.4312   -3.4766 N.am    1  UNL1       -0.3088
     24 C           4.6722    7.0494   -3.6524 C.3     1  UNL1        0.0382
     25 C           4.1528    6.3198   -4.9031 C.3     1  UNL1        0.0742
     26 C           4.5603    4.8712   -5.1399 C.3     1  UNL1       -0.0231
     27 C           3.5825    4.0170   -4.3500 C.3     1  UNL1       -0.0271
     28 C           2.4506    4.9353   -4.0781 C.3     1  UNL1        0.0482
     29 O           2.7631    6.1820   -4.7009 O.3     1  UNL1       -0.3750
     30 C           1.0862    3.9136   -8.8848 C.ar    1  UNL1       -0.0511
     31 C           1.0508    3.0665   -9.9690 C.ar    1  UNL1       -0.0194
     32 H           1.5923    0.7452  -12.8991 H       1  UNL1        0.0660
     33 H           2.8644    1.4289  -11.8457 H       1  UNL1        0.0660
     34 H           1.4325    2.3829  -12.3372 H       1  UNL1        0.0660
     35 H           1.3955    0.0418   -8.4411 H       1  UNL1        0.0654
     36 H           1.2949    1.5089   -6.4589 H       1  UNL1        0.0625
     37 H           0.7367    3.6979   -5.6741 H       1  UNL1        0.0625
     38 H           1.0207    6.3550   -7.3092 H       1  UNL1        0.0670
     39 H           1.5741    8.3018   -5.7035 H       1  UNL1        0.1568
     40 H           1.5029   10.4751   -4.6434 H       1  UNL1        0.1539
     41 H           0.6617   12.1332   -2.8990 H       1  UNL1        0.0636
     42 H           1.2754   13.4091   -0.8799 H       1  UNL1        0.0618
     43 H           3.0635   12.5705    0.6093 H       1  UNL1        0.0618
     44 H           4.4015   10.6031   -0.0382 H       1  UNL1        0.0626
     45 H           3.4672    8.7746   -4.1086 H       1  UNL1        0.1491
     46 H           4.3458    6.4915   -2.7692 H       1  UNL1        0.0487
     47 H           5.7574    7.1108   -3.6835 H       1  UNL1        0.0487
     48 H           4.3343    6.9326   -5.7980 H       1  UNL1        0.0611
     49 H           5.5920    4.6545   -4.8779 H       1  UNL1        0.0291
     50 H           4.4211    4.6534   -6.2120 H       1  UNL1        0.0291
     51 H           3.9399    3.7444   -3.3620 H       1  UNL1        0.0288
     52 H           3.2869    3.0991   -4.8801 H       1  UNL1        0.0288
     53 H           2.1399    5.0241   -3.0409 H       1  UNL1        0.0560
     54 H           1.5319    4.5347   -4.4381 H       1  UNL1        0.0560
     55 H           0.9734    4.9746   -9.0450 H       1  UNL1        0.0625
     56 H           0.8700    3.5465  -10.9187 H       1  UNL1        0.0654
@<TRIPOS>BOND
     1     1     2    1
     2     2     3    1
     3     3     4   ar
     4     4     5   ar
     5     5     6   ar
     6     6     7    1
     7     7     8    2
     8     8     9    1
     9     9    10    2
    10     9    11   am
    11    11    12    1
    12    12    13    2
    13    12    14    1
    14    14    15    1
    15    15    16   ar
    16    16    17   ar
    17    17    18   ar
    18    18    19   ar
    19    19    20   ar
    20    15    20   ar
    21    20    21    1
    22    21    22    2
    23    21    23   am
    24    23    24    1
    25    25    26    1
    26    26    27    1
    27    27    28    1
    28    28    29    1
    29    25    29    1
    30     6    30   ar
    31    30    31   ar
    32     3    31   ar
    33    25    24    1
    34     1    32    1
    35     1    33    1
    36     1    34    1
    37     4    35    1
    38     5    36    1
    39     7    37    1
    40     8    38    1
    41    11    39    1
    42    14    40    1
    43    16    41    1
    44    17    42    1
    45    18    43    1
    46    19    44    1
    47    23    45    1
    48    24    46    1
    49    24    47    1
    50    25    48    1
    51    26    49    1
    52    26    50    1
    53    27    51    1
    54    27    52    1
    55    28    53    1
    56    28    54    1
    57    30    55    1
    58    31    56    1
