REMARK  10 active torsions:
REMARK  status: ('A' for Active; 'I' for Inactive)
REMARK    1  A    between atoms: C_2  and  C_3 
REMARK    2  A    between atoms: C_3  and  C_4 
REMARK    3  A    between atoms: C_3  and  N_32 
REMARK    4  A    between atoms: C_7  and  S_8 
REMARK    5  A    between atoms: S_8  and  C_9 
REMARK    6  A    between atoms: C_9  and  C_10 
REMARK    7  A    between atoms: C_12  and  C_10 
REMARK    8  A    between atoms: C_12  and  C_15 
REMARK    9  A    between atoms: N_24  and  C_25 
REMARK   10  A    between atoms: C_25  and  C_26 
ROOT
ATOM      1  C   UNL d   1       3.427   9.191   2.014  0.00  0.00     0.232 C 
ATOM      2  C   UNL d   1       2.960   8.043   2.863  0.00  0.00     0.079 C 
ATOM      3  N   UNL d   1       2.622   7.125   3.453  0.00  0.00    -0.196 NA
ENDROOT
BRANCH   1   4
ATOM      4  C   UNL d   1       3.471  10.469   2.821  0.00  0.00     0.130 A 
ATOM      5  N   UNL d   1       3.566  10.406   4.123  0.00  0.00    -0.232 NA
ATOM      6  C   UNL d   1       3.579  11.677   4.573  0.00  0.00     0.082 A 
ATOM      7  C   UNL d   1       3.580  12.065   5.897  0.00  0.00     0.017 C 
ATOM      8  C   UNL d   1       3.597  12.636   3.562  0.00  0.00     0.062 A 
ATOM      9  C   UNL d   1       3.458  13.413   6.165  0.00  0.00     0.044 C 
ATOM     10  C   UNL d   1       3.923  14.363   5.306  0.00  0.00    -0.015 C 
ATOM     11  C   UNL d   1       3.739  14.047   3.923  0.00  0.00     0.028 C 
ATOM     12  N   UNL d   1       3.457  11.821   2.419  0.00  0.00    -0.341 N 
ATOM     13  H   UNL d   1       3.406  12.131   1.456  0.00  0.00     0.167 HD
ENDBRANCH   1   4
BRANCH   1  14
ATOM     14  C   UNL d   1       2.465   9.294   0.843  0.00  0.00     0.161 C 
ATOM     15  O   UNL d   1       1.330   9.746   0.955  0.00  0.00    -0.295 OA
BRANCH  14  16
ATOM     16  C   UNL d   1       3.009   8.807  -0.474  0.00  0.00     0.162 C 
BRANCH  16  17
ATOM     17  S   UNL d   1       1.908   8.982  -1.905  0.00  0.00    -0.083 SA
BRANCH  17  18
ATOM     18  C   UNL d   1       2.728   8.465  -3.368  0.00  0.00     0.192 C 
ATOM     19  N   UNL d   1       2.139   8.388  -4.542  0.00  0.00    -0.122 NA
ATOM     20  N   UNL d   1       3.014   7.817  -5.437  0.00  0.00    -0.132 NA
ATOM     21  C   UNL d   1       4.141   7.546  -4.809  0.00  0.00     0.162 C 
ATOM     22  N   UNL d   1       4.041   8.033  -3.507  0.00  0.00    -0.305 N 
BRANCH  21  23
ATOM     23  C   UNL d   1       5.304   6.768  -5.384  0.00  0.00     0.258 C 
BRANCH  23  24
ATOM     24  C   UNL d   1       5.579   6.894  -6.875  0.00  0.00     0.037 C 
ATOM     25  C   UNL d   1       5.716   8.334  -7.327  0.00  0.00     0.007 C 
ENDBRANCH  23  24
BRANCH  23  26
ATOM     26  N   UNL d   1       5.333   5.261  -5.012  0.00  0.00    -0.068 N 
ATOM     27  C   UNL d   1       6.690   4.629  -5.286  0.00  0.00     0.270 C 
ATOM     28  C   UNL d   1       5.059   5.068  -3.584  0.00  0.00     0.270 C 
ATOM     29  H   UNL d   1       4.585   4.790  -5.529  0.00  0.00     0.279 HD
ENDBRANCH  23  26
ENDBRANCH  21  23
BRANCH  22  30
ATOM     30  C   UNL d   1       4.948   7.973  -2.349  0.00  0.00     0.171 C 
BRANCH  30  31
ATOM     31  C   UNL d   1       6.397   7.587  -2.410  0.00  0.00    -0.040 C 
ATOM     32  C   UNL d   1       6.884   6.443  -1.711  0.00  0.00     0.009 C 
ATOM     33  C   UNL d   1       8.033   5.803  -2.189  0.00  0.00     0.001 C 
ATOM     34  C   UNL d   1       8.753   6.384  -3.235  0.00  0.00     0.000 C 
ATOM     35  C   UNL d   1       8.355   7.609  -3.782  0.00  0.00     0.001 C 
ATOM     36  C   UNL d   1       7.205   8.244  -3.331  0.00  0.00     0.009 C 
ENDBRANCH  30  31
ENDBRANCH  22  30
ENDBRANCH  17  18
ENDBRANCH  16  17
ENDBRANCH  14  16
ENDBRANCH   1  14
TORSDOF 10
