@<TRIPOS>MOLECULE
*****
 53 54 0 0 0
SMALL
GASTEIGER

@<TRIPOS>ATOM
      1 C           1.0228   -0.0121    0.1042 C.3     1  UNL1       -0.0135
      2 S           2.8413   -0.1069    0.0212 S.3     1  UNL1       -0.1286
      3 C           3.2586    0.5454    1.6268 C.ar    1  UNL1        0.0076
      4 C           3.6132   -0.2969    2.6815 C.ar    1  UNL1       -0.0480
      5 C           3.8339    0.2270    3.9687 C.ar    1  UNL1       -0.0560
      6 C           3.8103    1.6160    4.2066 C.ar    1  UNL1       -0.0302
      7 C           4.1776    2.1487    5.5854 C.3     1  UNL1        0.0373
      8 N           4.1938    3.5959    5.7212 N.am    1  UNL1       -0.3035
      9 C           4.5369    4.2673    6.8761 C.2     1  UNL1        0.2996
     10 O           4.8653    3.7538    7.9413 O.2     1  UNL1       -0.2652
     11 C           4.4656    5.8101    6.7320 C.2     1  UNL1        0.3031
     12 O           4.0976    6.2588    5.6485 O.2     1  UNL1       -0.2648
     13 N           4.8618    6.5541    7.8426 N.am    1  UNL1       -0.2777
     14 C           4.7695    7.9666    7.8880 C.ar    1  UNL1        0.0345
     15 C           5.7355    8.7485    8.5182 C.ar    1  UNL1       -0.0402
     16 C           5.6028   10.1478    8.5343 C.ar    1  UNL1       -0.0564
     17 C           4.5138   10.7862    7.9107 C.ar    1  UNL1       -0.0382
     18 C           4.5100   12.2928    7.8145 C.3     1  UNL1       -0.0390
     19 C           3.4932    9.9912    7.3454 C.ar    1  UNL1        0.0414
     20 C           2.2384   10.6121    6.8009 C.2     1  UNL1        0.2446
     21 O           2.0631   11.8254    6.8641 O.2     1  UNL1       -0.2702
     22 N           1.2759    9.7871    6.2445 N.am    1  UNL1       -0.3090
     23 C           0.0572   10.3417    5.6753 C.3     1  UNL1        0.0178
     24 C           0.3755   11.2622    4.4974 C.3     1  UNL1       -0.0469
     25 C          -0.8718    9.2245    5.2072 C.3     1  UNL1       -0.0469
     26 C           3.6551    8.5967    7.3293 C.ar    1  UNL1       -0.0281
     27 C           3.4922    2.4438    3.1206 C.ar    1  UNL1       -0.0560
     28 C           3.2285    1.9189    1.8497 C.ar    1  UNL1       -0.0480
     29 H           0.6071   -0.3635   -0.8455 H       1  UNL1        0.0344
     30 H           0.6730    1.0123    0.2666 H       1  UNL1        0.0344
     31 H           0.6376   -0.6548    0.9012 H       1  UNL1        0.0344
     32 H           3.7257   -1.3663    2.5110 H       1  UNL1        0.0629
     33 H           4.0265   -0.4707    4.7834 H       1  UNL1        0.0621
     34 H           5.1840    1.7941    5.8398 H       1  UNL1        0.0512
     35 H           3.4827    1.7521    6.3349 H       1  UNL1        0.0512
     36 H           3.9946    4.1964    4.9286 H       1  UNL1        0.1495
     37 H           5.2953    6.0571    8.6158 H       1  UNL1        0.1553
     38 H           6.6416    8.3093    8.9277 H       1  UNL1        0.0636
     39 H           6.3678   10.7512    9.0234 H       1  UNL1        0.0621
     40 H           5.4012   12.7381    8.2669 H       1  UNL1        0.0278
     41 H           3.6457   12.7251    8.3271 H       1  UNL1        0.0278
     42 H           4.5090   12.5928    6.7588 H       1  UNL1        0.0278
     43 H           1.3808    8.7862    6.2219 H       1  UNL1        0.1493
     44 H          -0.4396   10.9151    6.4677 H       1  UNL1        0.0493
     45 H           0.9065   10.7137    3.7121 H       1  UNL1        0.0247
     46 H           1.0138   12.1010    4.7882 H       1  UNL1        0.0247
     47 H          -0.5399   11.6871    4.0782 H       1  UNL1        0.0247
     48 H          -0.3935    8.6180    4.4292 H       1  UNL1        0.0247
     49 H          -1.7962    9.6401    4.7928 H       1  UNL1        0.0247
     50 H          -1.1376    8.5547    6.0315 H       1  UNL1        0.0247
     51 H           2.8928    7.9576    6.9082 H       1  UNL1        0.0644
     52 H           3.4333    3.5211    3.2181 H       1  UNL1        0.0621
     53 H           3.0130    2.6063    1.0353 H       1  UNL1        0.0629
@<TRIPOS>BOND
     1     1     2    1
     2     2     3    1
     3     3     4   ar
     4     4     5   ar
     5     5     6   ar
     6     6     7    1
     7     7     8    1
     8     8     9   am
     9     9    10    2
    10     9    11    1
    11    11    12    2
    12    11    13   am
    13    13    14    1
    14    14    15   ar
    15    15    16   ar
    16    16    17   ar
    17    17    18    1
    18    17    19   ar
    19    19    20    1
    20    20    21    2
    21    20    22   am
    22    22    23    1
    23    23    24    1
    24    23    25    1
    25    19    26   ar
    26    14    26   ar
    27     6    27   ar
    28    27    28   ar
    29     3    28   ar
    30     1    29    1
    31     1    30    1
    32     1    31    1
    33     4    32    1
    34     5    33    1
    35     7    34    1
    36     7    35    1
    37     8    36    1
    38    13    37    1
    39    15    38    1
    40    16    39    1
    41    18    40    1
    42    18    41    1
    43    18    42    1
    44    22    43    1
    45    23    44    1
    46    24    45    1
    47    24    46    1
    48    24    47    1
    49    25    48    1
    50    25    49    1
    51    25    50    1
    52    26    51    1
    53    27    52    1
    54    28    53    1
