REMARK  4 active torsions:
REMARK  status: ('A' for Active; 'I' for Inactive)
REMARK       I    between atoms: C_2  and  N_3 
REMARK    1  A    between atoms: C_2  and  C_11 
REMARK    2  A    between atoms: N_3  and  C_4 
REMARK    3  A    between atoms: C_13  and  O_14 
REMARK    4  A    between atoms: C_16  and  O_17 
ROOT
ATOM      1  O   UNL d   1       0.937  -0.012  -0.153  0.00  0.00    -0.267 OA
ATOM      2  C   UNL d   1       2.164  -0.020  -0.019  0.00  0.00     0.256 C 
ATOM      3  N   UNL d   1       2.847   0.454   1.100  0.00  0.00    -0.323 N 
ATOM      4  H   UNL d   1       3.823   0.707   0.994  0.00  0.00     0.169 HD
ENDROOT
BRANCH   2   5
ATOM      5  C   UNL d   1       2.963  -0.514  -1.172  0.00  0.00     0.037 A 
ATOM      6  C   UNL d   1       2.582  -0.161  -2.482  0.00  0.00     0.053 A 
ATOM      7  C   UNL d   1       3.248  -0.725  -3.571  0.00  0.00     0.069 A 
ATOM      8  C   UNL d   1       4.262  -1.658  -3.382  0.00  0.00     0.073 A 
ATOM      9  C   UNL d   1       4.622  -2.008  -2.083  0.00  0.00     0.069 A 
ATOM     10  C   UNL d   1       3.991  -1.440  -0.976  0.00  0.00     0.053 A 
BRANCH   7  11
ATOM     11  O   UNL d   1       2.936  -0.405  -4.862  0.00  0.00    -0.361 OA
ATOM     12  H   UNL d   1       2.224   0.257  -4.873  0.00  0.00     0.217 HD
ENDBRANCH   7  11
BRANCH   9  13
ATOM     13  O   UNL d   1       5.593  -2.936  -1.845  0.00  0.00    -0.361 OA
ATOM     14  H   UNL d   1       5.922  -3.274  -2.696  0.00  0.00     0.217 HD
ENDBRANCH   9  13
ENDBRANCH   2   5
BRANCH   3  15
ATOM     15  C   UNL d   1       2.150   0.947   2.237  0.00  0.00     0.036 A 
ATOM     16  C   UNL d   1       1.058   0.235   2.751  0.00  0.00     0.029 A 
ATOM     17  C   UNL d   1       0.324   0.720   3.837  0.00  0.00     0.004 A 
ATOM     18  C   UNL d   1       0.659   1.942   4.408  0.00  0.00     0.024 A 
ATOM     19  C   UNL d   1       1.755   2.650   3.914  0.00  0.00     0.036 A 
ATOM     20 CL   UNL d   1       2.126   4.189   4.598  0.00  0.00    -0.084 Cl
ATOM     21  C   UNL d   1       2.528   2.143   2.857  0.00  0.00     0.053 A 
ENDBRANCH   3  15
TORSDOF 4
