REMARK  5 active torsions:
REMARK  status: ('A' for Active; 'I' for Inactive)
REMARK    1  A    between atoms: C_5  and  N_6 
REMARK    2  A    between atoms: N_6  and  C_7 
REMARK    3  A    between atoms: C_9  and  C_10 
REMARK       I    between atoms: C_10  and  N_12 
REMARK    4  A    between atoms: N_12  and  C_13 
REMARK    5  A    between atoms: C_16  and  C_17 
REMARK       I    between atoms: C_17  and  N_18 
ROOT
ATOM      1  C   UNL d   1      -2.423  -3.260   0.102  0.00  0.00     0.171 A 
ATOM      2  N   UNL d   1      -1.858  -3.991   1.047  0.00  0.00    -0.218 NA
ATOM      3  C   UNL d   1      -2.009  -5.348   0.777  0.00  0.00     0.134 A 
ATOM      4  C   UNL d   1      -2.680  -5.612  -0.406  0.00  0.00     0.090 A 
ATOM      5  S   UNL d   1      -3.199  -4.162  -1.147  0.00  0.00    -0.061 SA
ENDROOT
BRANCH   3   6
ATOM      6  C   UNL d   1      -1.504  -6.420   1.651  0.00  0.00     0.275 C 
ATOM      7  O   UNL d   1      -1.667  -7.602   1.327  0.00  0.00    -0.266 OA
ATOM      8  N   UNL d   1      -0.916  -6.021   2.842  0.00  0.00    -0.322 N 
ATOM      9  H   UNL d   1      -0.980  -5.034   3.079  0.00  0.00     0.169 HD
BRANCH   8  10
ATOM     10  C   UNL d   1      -0.298  -6.904   3.764  0.00  0.00     0.035 A 
ATOM     11  C   UNL d   1      -0.283  -6.590   5.125  0.00  0.00     0.030 A 
ATOM     12  C   UNL d   1       0.440  -7.380   6.039  0.00  0.00     0.019 A 
ATOM     13  C   UNL d   1       1.115  -8.532   5.617  0.00  0.00     0.032 A 
ATOM     14  C   UNL d   1       1.089  -8.852   4.254  0.00  0.00     0.019 A 
ATOM     15  C   UNL d   1       0.379  -8.054   3.342  0.00  0.00     0.030 A 
BRANCH  13  16
ATOM     16  C   UNL d   1       1.821  -9.454   6.562  0.00  0.00     0.249 C 
ATOM     17  N   UNL d   1       1.803  -9.162   7.899  0.00  0.00    -0.366 N 
ATOM     18  H   UNL d   1       1.328  -8.380   8.319  0.00  0.00     0.159 HD
ATOM     19  H   UNL d   1       2.242  -9.828   8.523  0.00  0.00     0.159 HD
ATOM     20  O   UNL d   1       2.389 -10.470   6.169  0.00  0.00    -0.268 OA
ENDBRANCH  13  16
ENDBRANCH   8  10
ENDBRANCH   3   6
BRANCH   1  21
ATOM     21  N   UNL d   1      -2.408  -1.905   0.065  0.00  0.00    -0.335 N 
ATOM     22  H   UNL d   1      -3.263  -1.436  -0.196  0.00  0.00     0.168 HD
BRANCH  21  23
ATOM     23  C   UNL d   1      -1.227  -1.128   0.004  0.00  0.00     0.040 A 
ATOM     24  C   UNL d   1       0.030  -1.761   0.005  0.00  0.00     0.030 A 
ATOM     25  C   UNL d   1       1.225  -1.050   0.005  0.00  0.00     0.009 A 
ATOM     26  C   UNL d   1       1.211   0.339   0.002  0.00  0.00    -0.061 A 
ATOM     27  C   UNL d   1       2.510   1.089   0.008  0.00  0.00     0.048 C 
ATOM     28  C   UNL d   1      -0.027   0.999  -0.004  0.00  0.00     0.015 A 
ATOM     29  C   UNL d   1      -1.252   0.283   0.005  0.00  0.00    -0.035 A 
ATOM     30  C   UNL d   1      -2.529   1.085   0.001  0.00  0.00     0.050 C 
ENDBRANCH  21  23
ENDBRANCH   1  21
TORSDOF 5
