@<TRIPOS>MOLECULE
*****
 56 60 0 0 0
SMALL
GASTEIGER

@<TRIPOS>ATOM
      1 C           0.8775    0.0629   -0.0160 C.3     1  UNL1       -0.0652
      2 C           2.3928    0.0193    0.0017 C.3     1  UNL1       -0.0545
      3 C           2.8286   -1.3822    0.4457 C.3     1  UNL1       -0.0369
      4 C           4.3176   -1.5198    0.4457 C.3     1  UNL1        0.0223
      5 N           4.8916   -2.8371    0.8104 N.am    1  UNL1       -0.2416
      6 C           6.2005   -2.8709    0.7484 C.2     1  UNL1        0.2272
      7 O           6.7450   -2.0188    0.0477 O.2     1  UNL1       -0.2748
      8 C           6.7277   -4.1488    1.3710 C.3     1  UNL1        0.0653
      9 C           8.2311   -4.2963    1.1597 C.3     1  UNL1        0.0247
     10 C           8.9580   -3.0321    0.6529 C.3     1  UNL1       -0.0114
     11 C           8.7510   -1.8255    1.5865 C.ar    1  UNL1       -0.0456
     12 C           8.1428   -1.9292    2.8609 C.ar    1  UNL1       -0.0551
     13 C           7.6215   -0.8097    3.5121 C.ar    1  UNL1       -0.0199
     14 C           7.8522    0.4454    2.9743 C.ar    1  UNL1        0.1169
     15 O           7.4113    1.5750    3.5965 O.3     1  UNL1       -0.5068
     16 C           8.5238    0.5863    1.7659 C.ar    1  UNL1       -0.0199
     17 C           8.9057   -0.5439    1.0413 C.ar    1  UNL1       -0.0551
     18 N           8.3935   -5.3715    0.2158 N.3     1  UNL1       -0.2950
     19 C           7.0539   -5.9304   -0.1223 C.3     1  UNL1        0.1357
     20 C           6.9728   -5.9634   -1.6820 C.2     1  UNL1        0.2428
     21 O           6.9336   -5.0198   -2.4317 O.2     1  UNL1       -0.2730
     22 N           7.0370   -7.3098   -2.0709 N.am    1  UNL1       -0.2834
     23 C           7.1544   -8.1722   -0.9932 C.ar    1  UNL1        0.0390
     24 C           7.2571   -9.5555   -1.0359 C.ar    1  UNL1       -0.0391
     25 C           7.4222  -10.2411    0.1717 C.ar    1  UNL1       -0.0460
     26 C           7.5334   -9.5233    1.3722 C.ar    1  UNL1        0.0183
     27 BR          7.7832  -10.4818    2.9890 Br      1  UNL1       -0.0503
     28 C           7.4396   -8.1197    1.3950 C.ar    1  UNL1       -0.0406
     29 C           7.1833   -7.4449    0.1979 C.ar    1  UNL1        0.0045
     30 C           5.8772   -5.1681    0.6285 C.3     1  UNL1        0.0795
     31 C           4.5598   -4.1422    0.5954 C.2     1  UNL1        0.2283
     32 O           3.3982   -4.5286    0.6997 O.2     1  UNL1       -0.2748
     33 H           0.5147    1.0442   -0.3294 H       1  UNL1        0.0230
     34 H           0.4835   -0.1542    0.9819 H       1  UNL1        0.0230
     35 H           0.4873   -0.6906   -0.7080 H       1  UNL1        0.0230
     36 H           2.7810    0.7910    0.6797 H       1  UNL1        0.0263
     37 H           2.7806    0.2546   -0.9988 H       1  UNL1        0.0263
     38 H           2.4267   -2.1202   -0.2512 H       1  UNL1        0.0280
     39 H           2.4477   -1.5914    1.4483 H       1  UNL1        0.0280
     40 H           4.7588   -0.7582    1.1214 H       1  UNL1        0.0469
     41 H           4.6949   -1.2453   -0.5515 H       1  UNL1        0.0469
     42 H           6.4778   -4.2560    2.4360 H       1  UNL1        0.0418
     43 H           8.7052   -4.5921    2.1043 H       1  UNL1        0.0471
     44 H          10.0186   -3.1873    0.4500 H       1  UNL1        0.0328
     45 H           8.5702   -2.8343   -0.3645 H       1  UNL1        0.0328
     46 H           7.9411   -2.8895    3.3247 H       1  UNL1        0.0621
     47 H           7.0298   -0.9440    4.4131 H       1  UNL1        0.0654
     48 H           6.9355    1.3227    4.4041 H       1  UNL1        0.2921
     49 H           8.7020    1.5734    1.3548 H       1  UNL1        0.0654
     50 H           9.1975   -0.4308   -0.0023 H       1  UNL1        0.0621
     51 H           9.0472   -6.0701    0.5769 H       1  UNL1        0.1235
     52 H           7.0436   -7.5834   -3.0421 H       1  UNL1        0.1549
     53 H           7.1966  -10.1080   -1.9680 H       1  UNL1        0.0636
     54 H           7.4657  -11.3302    0.1729 H       1  UNL1        0.0629
     55 H           7.5818   -7.5873    2.3306 H       1  UNL1        0.0633
     56 H           5.3828   -5.9952    1.1528 H       1  UNL1        0.0429
@<TRIPOS>BOND
     1     1     2    1
     2     2     3    1
     3     3     4    1
     4     4     5    1
     5     5     6   am
     6     6     7    2
     7     6     8    1
     8     8     9    1
     9    10    11    1
    10    11    12   ar
    11    12    13   ar
    12    13    14   ar
    13    14    15    1
    14    14    16   ar
    15    16    17   ar
    16    11    17   ar
    17     9    18    1
    18    18    19    1
    19    19    20    1
    20    20    21    2
    21    20    22   am
    22    22    23    1
    23    23    24   ar
    24    24    25   ar
    25    25    26   ar
    26    26    27    1
    27    26    28   ar
    28    28    29   ar
    29    23    29   ar
    30    19    29    1
    31    19    30    1
    32     8    30    1
    33    30    31    1
    34     5    31   am
    35    31    32    2
    36     9    10    1
    37     1    33    1
    38     1    34    1
    39     1    35    1
    40     2    36    1
    41     2    37    1
    42     3    38    1
    43     3    39    1
    44     4    40    1
    45     4    41    1
    46     8    42    1
    47     9    43    1
    48    10    44    1
    49    10    45    1
    50    12    46    1
    51    13    47    1
    52    15    48    1
    53    16    49    1
    54    17    50    1
    55    18    51    1
    56    22    52    1
    57    24    53    1
    58    25    54    1
    59    28    55    1
    60    30    56    1
