REMARK  6 active torsions:
REMARK  status: ('A' for Active; 'I' for Inactive)
REMARK    1  A    between atoms: C_2  and  C_3 
REMARK       I    between atoms: C_2  and  N_23 
REMARK    2  A    between atoms: C_3  and  N_4 
REMARK    3  A    between atoms: C_6  and  N_7 
REMARK       I    between atoms: N_7  and  C_8 
REMARK    4  A    between atoms: C_8  and  C_10 
REMARK    5  A    between atoms: C_15  and  O_16 
REMARK    6  A    between atoms: N_23  and  C_24 
ROOT
ATOM      1  N   UNL d   1      -0.583   2.514  -3.814  0.00  0.00    -0.320 N 
ATOM      2  C   UNL d   1      -1.257   1.356  -4.191  0.00  0.00     0.259 C 
ATOM      3  O   UNL d   1      -0.928   0.205  -3.900  0.00  0.00    -0.267 OA
ATOM      4  H   UNL d   1      -0.923   3.419  -4.113  0.00  0.00     0.169 HD
ENDROOT
BRANCH   1   5
ATOM      5  C   UNL d   1       0.510   2.501  -2.955  0.00  0.00     0.071 A 
ATOM      6  C   UNL d   1       1.087   1.401  -2.374  0.00  0.00     0.144 A 
ATOM      7  N   UNL d   1       2.064   1.851  -1.539  0.00  0.00    -0.270 N 
ATOM      8  N   UNL d   1       2.266   3.185  -1.639  0.00  0.00    -0.182 NA
ATOM      9  C   UNL d   1       1.283   3.579  -2.461  0.00  0.00     0.169 A 
BRANCH   7  10
ATOM     10  C   UNL d   1       2.990   1.010  -0.798  0.00  0.00     0.253 C 
BRANCH  10  11
ATOM     11  C   UNL d   1       2.318   0.004   0.125  0.00  0.00     0.237 C 
ATOM     12  O   UNL d   1       1.101  -0.087   0.277  0.00  0.00    -0.272 OA
ATOM     13  N   UNL d   1       3.108  -0.880   0.825  0.00  0.00    -0.355 N 
ATOM     14  H   UNL d   1       2.567  -1.480   1.441  0.00  0.00     0.162 HD
BRANCH  13  15
ATOM     15  C   UNL d   1       4.558  -0.939   0.877  0.00  0.00     0.084 C 
ATOM     16  C   UNL d   1       5.096  -2.150   1.643  0.00  0.00     0.025 C 
ATOM     17  C   UNL d   1       6.540  -2.279   1.161  0.00  0.00     0.002 C 
ATOM     18  C   UNL d   1       6.554  -1.740  -0.262  0.00  0.00     0.002 C 
ATOM     19  C   UNL d   1       5.181  -1.148  -0.499  0.00  0.00     0.025 C 
ENDBRANCH  13  15
ENDBRANCH  10  11
ENDBRANCH   7  10
ENDBRANCH   1   5
BRANCH   2  20
ATOM     20  C   UNL d   1      -2.447   1.522  -5.062  0.00  0.00     0.066 A 
ATOM     21  C   UNL d   1      -2.374   2.321  -6.210  0.00  0.00     0.027 A 
ATOM     22  C   UNL d   1      -3.460   2.386  -7.102  0.00  0.00    -0.051 A 
ATOM     23  C   UNL d   1      -4.639   1.664  -6.824  0.00  0.00    -0.049 A 
ATOM     24  C   UNL d   1      -3.348   3.266  -8.326  0.00  0.00     0.039 C 
ATOM     25  C   UNL d   1      -4.696   0.844  -5.688  0.00  0.00     0.045 A 
ATOM     26  C   UNL d   1      -5.833   1.715  -7.753  0.00  0.00     0.039 C 
ATOM     27  C   UNL d   1      -3.611   0.782  -4.811  0.00  0.00     0.082 A 
ATOM     28  C   UNL d   1      -5.784   2.912  -8.699  0.00  0.00     0.005 C 
ATOM     29  C   UNL d   1      -4.419   2.964  -9.373  0.00  0.00     0.005 C 
BRANCH  27  30
ATOM     30  O   UNL d   1      -3.706   0.015  -3.683  0.00  0.00    -0.360 OA
ATOM     31  H   UNL d   1      -4.525  -0.502  -3.687  0.00  0.00     0.217 HD
ENDBRANCH  27  30
ENDBRANCH   2  20
TORSDOF 6
