REMARK  8 active torsions:
REMARK  status: ('A' for Active; 'I' for Inactive)
REMARK    1  A    between atoms: O_2  and  C_3 
REMARK    2  A    between atoms: C_6  and  C_7 
REMARK    3  A    between atoms: C_7  and  C_8 
REMARK    4  A    between atoms: C_8  and  C_9 
REMARK    5  A    between atoms: C_9  and  C_10 
REMARK       I    between atoms: C_10  and  N_12 
REMARK    6  A    between atoms: N_12  and  N_13 
REMARK       I    between atoms: N_13  and  C_14 
REMARK    7  A    between atoms: C_14  and  C_16 
REMARK    8  A    between atoms: C_16  and  C_17 
ROOT
ATOM      1  C   UNL d   1       4.722   3.651   7.858  0.00  0.00     0.236 C 
ATOM      2  O   UNL d   1       3.652   3.049   7.970  0.00  0.00    -0.272 OA
ATOM      3  N   UNL d   1       5.310   4.344   8.956  0.00  0.00    -0.268 N 
ATOM      4  H   UNL d   1       6.192   4.841   8.867  0.00  0.00     0.190 HD
ENDROOT
BRANCH   3   5
ATOM      5  N   UNL d   1       4.680   4.288  10.417  0.00  0.00    -0.268 N 
ATOM      6  C   UNL d   1       5.301   4.912  11.622  0.00  0.00     0.236 C 
ATOM      7  O   UNL d   1       6.313   5.600  11.447  0.00  0.00    -0.272 OA
ATOM      8  H   UNL d   1       3.769   3.831  10.391  0.00  0.00     0.190 HD
BRANCH   6   9
ATOM      9  C   UNL d   1       4.532   4.638  13.219  0.00  0.00     0.118 C 
BRANCH   9  10
ATOM     10  C   UNL d   1       4.841   5.439  14.846  0.00  0.00     0.014 C 
ATOM     11  C   UNL d   1       4.212   6.622  14.736  0.00  0.00     0.090 C 
ATOM     12  N   UNL d   1       5.252   7.232  15.369  0.00  0.00    -0.288 NA
ATOM     13  C   UNL d   1       4.994   6.887  16.662  0.00  0.00     0.001 A 
ATOM     14  H   UNL d   1       6.224   7.225  15.096  0.00  0.00     0.128 HD
ATOM     15  C   UNL d   1       5.067   7.928  17.675  0.00  0.00     0.020 A 
ATOM     16  C   UNL d   1       4.638   5.356  16.601  0.00  0.00     0.042 A 
ATOM     17  C   UNL d   1       4.726   7.795  18.984  0.00  0.00     0.001 A 
ATOM     18  C   UNL d   1       4.308   6.533  19.240  0.00  0.00    -0.003 A 
ATOM     19  C   UNL d   1       4.304   5.511  18.124  0.00  0.00    -0.009 A 
ENDBRANCH   9  10
ENDBRANCH   6   9
ENDBRANCH   3   5
BRANCH   1  20
ATOM     20  C   UNL d   1       5.488   3.668   6.468  0.00  0.00     0.105 C 
BRANCH  20  21
ATOM     21  C   UNL d   1       4.757   2.867   5.356  0.00  0.00     0.014 C 
BRANCH  21  22
ATOM     22  C   UNL d   1       5.444   2.811   3.965  0.00  0.00     0.039 C 
BRANCH  22  23
ATOM     23  C   UNL d   1       4.650   2.042   2.913  0.00  0.00    -0.058 A 
ATOM     24  C   UNL d   1       5.107   1.956   1.588  0.00  0.00     0.010 A 
ATOM     25  C   UNL d   1       4.314   1.354   0.596  0.00  0.00     0.037 A 
ATOM     26  C   UNL d   1       3.093   0.759   0.923  0.00  0.00     0.068 A 
ATOM     27  C   UNL d   1       2.653   0.808   2.238  0.00  0.00     0.037 A 
ATOM     28  C   UNL d   1       3.422   1.438   3.214  0.00  0.00     0.010 A 
BRANCH  26  29
ATOM     29  O   UNL d   1       2.454   0.076  -0.075  0.00  0.00    -0.356 OA
ATOM     30  C   UNL d   1       1.037  -0.021   0.042  0.00  0.00     0.210 C 
ENDBRANCH  26  29
ENDBRANCH  22  23
ENDBRANCH  21  22
ENDBRANCH  20  21
ENDBRANCH   1  20
TORSDOF 8
