@<TRIPOS>MOLECULE
*****
 35 36 0 0 0
SMALL
GASTEIGER

@<TRIPOS>ATOM
      1 C           2.9015   -0.5437   -1.3805 C.3     1  UNL1       -0.0463
      2 C           2.5236    0.1483   -0.0643 C.3     1  UNL1        0.0261
      3 C           0.9654    0.2238    0.0158 C.3     1  UNL1        0.0432
      4 C           0.3821    1.5381    0.5133 C.2     1  UNL1        0.2281
      5 O           1.0579    2.5067    0.8887 O.2     1  UNL1       -0.2745
      6 N          -0.9947    1.6347    0.5502 N.am    1  UNL1       -0.2535
      7 N          -1.5376    2.9084    0.8735 N.3     1  UNL1       -0.2544
      8 N           3.1403    1.4851   -0.0160 N.pl3   1  UNL1       -0.3403
      9 C           4.4976    1.7294    0.1862 C.ar    1  UNL1        0.0351
     10 C           5.4038    1.2286   -0.7515 C.ar    1  UNL1       -0.0402
     11 C           6.7699    1.4058   -0.6386 C.ar    1  UNL1       -0.0594
     12 C           7.2673    2.1679    0.4022 C.ar    1  UNL1       -0.0539
     13 C           6.4013    2.7635    1.3288 C.ar    1  UNL1       -0.0161
     14 C           6.9346    3.6032    2.3178 C.ar    1  UNL1       -0.0540
     15 C           6.1120    4.2238    3.2541 C.ar    1  UNL1       -0.0612
     16 C           4.7421    4.0034    3.2188 C.ar    1  UNL1       -0.0611
     17 C           4.1947    3.1665    2.2395 C.ar    1  UNL1       -0.0523
     18 C           4.9991    2.5364    1.2541 C.ar    1  UNL1        0.0030
     19 H           3.9584   -0.8154   -1.4016 H       1  UNL1        0.0248
     20 H           2.6963    0.1245   -2.2266 H       1  UNL1        0.0248
     21 H           2.3692   -1.4844   -1.5349 H       1  UNL1        0.0248
     22 H           2.8754   -0.4753    0.7712 H       1  UNL1        0.0499
     23 H           0.5287    0.0166   -0.9710 H       1  UNL1        0.0377
     24 H           0.6070   -0.5795    0.6751 H       1  UNL1        0.0377
     25 H          -1.6029    0.9127    0.1713 H       1  UNL1        0.1687
     26 H          -0.7204    3.5263    1.0373 H       1  UNL1        0.1405
     27 H          -1.9700    2.8497    1.7973 H       1  UNL1        0.1405
     28 H           2.5599    2.1914    0.4467 H       1  UNL1        0.1464
     29 H           5.0433    0.7633   -1.6576 H       1  UNL1        0.0636
     30 H           7.4213    0.9790   -1.3931 H       1  UNL1        0.0618
     31 H           8.3410    2.3199    0.4600 H       1  UNL1        0.0624
     32 H           8.0049    3.7941    2.3524 H       1  UNL1        0.0624
     33 H           6.5440    4.8773    4.0064 H       1  UNL1        0.0618
     34 H           4.0937    4.4879    3.9445 H       1  UNL1        0.0618
     35 H           3.1173    3.0263    2.2484 H       1  UNL1        0.0624
@<TRIPOS>BOND
     1     3     4    1
     2     4     5    2
     3     4     6   am
     4     6     7    1
     5     2     8    1
     6     8     9    1
     7     9    10   ar
     8    10    11   ar
     9    11    12   ar
    10    12    13   ar
    11    13    14   ar
    12    14    15   ar
    13    15    16   ar
    14    16    17   ar
    15    17    18   ar
    16     9    18   ar
    17    13    18   ar
    18     2     3    1
    19     2     1    1
    20     1    19    1
    21     1    20    1
    22     1    21    1
    23     2    22    1
    24     3    23    1
    25     3    24    1
    26     6    25    1
    27     7    26    1
    28     7    27    1
    29     8    28    1
    30    10    29    1
    31    11    30    1
    32    12    31    1
    33    14    32    1
    34    15    33    1
    35    16    34    1
    36    17    35    1
