REMARK  4 active torsions:
REMARK  status: ('A' for Active; 'I' for Inactive)
REMARK       I    between atoms: C_2  and  N_3 
REMARK    1  A    between atoms: C_2  and  C_13 
REMARK    2  A    between atoms: N_3  and  N_4 
REMARK    3  A    between atoms: C_5  and  C_6 
REMARK    4  A    between atoms: C_9  and  O_10 
ROOT
ATOM      1  O   UNL d   1       1.056  -0.149   0.038  0.00  0.00    -0.266 OA
ATOM      2  C   UNL d   1       2.288  -0.107  -0.060  0.00  0.00     0.274 C 
ATOM      3  N   UNL d   1       2.998  -0.785  -1.058  0.00  0.00    -0.243 N 
ATOM      4  H   UNL d   1       4.010  -0.823  -1.032  0.00  0.00     0.192 HD
ENDROOT
BRANCH   2   5
ATOM      5  C   UNL d   1       3.072   0.674   0.912  0.00  0.00     0.061 A 
ATOM      6  C   UNL d   1       4.080   1.587   0.639  0.00  0.00     0.106 A 
ATOM      7  N   UNL d   1       4.413   2.237   1.806  0.00  0.00    -0.364 N 
ATOM      8  C   UNL d   1       3.715   1.709   2.868  0.00  0.00     0.043 A 
ATOM      9  H   UNL d   1       5.070   3.002   1.887  0.00  0.00     0.165 HD
ATOM     10  C   UNL d   1       3.763   2.025   4.237  0.00  0.00     0.030 A 
ATOM     11  C   UNL d   1       2.863   0.735   2.341  0.00  0.00     0.008 A 
ATOM     12  C   UNL d   1       2.945   1.294   5.104  0.00  0.00     0.002 A 
ATOM     13  C   UNL d   1       2.084   0.317   4.614  0.00  0.00     0.001 A 
ATOM     14  C   UNL d   1       2.019   0.046   3.240  0.00  0.00     0.015 A 
ENDBRANCH   2   5
BRANCH   3  15
ATOM     15  N   UNL d   1       2.296  -1.491  -2.029  0.00  0.00    -0.183 NA
ATOM     16  C   UNL d   1       2.962  -2.242  -2.849  0.00  0.00     0.150 C 
BRANCH  16  17
ATOM     17  C   UNL d   1       2.295  -3.041  -3.922  0.00  0.00    -0.017 A 
ATOM     18  C   UNL d   1       1.174  -2.557  -4.610  0.00  0.00     0.015 A 
ATOM     19  C   UNL d   1       0.612  -3.298  -5.666  0.00  0.00     0.037 A 
ATOM     20  C   UNL d   1       1.162  -4.530  -6.013  0.00  0.00     0.065 A 
ATOM     21  C   UNL d   1       2.253  -5.034  -5.314  0.00  0.00     0.037 A 
ATOM     22  C   UNL d   1       2.828  -4.287  -4.276  0.00  0.00     0.015 A 
BRANCH  20  23
ATOM     23  O   UNL d   1       0.670  -5.285  -7.038  0.00  0.00    -0.361 OA
ATOM     24  H   UNL d   1      -0.068  -4.818  -7.463  0.00  0.00     0.217 HD
ENDBRANCH  20  23
ENDBRANCH  16  17
ENDBRANCH   3  15
TORSDOF 4
