REMARK  7 active torsions:
REMARK  status: ('A' for Active; 'I' for Inactive)
REMARK       I    between atoms: C_2  and  N_3 
REMARK    1  A    between atoms: C_2  and  C_19 
REMARK    2  A    between atoms: N_3  and  N_4 
REMARK    3  A    between atoms: C_5  and  C_6 
REMARK    4  A    between atoms: C_10  and  O_11 
REMARK    5  A    between atoms: O_11  and  C_12 
REMARK    6  A    between atoms: N_22  and  C_23 
REMARK    7  A    between atoms: C_29  and  C_30 
ROOT
ATOM      1  O   UNL d   1       1.045  -0.037   0.120  0.00  0.00    -0.266 OA
ATOM      2  C   UNL d   1       2.276  -0.053   0.032  0.00  0.00     0.275 C 
ATOM      3  N   UNL d   1       2.984  -0.631  -1.022  0.00  0.00    -0.243 N 
ATOM      4  H   UNL d   1       3.996  -0.595  -1.062  0.00  0.00     0.192 HD
ENDROOT
BRANCH   2   5
ATOM      5  C   UNL d   1       3.086   0.510   1.107  0.00  0.00     0.086 C 
ATOM      6  C   UNL d   1       2.860   0.401   2.497  0.00  0.00     0.158 C 
ATOM      7  N   UNL d   1       3.854   0.923   3.222  0.00  0.00    -0.178 NA
ATOM      8  N   UNL d   1       4.651   1.536   2.313  0.00  0.00    -0.228 N 
ATOM      9  C   UNL d   1       4.210   1.321   1.025  0.00  0.00     0.159 C 
BRANCH   8  10
ATOM     10  C   UNL d   1       5.759   2.308   2.748  0.00  0.00     0.059 A 
ATOM     11  C   UNL d   1       6.731   1.744   3.583  0.00  0.00     0.031 A 
ATOM     12  C   UNL d   1       7.800   2.534   4.025  0.00  0.00     0.002 A 
ATOM     13  C   UNL d   1       7.921   3.859   3.602  0.00  0.00     0.000 A 
ATOM     14  C   UNL d   1       6.954   4.415   2.770  0.00  0.00     0.002 A 
ATOM     15  C   UNL d   1       5.867   3.647   2.356  0.00  0.00     0.031 A 
ENDBRANCH   8  10
BRANCH   9  16
ATOM     16  C   UNL d   1       4.940   1.837  -0.133  0.00  0.00     0.435 C 
ATOM     17  F   UNL d   1       4.997   3.185  -0.188  0.00  0.00    -0.165 F 
ATOM     18  F   UNL d   1       6.205   1.358  -0.166  0.00  0.00    -0.165 F 
ATOM     19  F   UNL d   1       4.370   1.448  -1.300  0.00  0.00    -0.165 F 
ENDBRANCH   9  16
ENDBRANCH   2   5
BRANCH   3  20
ATOM     20  N   UNL d   1       2.305  -1.173  -2.078  0.00  0.00    -0.183 NA
ATOM     21  C   UNL d   1       2.984  -1.732  -3.029  0.00  0.00     0.150 C 
BRANCH  21  22
ATOM     22  C   UNL d   1       2.267  -2.300  -4.194  0.00  0.00    -0.014 A 
ATOM     23  C   UNL d   1       2.632  -3.500  -4.804  0.00  0.00     0.013 A 
ATOM     24  C   UNL d   1       1.925  -3.942  -5.932  0.00  0.00     0.004 A 
ATOM     25  C   UNL d   1       0.844  -3.201  -6.424  0.00  0.00     0.037 A 
ATOM     26  C   UNL d   1       0.487  -1.998  -5.810  0.00  0.00     0.076 A 
ATOM     27  C   UNL d   1       1.189  -1.571  -4.685  0.00  0.00     0.050 A 
BRANCH  26  28
ATOM     28  O   UNL d   1      -0.583  -1.316  -6.345  0.00  0.00    -0.311 OA
BRANCH  28  29
ATOM     29  C   UNL d   1      -0.818  -0.015  -5.951  0.00  0.00     0.076 A 
ATOM     30  C   UNL d   1      -2.128   0.310  -5.607  0.00  0.00     0.037 A 
ATOM     31  C   UNL d   1      -2.460   1.633  -5.314  0.00  0.00     0.003 A 
ATOM     32  C   UNL d   1      -1.468   2.614  -5.276  0.00  0.00     0.000 A 
ATOM     33  C   UNL d   1      -0.150   2.285  -5.584  0.00  0.00     0.003 A 
ATOM     34  C   UNL d   1       0.168   0.980  -5.962  0.00  0.00     0.037 A 
ENDBRANCH  28  29
ENDBRANCH  26  28
ENDBRANCH  21  22
ENDBRANCH   3  20
TORSDOF 7
