REMARK  4 active torsions:
REMARK  status: ('A' for Active; 'I' for Inactive)
REMARK    1  A    between atoms: C_2  and  C_3 
REMARK    2  A    between atoms: C_7  and  C_8 
REMARK       I    between atoms: C_8  and  N_10 
REMARK    3  A    between atoms: N_10  and  N_11 
REMARK       I    between atoms: N_11  and  C_12 
REMARK    4  A    between atoms: C_12  and  C_14 
ROOT
ATOM      1  C   UNL d   1       3.771  -1.666  -2.401  0.00  0.00     0.273 C 
ATOM      2  O   UNL d   1       4.218  -2.144  -3.450  0.00  0.00    -0.266 OA
ATOM      3  N   UNL d   1       3.517  -2.475  -1.304  0.00  0.00    -0.263 N 
ATOM      4  H   UNL d   1       3.127  -2.152  -0.433  0.00  0.00     0.190 HD
ENDROOT
BRANCH   3   5
ATOM      5  N   UNL d   1       3.771  -3.863  -1.318  0.00  0.00    -0.263 N 
ATOM      6  C   UNL d   1       3.445  -4.600  -0.184  0.00  0.00     0.270 C 
ATOM      7  O   UNL d   1       2.950  -4.093   0.822  0.00  0.00    -0.266 OA
ATOM      8  H   UNL d   1       4.110  -4.263  -2.189  0.00  0.00     0.190 HD
BRANCH   6   9
ATOM      9  C   UNL d   1       3.747  -6.059  -0.219  0.00  0.00     0.033 A 
ATOM     10  C   UNL d   1       2.880  -6.987   0.379  0.00  0.00     0.017 A 
ATOM     11  C   UNL d   1       3.243  -8.339   0.458  0.00  0.00     0.001 A 
ATOM     12  C   UNL d   1       4.440  -8.776  -0.108  0.00  0.00     0.000 A 
ATOM     13  C   UNL d   1       5.300  -7.857  -0.708  0.00  0.00     0.001 A 
ATOM     14  C   UNL d   1       4.962  -6.502  -0.755  0.00  0.00     0.017 A 
ENDBRANCH   6   9
ENDBRANCH   3   5
BRANCH   1  15
ATOM     15  C   UNL d   1       3.497  -0.225  -2.276  0.00  0.00     0.076 A 
ATOM     16  C   UNL d   1       3.691   0.753  -3.298  0.00  0.00     0.157 A 
ATOM     17  N   UNL d   1       3.358   1.991  -2.925  0.00  0.00    -0.186 NA
ATOM     18  N   UNL d   1       2.948   1.835  -1.664  0.00  0.00    -0.282 N 
ATOM     19  C   UNL d   1       2.986   0.532  -1.225  0.00  0.00     0.044 A 
ATOM     20  H   UNL d   1       2.623   2.658  -1.162  0.00  0.00     0.189 HD
BRANCH  19  21
ATOM     21  C   UNL d   1       2.463   0.203   0.125  0.00  0.00     0.055 C 
ATOM     22  C   UNL d   1       0.947   0.115   0.089  0.00  0.00     0.011 C 
ENDBRANCH  19  21
ENDBRANCH   1  15
TORSDOF 4
