@<TRIPOS>MOLECULE
*****
 45 46 0 0 0
SMALL
GASTEIGER

@<TRIPOS>ATOM
      1 C           3.2272   -1.2674   -0.8787 C.3     1  UNL1       -0.0190
      2 C           2.6218   -0.1028   -0.0780 C.3     1  UNL1        0.1741
      3 O           1.1801   -0.1140    0.0523 O.3     1  UNL1       -0.4798
      4 C           0.4784   -1.2500    0.3625 C.ar    1  UNL1        0.1216
      5 C           1.0306   -2.4774    0.7088 C.ar    1  UNL1       -0.0199
      6 C           0.2863   -3.6546    0.6323 C.ar    1  UNL1       -0.0583
      7 C          -1.0912   -3.5855    0.5051 C.ar    1  UNL1       -0.0615
      8 C          -1.6997   -2.3391    0.3766 C.ar    1  UNL1       -0.0583
      9 C          -0.9151   -1.1796    0.2655 C.ar    1  UNL1       -0.0199
     10 C           3.0974    1.2029   -0.8246 C.2     1  UNL1        0.2695
     11 O           2.3241    2.0239   -1.3240 O.2     1  UNL1       -0.2702
     12 N           4.4829    1.3806   -0.9167 N.am    1  UNL1       -0.2311
     13 N           5.0009    2.4634   -1.6765 N.am    1  UNL1       -0.2303
     14 C           6.3736    2.5996   -1.8614 C.2     1  UNL1        0.2602
     15 O           7.1966    1.7963   -1.4146 O.2     1  UNL1       -0.2687
     16 C           6.8329    3.8136   -2.6067 C.ar    1  UNL1        0.0399
     17 C           7.8826    3.7797   -3.5240 C.ar    1  UNL1       -0.0495
     18 C           8.3159    4.9700   -4.1099 C.ar    1  UNL1       -0.0593
     19 C           7.6772    6.1811   -3.8099 C.ar    1  UNL1       -0.0406
     20 C           6.6400    6.2696   -2.8670 C.ar    1  UNL1        0.0299
     21 N           6.0407    7.4693   -2.5163 N.pl3   1  UNL1       -0.3360
     22 C           6.4334    8.7593   -3.0865 C.3     1  UNL1        0.0004
     23 C           5.0153    7.5639   -1.4746 C.3     1  UNL1        0.0004
     24 C           6.2505    5.0473   -2.2854 C.ar    1  UNL1       -0.0285
     25 H           4.3159   -1.1971   -0.9183 H       1  UNL1        0.0270
     26 H           2.8160   -1.2897   -1.8907 H       1  UNL1        0.0270
     27 H           3.0602   -2.2620   -0.4791 H       1  UNL1        0.0270
     28 H           3.0277   -0.0553    0.9398 H       1  UNL1        0.0829
     29 H           2.0571   -2.5707    1.0322 H       1  UNL1        0.0654
     30 H           0.7925   -4.6153    0.6822 H       1  UNL1        0.0619
     31 H          -1.6815   -4.4967    0.5424 H       1  UNL1        0.0618
     32 H          -2.7835   -2.2760    0.3267 H       1  UNL1        0.0619
     33 H          -1.4043   -0.2216    0.1050 H       1  UNL1        0.0654
     34 H           5.1754    0.7330   -0.5451 H       1  UNL1        0.1729
     35 H           4.3117    3.0857   -2.0993 H       1  UNL1        0.1731
     36 H           8.3658    2.8456   -3.7937 H       1  UNL1        0.0625
     37 H           9.1596    4.9805   -4.7982 H       1  UNL1        0.0618
     38 H           8.0409    7.0516   -4.3466 H       1  UNL1        0.0636
     39 H           7.2162    8.7233   -3.8446 H       1  UNL1        0.0428
     40 H           6.7996    9.4248   -2.2966 H       1  UNL1        0.0428
     41 H           5.5669    9.2315   -3.5618 H       1  UNL1        0.0428
     42 H           4.7230    6.6248   -1.0059 H       1  UNL1        0.0428
     43 H           4.0978    7.9863   -1.8951 H       1  UNL1        0.0428
     44 H           5.3646    8.2058   -0.6593 H       1  UNL1        0.0428
     45 H           5.4898    5.0146   -1.5193 H       1  UNL1        0.0643
@<TRIPOS>BOND
     1     3     4    1
     2     4     5   ar
     3     5     6   ar
     4     6     7   ar
     5     7     8   ar
     6     8     9   ar
     7     4     9   ar
     8     2    10    1
     9    10    11    2
    10    10    12   am
    11    12    13    1
    12    13    14   am
    13    14    15    2
    14    14    16    1
    15    16    17   ar
    16    17    18   ar
    17    18    19   ar
    18    19    20   ar
    19    20    21    1
    20    21    22    1
    21    21    23    1
    22    20    24   ar
    23    16    24   ar
    24     2     3    1
    25     2     1    1
    26     1    25    1
    27     1    26    1
    28     1    27    1
    29     2    28    1
    30     5    29    1
    31     6    30    1
    32     7    31    1
    33     8    32    1
    34     9    33    1
    35    12    34    1
    36    13    35    1
    37    17    36    1
    38    18    37    1
    39    19    38    1
    40    22    39    1
    41    22    40    1
    42    22    41    1
    43    23    42    1
    44    23    43    1
    45    23    44    1
    46    24    45    1
