@<TRIPOS>MOLECULE
*****
 48 51 0 0 0
SMALL
GASTEIGER

@<TRIPOS>ATOM
      1 C           2.9211    0.3789   -1.3107 C.3     1  UNL1       -0.0456
      2 C           2.5743    0.0456    0.1645 C.3     1  UNL1        0.0366
      3 C           2.9753   -1.3989    0.4966 C.3     1  UNL1        0.0430
      4 C           4.4431   -1.6540    0.2705 C.2     1  UNL1        0.2190
      5 O           4.8379   -2.3819   -0.6575 O.2     1  UNL1       -0.2754
      6 N           5.3324   -1.0251    1.1011 N.am    1  UNL1       -0.2839
      7 C           5.5609    0.3474    0.8480 C.ar    1  UNL1        0.0550
      8 C           6.8774    0.6199    0.4476 C.ar    1  UNL1       -0.0387
      9 C           7.2268    1.8767   -0.0184 C.ar    1  UNL1       -0.0599
     10 C           6.2586    2.8767   -0.0493 C.ar    1  UNL1       -0.0599
     11 C           4.9432    2.6295    0.4091 C.ar    1  UNL1       -0.0385
     12 C           4.5611    1.3527    0.8710 C.ar    1  UNL1        0.0578
     13 N           3.1489    1.0416    1.1204 N.am    1  UNL1       -0.2657
     14 C           2.4862    1.6225    2.2448 C.2     1  UNL1        0.2303
     15 O           3.0944    2.4224    2.9675 O.2     1  UNL1       -0.2743
     16 C           0.9886    1.2177    2.6009 C.3     1  UNL1        0.0773
     17 S           0.3887    2.0805    4.1363 S.3     1  UNL1       -0.0876
     18 C          -1.2990    1.6064    4.4020 C.ar    1  UNL1        0.1604
     19 N          -1.7206    0.3649    4.5073 N.ar    1  UNL1       -0.1332
     20 N          -3.0870    0.2886    4.8177 N.ar    1  UNL1       -0.1249
     21 C          -3.6799    1.4670    4.9252 C.ar    1  UNL1        0.1865
     22 N          -5.0171    1.6407    5.1881 N.pl3   1  UNL1       -0.2923
     23 C          -5.7049    2.8716    5.2408 C.ar    1  UNL1        0.0328
     24 C          -5.6009    3.7878    4.1872 C.ar    1  UNL1       -0.0405
     25 C          -6.0162    5.1100    4.3379 C.ar    1  UNL1       -0.0600
     26 C          -6.6621    5.5041    5.5040 C.ar    1  UNL1       -0.0616
     27 C          -6.9206    4.5640    6.5003 C.ar    1  UNL1       -0.0600
     28 C          -6.4143    3.2609    6.3863 C.ar    1  UNL1       -0.0405
     29 S          -2.5252    2.7630    4.7491 S.2     1  UNL1       -0.0242
     30 H           2.4883   -0.3519   -2.0024 H       1  UNL1        0.0248
     31 H           4.0009    0.3753   -1.4997 H       1  UNL1        0.0248
     32 H           2.5552    1.3733   -1.5860 H       1  UNL1        0.0248
     33 H           1.4823    0.1057    0.2457 H       1  UNL1        0.0506
     34 H           2.4283   -2.0874   -0.1640 H       1  UNL1        0.0377
     35 H           2.7158   -1.6653    1.5248 H       1  UNL1        0.0377
     36 H           5.2073   -1.2122    2.0895 H       1  UNL1        0.1549
     37 H           7.6140   -0.1816    0.4335 H       1  UNL1        0.0637
     38 H           8.2359    2.0530   -0.3867 H       1  UNL1        0.0618
     39 H           6.5314    3.8471   -0.4622 H       1  UNL1        0.0618
     40 H           4.2173    3.4336    0.3138 H       1  UNL1        0.0637
     41 H           0.9322    0.1432    2.7875 H       1  UNL1        0.0475
     42 H           0.3259    1.5105    1.7838 H       1  UNL1        0.0475
     43 H          -5.5700    0.8280    5.4404 H       1  UNL1        0.1541
     44 H          -5.1616    3.4754    3.2436 H       1  UNL1        0.0636
     45 H          -5.8160    5.8301    3.5496 H       1  UNL1        0.0618
     46 H          -6.9640    6.5407    5.6322 H       1  UNL1        0.0618
     47 H          -7.4841    4.8607    7.3823 H       1  UNL1        0.0618
     48 H          -6.5336    2.5823    7.2276 H       1  UNL1        0.0636
@<TRIPOS>BOND
     1     2     3    1
     2     3     4    1
     3     4     5    2
     4     4     6   am
     5     6     7    1
     6     7     8   ar
     7     8     9   ar
     8     9    10   ar
     9    10    11   ar
    10    11    12   ar
    11     7    12   ar
    12    12    13    1
    13     2    13    1
    14    13    14   am
    15    14    15    2
    16    14    16    1
    17    16    17    1
    18    17    18    1
    19    18    19   ar
    20    19    20   ar
    21    20    21   ar
    22    21    22    1
    23    22    23    1
    24    23    24   ar
    25    24    25   ar
    26    25    26   ar
    27    26    27   ar
    28    27    28   ar
    29    23    28   ar
    30    21    29   ar
    31    18    29   ar
    32     2     1    1
    33     1    30    1
    34     1    31    1
    35     1    32    1
    36     2    33    1
    37     3    34    1
    38     3    35    1
    39     6    36    1
    40     8    37    1
    41     9    38    1
    42    10    39    1
    43    11    40    1
    44    16    41    1
    45    16    42    1
    46    22    43    1
    47    24    44    1
    48    25    45    1
    49    26    46    1
    50    27    47    1
    51    28    48    1
