@<TRIPOS>MOLECULE
*****
 70 74 0 0 0
SMALL
GASTEIGER

@<TRIPOS>ATOM
      1 CD1         2.3097   -1.9542   -1.2063 C.3     1  LEU1       -0.0626
      2 CG          1.7461   -2.9021   -2.2494 C.3     1  LEU1       -0.0446
      3 CD2         2.9830   -3.6742   -2.6557 C.3     1  LEU1       -0.0626
      4 CB          0.6109   -3.7732   -1.6707 C.3     1  LEU1       -0.0236
      5 CA         -0.7626   -3.0602   -1.4364 C.3     1  LEU1        0.0996
      6 N          -0.6566   -1.8716   -0.5640 N.am    1  LEU1       -0.3025
      7 C          -0.1133   -0.6762   -0.9843 C.2     0  UNK0        0.2345
      8 O          -0.0240   -0.4034   -2.1874 O.2     0  UNK0       -0.2737
      9 C           0.5901    0.2518    0.0974 C.3     0  UNK0        0.1075
     10 C           0.2417   -0.0217    1.5701 C.3     0  UNK0        0.0019
     11 C          -1.1782    0.3648    1.7708 C.ar    0  UNK0       -0.0147
     12 C          -1.8554    1.1659    0.8657 C.ar    0  UNK0        0.0456
     13 N          -3.1509    1.2438    1.2711 N.ar    0  UNK0       -0.3560
     14 C          -3.2994    0.5794    2.4644 C.ar    0  UNK0        0.0470
     15 C          -4.4292    0.4280    3.2625 C.ar    0  UNK0       -0.0378
     16 C          -4.2843   -0.3317    4.4258 C.ar    0  UNK0       -0.0598
     17 C          -3.0675   -0.9231    4.7667 C.ar    0  UNK0       -0.0611
     18 C          -1.9484   -0.7687    3.9520 C.ar    0  UNK0       -0.0523
     19 C          -2.0715    0.0050    2.7906 C.ar    0  UNK0        0.0032
     20 C          -1.3128    1.7297   -0.3964 C.3     0  UNK0        0.0934
     21 C          -1.4228    3.1856   -0.5982 C.ar    0  UNK0       -0.0091
     22 C          -2.5655    3.9507   -0.6664 C.ar    0  UNK0       -0.0557
     23 C          -2.4052    5.3139   -0.8628 C.ar    0  UNK0       -0.0614
     24 C          -1.1216    5.8760   -1.0153 C.ar    0  UNK0       -0.0610
     25 C           0.0299    5.0855   -0.9793 C.ar    0  UNK0       -0.0493
     26 C          -0.1501    3.7393   -0.7749 C.ar    0  UNK0        0.0423
     27 C           0.8450    2.6702   -0.6251 C.2     0  UNK0        0.2484
     28 O           2.0594    2.8052   -0.7205 O.2     0  UNK0       -0.2699
     29 N           0.1240    1.5592   -0.3074 N.am    0  UNK0       -0.2731
     30 C          -1.6819   -4.0843   -0.7128 C.2     1  LEU1        0.2339
     31 O          -1.9051   -3.9396    0.4892 O.2     1  LEU1       -0.2738
     32 N          -2.0753   -5.1879   -1.4572 N.am    2  THR2       -0.3033
     33 CA         -3.1018   -6.1731   -0.9559 C.3     2  THR2        0.0882
     34 C          -4.5217   -5.5170   -0.7004 C.2     2  THR2        0.0644
     35 O          -5.4828   -5.9467   -1.3975 O.co2   2  THR2       -0.5478
     36 OXT        -4.5614   -4.6014    0.1692 O.co2   2  THR2       -0.5478
     37 CB         -3.2483   -7.3900   -1.9256 C.3     2  THR2        0.0759
     38 CG2        -1.9172   -8.0758   -2.2231 C.3     2  THR2       -0.0368
     39 OG1        -4.0560   -8.4683   -1.4254 O.3     2  THR2       -0.3899
     40 HD11        2.7042   -1.0371   -1.6571 H       1  LEU1        0.0232
     41 HD12        3.0057   -2.3759   -0.4825 H       1  LEU1        0.0232
     42 HD13        1.5463   -1.7445   -0.5045 H       1  LEU1        0.0232
     43 HG          1.3400   -2.3748   -3.1250 H       1  LEU1        0.0296
     44 HD21        3.4474   -4.1071   -1.7618 H       1  LEU1        0.0232
     45 HD22        3.7039   -2.9693   -3.0912 H       1  LEU1        0.0232
     46 HD23        2.7741   -4.4651   -3.3711 H       1  LEU1        0.0232
     47 HB1         0.9535   -4.2110   -0.7231 H       1  LEU1        0.0290
     48 HB2         0.4402   -4.6192   -2.3487 H       1  LEU1        0.0290
     49 HA         -1.2105   -2.7428   -2.3842 H       1  LEU1        0.0594
     50 H          -1.0302   -1.9891    0.3788 H       1  LEU1        0.1495
     51 H           1.6831    0.2306    0.0094 H       0  UNK0        0.0600
     52 H           0.8643    0.5900    2.2400 H       0  UNK0        0.0337
     53 H           0.4240   -1.0689    1.8397 H       0  UNK0        0.0337
     54 H          -3.8945    1.7153    0.7790 H       0  UNK0        0.1657
     55 H          -5.3799    0.8669    2.9852 H       0  UNK0        0.0638
     56 H          -5.1465   -0.4802    5.0675 H       0  UNK0        0.0618
     57 H          -2.9867   -1.5251    5.6657 H       0  UNK0        0.0618
     58 H          -1.0041   -1.2412    4.2029 H       0  UNK0        0.0624
     59 H          -1.6885    1.2023   -1.2804 H       0  UNK0        0.0616
     60 H          -3.5471    3.5031   -0.5647 H       0  UNK0        0.0621
     61 H          -3.2876    5.9452   -0.8948 H       0  UNK0        0.0618
     62 H          -1.0302    6.9472   -1.1603 H       0  UNK0        0.0618
     63 H           1.0245    5.5015   -1.0846 H       0  UNK0        0.0625
     64 H          -1.8131   -5.2505   -2.4300 H       2  THR2        0.1495
     65 HA         -2.7300   -6.5395    0.0105 H       2  THR2        0.0586
     66 HB         -3.6866   -7.0573   -2.8750 H       2  THR2        0.0613
     67 HG21       -1.4951   -8.4991   -1.3044 H       2  THR2        0.0255
     68 HG22       -1.1878   -7.4060   -2.6795 H       2  THR2        0.0255
     69 HG23       -2.0791   -8.9221   -2.9033 H       2  THR2        0.0255
     70 HG1        -3.8604   -8.5781   -0.4824 H       2  THR2        0.2099
@<TRIPOS>UNITY_ATOM_ATTR
36 1
charge -1
@<TRIPOS>BOND
     1     1     2    1
     2     2     3    1
     3     2     4    1
     4     6     7   am
     5     7     8    2
     6     9    10    1
     7    10    11    1
     8    11    12   ar
     9    12    13   ar
    10    13    14   ar
    11    14    15   ar
    12    15    16   ar
    13    16    17   ar
    14    17    18   ar
    15    18    19   ar
    16    11    19   ar
    17    14    19   ar
    18    12    20    1
    19    20    21    1
    20    21    22   ar
    21    22    23   ar
    22    23    24   ar
    23    24    25   ar
    24    25    26   ar
    25    21    26   ar
    26    26    27    1
    27    27    28    2
    28    27    29   am
    29    20    29    1
    30     9    29    1
    31     5    30    1
    32    30    31    2
    33    30    32   am
    34    32    33    1
    35    33    34    1
    36    34    35   ar
    37    34    36   ar
    38    33    37    1
    39    37    38    1
    40    37    39    1
    41     5     6    1
    42     5     4    1
    43     9     7    1
    44     1    40    1
    45     1    41    1
    46     1    42    1
    47     2    43    1
    48     3    44    1
    49     3    45    1
    50     3    46    1
    51     4    47    1
    52     4    48    1
    53     5    49    1
    54     6    50    1
    55     9    51    1
    56    10    52    1
    57    10    53    1
    58    13    54    1
    59    15    55    1
    60    16    56    1
    61    17    57    1
    62    18    58    1
    63    20    59    1
    64    22    60    1
    65    23    61    1
    66    24    62    1
    67    25    63    1
    68    32    64    1
    69    33    65    1
    70    37    66    1
    71    38    67    1
    72    38    68    1
    73    38    69    1
    74    39    70    1
