@<TRIPOS>MOLECULE
*****
 37 38 0 0 0
SMALL
GASTEIGER

@<TRIPOS>ATOM
      1 C           1.0452   -0.0254   -0.0246 C.3     1  UNL1        0.0125
      2 C           2.5499   -0.0526   -0.1146 C.2     1  UNL1        0.2141
      3 O           3.0941   -0.6417   -1.0473 O.2     1  UNL1       -0.2758
      4 N           3.2275    0.5938    0.9129 N.am    1  UNL1       -0.2855
      5 C           4.6472    0.6159    0.9671 C.ar    1  UNL1        0.0370
      6 C           5.3604    0.8670   -0.2129 C.ar    1  UNL1       -0.0281
      7 C           6.7538    0.9014   -0.2298 C.ar    1  UNL1        0.0388
      8 C           7.5336    1.1985   -1.4658 C.2     1  UNL1        0.2483
      9 O           8.7534    1.3120   -1.3619 O.2     1  UNL1       -0.2699
     10 N           6.8470    1.4077   -2.6628 N.am    1  UNL1       -0.2804
     11 C           7.5174    1.6106   -3.8959 C.ar    1  UNL1        0.0511
     12 C           7.0469    2.6236   -4.7502 C.ar    1  UNL1       -0.0392
     13 C           7.6907    2.8808   -5.9667 C.ar    1  UNL1       -0.0599
     14 C           8.7799    2.1051   -6.3559 C.ar    1  UNL1       -0.0604
     15 C           9.2273    1.0716   -5.5322 C.ar    1  UNL1       -0.0425
     16 C           8.6078    0.8170   -4.3003 C.ar    1  UNL1        0.0729
     17 C           9.0495   -0.3200   -3.5423 C.1     1  UNL1        0.1010
     18 N           9.3893   -1.2601   -2.9399 N.1     1  UNL1       -0.1908
     19 C           7.4487    0.6599    0.9633 C.ar    1  UNL1       -0.0493
     20 C           6.7526    0.4120    2.1498 C.ar    1  UNL1       -0.0564
     21 C           5.3455    0.4026    2.1689 C.ar    1  UNL1       -0.0292
     22 C           4.6401    0.0613    3.4494 C.3     1  UNL1       -0.0380
     23 H           0.6419   -0.5763   -0.8838 H       1  UNL1        0.0323
     24 H           0.6713    0.9991   -0.0793 H       1  UNL1        0.0323
     25 H           0.6918   -0.5187    0.8836 H       1  UNL1        0.0323
     26 H           2.7194    0.8586    1.7473 H       1  UNL1        0.1548
     27 H           4.7951    1.0575   -1.1145 H       1  UNL1        0.0644
     28 H           5.8532    1.5889   -2.6560 H       1  UNL1        0.1552
     29 H           6.2216    3.2693   -4.4573 H       1  UNL1        0.0636
     30 H           7.3536    3.6930   -6.6090 H       1  UNL1        0.0618
     31 H           9.2806    2.2989   -7.3019 H       1  UNL1        0.0618
     32 H          10.0608    0.4526   -5.8574 H       1  UNL1        0.0631
     33 H           8.5395    0.6571    0.9758 H       1  UNL1        0.0625
     34 H           7.3248    0.2075    3.0546 H       1  UNL1        0.0621
     35 H           5.3471   -0.1265    4.2654 H       1  UNL1        0.0278
     36 H           4.0435   -0.8476    3.3181 H       1  UNL1        0.0278
     37 H           3.9924    0.8884    3.7512 H       1  UNL1        0.0278
@<TRIPOS>BOND
     1     1     2    1
     2     2     3    2
     3     2     4   am
     4     4     5    1
     5     5     6   ar
     6     6     7   ar
     7     7     8    1
     8     8     9    2
     9     8    10   am
    10    10    11    1
    11    11    12   ar
    12    12    13   ar
    13    13    14   ar
    14    14    15   ar
    15    15    16   ar
    16    11    16   ar
    17    16    17    1
    18    17    18    3
    19     7    19   ar
    20    19    20   ar
    21    20    21   ar
    22     5    21   ar
    23    21    22    1
    24     1    23    1
    25     1    24    1
    26     1    25    1
    27     4    26    1
    28     6    27    1
    29    10    28    1
    30    12    29    1
    31    13    30    1
    32    14    31    1
    33    15    32    1
    34    19    33    1
    35    20    34    1
    36    22    35    1
    37    22    36    1
    38    22    37    1
