@<TRIPOS>MOLECULE
*****
 42 45 0 0 0
SMALL
GASTEIGER

@<TRIPOS>ATOM
      1 O           1.0375    0.0083   -0.1348 O.2     1  UNL1       -0.2749
      2 C           2.2676   -0.0714   -0.0393 C.2     1  UNL1        0.2275
      3 C           2.9266   -0.7073    1.1611 C.3     1  UNL1        0.1105
      4 C           1.9947   -1.4319    2.0334 C.ar    1  UNL1        0.2094
      5 C           1.9008   -2.7862    2.2912 C.ar    1  UNL1        0.0822
      6 N           0.9483   -2.9480    3.2721 N.ar    1  UNL1       -0.2648
      7 C           0.5364   -4.1192    3.8779 C.ar    1  UNL1        0.0153
      8 C          -0.4223   -4.0166    4.8182 C.ar    1  UNL1       -0.0448
      9 C          -1.0269   -2.7420    5.1996 C.ar    1  UNL1       -0.0525
     10 C          -0.6236   -1.6032    4.6103 C.ar    1  UNL1        0.0293
     11 C           0.4347   -1.7464    3.5878 C.ar    1  UNL1        0.2883
     12 N           1.0556   -0.8301    2.8533 N.ar    1  UNL1       -0.1914
     13 N           3.0621    0.5607   -0.9711 N.am    1  UNL1       -0.2838
     14 C           4.4766    0.5630   -1.0587 C.ar    1  UNL1        0.0556
     15 C           5.1161    1.7847   -1.3065 C.ar    1  UNL1        0.0064
     16 C           6.5139    1.8391   -1.4159 C.ar    1  UNL1        0.1638
     17 C           7.2935    0.6959   -1.2428 C.ar    1  UNL1        0.1634
     18 C           6.6720   -0.5144   -0.9624 C.ar    1  UNL1        0.0038
     19 C           5.2757   -0.5953   -0.9728 C.ar    1  UNL1        0.0658
     20 CL          4.6223   -2.1942   -1.1863 Cl      1  UNL1       -0.0815
     21 O           8.6598    0.7093   -1.3275 O.3     1  UNL1       -0.4881
     22 C           9.1310    1.0465   -2.6424 C.3     1  UNL1        0.0928
     23 C           9.1106    2.5446   -2.9265 C.3     1  UNL1        0.0157
     24 C           7.6885    3.0832   -2.9483 C.3     1  UNL1        0.0928
     25 O           7.0839    3.0605   -1.6516 O.3     1  UNL1       -0.4881
     26 H           3.4653    0.0513    1.7349 H       1  UNL1        0.0468
     27 H           3.6349   -1.4674    0.8727 H       1  UNL1        0.0468
     28 H           2.4320   -3.6437    1.9100 H       1  UNL1        0.0878
     29 H           0.9920   -5.0612    3.5859 H       1  UNL1        0.0814
     30 H          -0.7796   -4.9066    5.3301 H       1  UNL1        0.0632
     31 H          -1.7976   -2.7394    5.9642 H       1  UNL1        0.0621
     32 H          -1.0218   -0.6267    4.8449 H       1  UNL1        0.0700
     33 H           0.8283    0.1596    2.8616 H       1  UNL1        0.4547
     34 H           2.5484    1.2019   -1.5719 H       1  UNL1        0.1549
     35 H           4.5544    2.7102   -1.4166 H       1  UNL1        0.0674
     36 H           7.2687   -1.4105   -0.8182 H       1  UNL1        0.0670
     37 H           8.5791    0.4883   -3.4110 H       1  UNL1        0.0697
     38 H          10.1710    0.7028   -2.7046 H       1  UNL1        0.0697
     39 H           9.5742    2.7320   -3.9028 H       1  UNL1        0.0331
     40 H           9.6971    3.0717   -2.1652 H       1  UNL1        0.0331
     41 H           7.0726    2.5411   -3.6791 H       1  UNL1        0.0697
     42 H           7.7047    4.1299   -3.2685 H       1  UNL1        0.0697
@<TRIPOS>UNITY_ATOM_ATTR
12 1
charge 1
@<TRIPOS>BOND
     1     1     2    2
     2     2     3    1
     3     3     4    1
     4     4     5   ar
     5     5     6   ar
     6     6     7   ar
     7     7     8   ar
     8     8     9   ar
     9     9    10   ar
    10    10    11   ar
    11     6    11   ar
    12    11    12   ar
    13     4    12   ar
    14     2    13   am
    15    13    14    1
    16    14    15   ar
    17    15    16   ar
    18    16    17   ar
    19    17    18   ar
    20    18    19   ar
    21    14    19   ar
    22    19    20    1
    23    17    21    1
    24    21    22    1
    25    22    23    1
    26    23    24    1
    27    24    25    1
    28    16    25    1
    29     3    26    1
    30     3    27    1
    31     5    28    1
    32     7    29    1
    33     8    30    1
    34     9    31    1
    35    10    32    1
    36    12    33    1
    37    13    34    1
    38    15    35    1
    39    18    36    1
    40    22    37    1
    41    22    38    1
    42    23    39    1
    43    23    40    1
    44    24    41    1
    45    24    42    1
