REMARK  13 active torsions:
REMARK  status: ('A' for Active; 'I' for Inactive)
REMARK    1  A    between atoms: C_2  and  C_3 
REMARK    2  A    between atoms: C_3  and  C_4 
REMARK    3  A    between atoms: C_4  and  N_5 
REMARK       I    between atoms: N_5  and  C_6 
REMARK    4  A    between atoms: C_8  and  C_6 
REMARK    5  A    between atoms: C_8  and  N_18 
REMARK    6  A    between atoms: C_8  and  C_9 
REMARK    7  A    between atoms: C_10  and  O_11 
REMARK    8  A    between atoms: C_13  and  O_14 
REMARK    9  A    between atoms: C_16  and  O_17 
REMARK       I    between atoms: N_18  and  C_19 
REMARK   10  A    between atoms: N_18  and  C_29 
REMARK   11  A    between atoms: C_19  and  C_21 
REMARK   12  A    between atoms: C_21  and  C_22 
REMARK   13  A    between atoms: C_22  and  C_23 
ROOT
ATOM      1  C   UNL d   1       6.971   2.325   3.920  0.00  0.00     0.219 C 
ENDROOT
BRANCH   1   2
ATOM      2  N   UNL d   1       8.547   2.358   3.833  0.00  0.00    -0.326 N 
ATOM      3  C   UNL d   1       9.317   1.772   2.774  0.00  0.00     0.221 C 
ATOM      4  O   UNL d   1      10.549   1.790   2.715  0.00  0.00    -0.273 OA
BRANCH   3   5
ATOM      5  C   UNL d   1       8.682   1.088   1.596  0.00  0.00     0.103 C 
BRANCH   5   6
ATOM      6  C   UNL d   1       9.633   0.493   0.551  0.00  0.00     0.014 C 
BRANCH   6   7
ATOM      7  C   UNL d   1       8.938  -0.264  -0.616  0.00  0.00    -0.014 C 
ATOM      8  C   UNL d   1       8.872  -1.773  -0.304  0.00  0.00     0.004 C 
ATOM      9  C   UNL d   1       8.098  -2.566  -1.362  0.00  0.00     0.000 C 
ATOM     10  C   UNL d   1       6.685  -2.036  -1.548  0.00  0.00     0.000 C 
ATOM     11  C   UNL d   1       6.796  -0.575  -1.972  0.00  0.00     0.000 C 
ATOM     12  C   UNL d   1       7.527   0.219  -0.897  0.00  0.00     0.004 C 
ENDBRANCH   6   7
ENDBRANCH   5   6
ENDBRANCH   3   5
BRANCH   2  13
ATOM     13  C   UNL d   1       9.337   3.237   4.859  0.00  0.00     0.025 C 
ATOM     14  C   UNL d   1       8.893   4.708   4.817  0.00  0.00     0.037 C 
ATOM     15  C   UNL d   1       9.189   2.835   6.326  0.00  0.00     0.037 C 
ATOM     16  C   UNL d   1      10.871   3.155   4.711  0.00  0.00     0.037 C 
ENDBRANCH   2  13
ENDBRANCH   1   2
BRANCH   1  17
ATOM     17  C   UNL d   1       6.226   1.721   2.736  0.00  0.00     0.040 C 
ATOM     18  C   UNL d   1       5.837   2.437   1.590  0.00  0.00     0.080 C 
ATOM     19  C   UNL d   1       5.203   1.778   0.535  0.00  0.00     0.073 C 
ATOM     20  C   UNL d   1       4.887   0.421   0.654  0.00  0.00     0.071 C 
ATOM     21  C   UNL d   1       5.352  -0.332   1.723  0.00  0.00     0.073 C 
ATOM     22  C   UNL d   1       5.997   0.321   2.757  0.00  0.00     0.080 C 
BRANCH  18  23
ATOM     23  O   UNL d   1       6.172   3.739   1.334  0.00  0.00    -0.360 OA
ATOM     24  H   UNL d   1       6.576   4.166   2.103  0.00  0.00     0.217 HD
ENDBRANCH  18  23
BRANCH  20  25
ATOM     25  O   UNL d   1       4.309  -0.266  -0.370  0.00  0.00    -0.361 OA
ATOM     26  H   UNL d   1       4.270   0.323  -1.142  0.00  0.00     0.217 HD
ENDBRANCH  20  25
BRANCH  22  27
ATOM     27  O   UNL d   1       6.612  -0.431   3.731  0.00  0.00    -0.360 OA
ATOM     28  H   UNL d   1       6.318  -1.355   3.654  0.00  0.00     0.217 HD
ENDBRANCH  22  27
ENDBRANCH   1  17
BRANCH   1  29
ATOM     29  C   UNL d   1       6.222   1.743   5.216  0.00  0.00     0.245 C 
ATOM     30  N   UNL d   1       7.047   1.330   6.212  0.00  0.00    -0.359 N 
ATOM     31  H   UNL d   1       7.919   0.979   5.846  0.00  0.00     0.162 HD
ATOM     32  O   UNL d   1       4.986   1.657   5.312  0.00  0.00    -0.271 OA
BRANCH  30  33
ATOM     33  C   UNL d   1       6.671   0.935   7.548  0.00  0.00     0.122 C 
BRANCH  33  34
ATOM     34  C   UNL d   1       7.804   1.145   8.571  0.00  0.00     0.019 C 
BRANCH  34  35
ATOM     35  C   UNL d   1       7.413   0.511   9.896  0.00  0.00    -0.003 C 
ATOM     36  C   UNL d   1       8.493   0.646  10.953  0.00  0.00     0.005 C 
ENDBRANCH  34  35
ENDBRANCH  33  34
ENDBRANCH  30  33
ENDBRANCH   1  29
TORSDOF 13
