REMARK  4 active torsions:
REMARK  status: ('A' for Active; 'I' for Inactive)
REMARK       I    between atoms: C_2  and  N_3 
REMARK    1  A    between atoms: C_2  and  C_11 
REMARK    2  A    between atoms: N_3  and  C_4 
REMARK    3  A    between atoms: C_7  and  O_8 
REMARK       I    between atoms: C_11  and  N_13 
REMARK    4  A    between atoms: N_13  and  C_14 
ROOT
ATOM      1  O   UNL d   1       1.069  -0.047  -0.091  0.00  0.00    -0.262 OA
ATOM      2  C   UNL d   1       2.299  -0.092  -0.084  0.00  0.00     0.313 C 
ATOM      3  N   UNL d   1       3.033  -1.034   0.630  0.00  0.00    -0.319 N 
ATOM      4  H   UNL d   1       3.990  -0.823   0.866  0.00  0.00     0.169 HD
ENDROOT
BRANCH   2   5
ATOM      5  C   UNL d   1       3.035   1.015  -0.852  0.00  0.00     0.310 C 
ATOM      6  O   UNL d   1       2.307   1.783  -1.477  0.00  0.00    -0.262 OA
ATOM      7  N   UNL d   1       4.422   1.125  -0.801  0.00  0.00    -0.348 N 
ATOM      8  H   UNL d   1       4.953   0.367  -0.399  0.00  0.00     0.163 HD
BRANCH   7   9
ATOM      9  C   UNL d   1       5.221   2.113  -1.575  0.00  0.00     0.084 C 
ATOM     10  C   UNL d   1       4.476   3.372  -2.062  0.00  0.00     0.025 C 
ATOM     11  C   UNL d   1       4.352   4.473  -1.010  0.00  0.00     0.002 C 
ATOM     12  C   UNL d   1       5.479   5.489  -1.161  0.00  0.00     0.000 C 
ATOM     13  C   UNL d   1       6.857   5.000  -0.724  0.00  0.00     0.000 C 
ATOM     14  C   UNL d   1       7.294   3.648  -1.294  0.00  0.00     0.002 C 
ATOM     15  C   UNL d   1       6.479   2.470  -0.750  0.00  0.00     0.025 C 
ENDBRANCH   7   9
ENDBRANCH   2   5
BRANCH   3  16
ATOM     16  C   UNL d   1       2.352  -1.974   1.445  0.00  0.00     0.035 A 
ATOM     17  C   UNL d   1       1.234  -2.679   0.973  0.00  0.00     0.032 A 
ATOM     18  C   UNL d   1       0.544  -3.571   1.803  0.00  0.00     0.039 A 
ATOM     19  C   UNL d   1       0.967  -3.737   3.116  0.00  0.00     0.065 A 
ATOM     20  C   UNL d   1       2.068  -3.037   3.598  0.00  0.00     0.039 A 
ATOM     21  C   UNL d   1       2.780  -2.174   2.757  0.00  0.00     0.032 A 
BRANCH  19  22
ATOM     22  O   UNL d   1       0.333  -4.580   3.979  0.00  0.00    -0.361 OA
ATOM     23  H   UNL d   1      -0.402  -5.018   3.519  0.00  0.00     0.217 HD
ENDBRANCH  19  22
ENDBRANCH   3  16
TORSDOF 4
