REMARK  7 active torsions:
REMARK  status: ('A' for Active; 'I' for Inactive)
REMARK    1  A    between atoms: C_5  and  N_6 
REMARK    2  A    between atoms: C_10  and  N_11 
REMARK       I    between atoms: N_11  and  C_12 
REMARK    3  A    between atoms: C_12  and  C_14 
REMARK    4  A    between atoms: C_18  and  N_19 
REMARK       I    between atoms: N_19  and  C_20 
REMARK    5  A    between atoms: C_20  and  C_22 
REMARK    6  A    between atoms: C_22  and  C_23 
REMARK    7  A    between atoms: C_23  and  N_24 
ROOT
ATOM      1  C   UNL d   1       3.248   1.884  -1.245  0.00  0.00     0.034 C 
ATOM      2  C   UNL d   1       4.631   1.712  -1.112  0.00  0.00     0.017 C 
ATOM      3  C   UNL d   1       5.286   0.762  -1.914  0.00  0.00     0.003 C 
ATOM      4  C   UNL d   1       4.562  -0.061  -2.805  0.00  0.00     0.029 C 
ATOM      5  C   UNL d   1       3.173   0.088  -2.929  0.00  0.00     0.035 C 
ATOM      6  C   UNL d   1       2.569   1.141  -2.225  0.00  0.00     0.046 C 
ENDROOT
BRANCH   1   7
ATOM      7  C   UNL d   1       2.464   2.603  -0.167  0.00  0.00     0.256 C 
ATOM      8  N   UNL d   1       1.088   2.391  -0.049  0.00  0.00    -0.322 N 
ATOM      9  H   UNL d   1       0.582   3.234   0.208  0.00  0.00     0.169 HD
ATOM     10  O   UNL d   1       3.027   3.389   0.573  0.00  0.00    -0.267 OA
BRANCH   8  11
ATOM     11  C   UNL d   1       0.373   1.160   0.070  0.00  0.00     0.043 C 
ATOM     12  C   UNL d   1      -1.041   1.225   0.026  0.00  0.00     0.066 C 
ATOM     13  C   UNL d   1      -1.801   0.037   0.015  0.00  0.00     0.105 C 
ATOM     14  C   UNL d   1      -1.177  -1.211   0.026  0.00  0.00     0.037 C 
ATOM     15  C   UNL d   1       0.203  -1.274   0.118  0.00  0.00     0.011 C 
ATOM     16  C   UNL d   1       0.984  -0.111   0.216  0.00  0.00    -0.035 C 
ATOM     17  C   UNL d   1       2.441  -0.363   0.476  0.00  0.00     0.050 C 
BRANCH  13  18
ATOM     18  N   UNL d   1      -3.269   0.074  -0.045  0.00  0.00    -0.116 N 
ATOM     19  O   UNL d   1      -3.866  -1.015  -0.101  0.00  0.00    -0.532 OA
ATOM     20  O   UNL d   1      -3.825   1.178  -0.067  0.00  0.00    -0.532 OA
ENDBRANCH  13  18
ENDBRANCH   8  11
ENDBRANCH   1   7
BRANCH   5  21
ATOM     21  N   UNL d   1       2.387  -0.873  -3.648  0.00  0.00    -0.327 N 
ATOM     22  C   UNL d   1       0.995  -0.942  -3.590  0.00  0.00     0.223 C 
ATOM     23  O   UNL d   1       0.266  -0.277  -2.867  0.00  0.00    -0.273 OA
ATOM     24  H   UNL d   1       2.902  -1.597  -4.138  0.00  0.00     0.169 HD
BRANCH  22  25
ATOM     25  C   UNL d   1       0.318  -1.922  -4.514  0.00  0.00     0.123 C 
BRANCH  25  26
ATOM     26  C   UNL d   1      -1.206  -1.763  -4.330  0.00  0.00     0.138 C 
BRANCH  26  27
ATOM     27  N   UNL d   1      -1.948  -2.652  -5.232  0.00  0.00    -0.351 N 
ATOM     28  C   UNL d   1      -2.872  -2.270  -6.199  0.00  0.00     0.108 A 
ATOM     29  C   UNL d   1      -3.226  -3.409  -6.867  0.00  0.00     0.106 A 
ATOM     30  N   UNL d   1      -2.557  -4.441  -6.252  0.00  0.00    -0.361 N 
ATOM     31  C   UNL d   1      -1.833  -3.988  -5.229  0.00  0.00     0.182 A 
ATOM     32  H   UNL d   1      -2.610  -5.421  -6.521  0.00  0.00     0.166 HD
ENDBRANCH  26  27
ENDBRANCH  25  26
ENDBRANCH  22  25
ENDBRANCH   5  21
TORSDOF 7
