@<TRIPOS>MOLECULE
*****
 58 61 0 0 0
SMALL
GASTEIGER

@<TRIPOS>ATOM
      1 C           0.9760   -0.0615    0.1130 C.2     1  UNL1       -0.1010
      2 C           2.3063   -0.1649    0.2171 C.2     1  UNL1       -0.0715
      3 C           3.1776   -0.9741   -0.6721 C.3     1  UNL1        0.0450
      4 N           4.5980   -0.7080   -0.5231 N.ar    1  UNL1       -0.2983
      5 C           5.3084    0.4726   -0.4330 C.ar    1  UNL1        0.1926
      6 S           4.8227    2.1498   -0.2916 S.3     1  UNL1       -0.0766
      7 C           3.0757    2.4855   -0.6747 C.3     1  UNL1        0.0779
      8 C           2.6512    3.9536   -0.5966 C.2     1  UNL1        0.2279
      9 O           3.4486    4.8529   -0.3277 O.2     1  UNL1       -0.2745
     10 N           1.2745    4.1957   -0.7872 N.am    1  UNL1       -0.2786
     11 C           0.8522    5.5035   -1.0068 C.ar    1  UNL1        0.0863
     12 S          -0.5872    6.0374   -0.1926 S.2     1  UNL1       -0.0773
     13 C          -0.3067    7.5158   -0.7478 C.ar    1  UNL1       -0.0044
     14 C           0.5504    7.7656   -1.7034 C.ar    1  UNL1       -0.0213
     15 C           1.4139    6.5087   -1.8088 C.ar    1  UNL1        0.0908
     16 C           2.6091    6.3646   -2.6542 C.2     1  UNL1        0.3418
     17 O           3.1983    7.3003   -3.1867 O.2     1  UNL1       -0.2449
     18 O           2.9881    5.0816   -2.8948 O.3     1  UNL1       -0.4614
     19 C           4.2459    5.0612   -3.5623 C.3     1  UNL1        0.0900
     20 C           4.7685    3.6581   -3.5056 C.3     1  UNL1       -0.0306
     21 C           0.4682    9.7269   -2.1450 C.3     1  UNL1       -0.0258
     22 C           1.4621    8.8132   -2.2256 C.3     1  UNL1       -0.0445
     23 C          -0.2713    8.8588   -1.0765 C.3     1  UNL1       -0.0208
     24 N           6.5884    0.1642   -0.3142 N.ar    1  UNL1       -0.1221
     25 N           6.7268   -1.1994   -0.2808 N.ar    1  UNL1       -0.1283
     26 C           5.5336   -1.7388   -0.4123 C.ar    1  UNL1        0.1652
     27 C           5.2715   -3.1879   -0.4434 C.ar    1  UNL1        0.0197
     28 C           5.6767   -4.0090    0.6215 C.ar    1  UNL1       -0.0446
     29 C           5.5654   -5.4062    0.5380 C.ar    1  UNL1        0.0163
     30 C           4.9389   -5.9870   -0.5702 C.ar    1  UNL1        0.2732
     31 N           4.6640   -7.4329   -0.5844 N.pl3   1  UNL1        0.0796
     32 O           5.0254   -8.0991    0.3960 O.2     1  UNL1        0.0414
     33 O           4.0509   -7.8927   -1.5588 O.co2   1  UNL1       -0.5760
     34 C           4.5122   -5.1837   -1.6337 C.ar    1  UNL1        0.0163
     35 C           4.6904   -3.7938   -1.5693 C.ar    1  UNL1       -0.0446
     36 H           0.4355    0.6520    0.7304 H       1  UNL1        0.0532
     37 H           0.4017   -0.6832   -0.5647 H       1  UNL1        0.0532
     38 H           2.8202    0.4246    0.9735 H       1  UNL1        0.0584
     39 H           2.9446   -0.8628   -1.7374 H       1  UNL1        0.0536
     40 H           2.9948   -2.0098   -0.3790 H       1  UNL1        0.0536
     41 H           2.5069    2.1213    0.1626 H       1  UNL1        0.0475
     42 H           2.7781    2.0332   -1.6264 H       1  UNL1        0.0475
     43 H           0.5616    3.4755   -0.7546 H       1  UNL1        0.1553
     44 H           4.9713    5.7336   -3.0795 H       1  UNL1        0.0695
     45 H           4.0747    5.3639   -4.5959 H       1  UNL1        0.0695
     46 H           5.0606    3.4493   -2.4835 H       1  UNL1        0.0262
     47 H           5.6556    3.5357   -4.1243 H       1  UNL1        0.0262
     48 H           3.9909    2.9434   -3.7870 H       1  UNL1        0.0262
     49 H           1.1046   10.4660   -1.5713 H       1  UNL1        0.0314
     50 H           0.0793    9.9610   -3.1162 H       1  UNL1        0.0314
     51 H           2.4120    9.1313   -1.8243 H       1  UNL1        0.0272
     52 H           1.4256    8.7041   -3.3715 H       1  UNL1        0.0272
     53 H          -1.2724    9.0560   -1.6556 H       1  UNL1        0.0318
     54 H          -0.2656    9.5471   -0.2098 H       1  UNL1        0.0318
     55 H           6.0873   -3.5661    1.5288 H       1  UNL1        0.0627
     56 H           5.9786   -6.0231    1.3344 H       1  UNL1        0.0685
     57 H           4.0603   -5.6213   -2.5220 H       1  UNL1        0.0685
     58 H           4.3769   -3.1871   -2.4156 H       1  UNL1        0.0627
@<TRIPOS>UNITY_ATOM_ATTR
31 1
charge 1
33 1
charge -1
@<TRIPOS>BOND
     1     1     2    2
     2     2     3    1
     3     3     4    1
     4     4     5   ar
     5     5     6    1
     6     6     7    1
     7     7     8    1
     8     8     9    2
     9     8    10   am
    10    10    11    1
    11    11    12   ar
    12    12    13   ar
    13    13    14   ar
    14    14    15   ar
    15    11    15   ar
    16    15    16    1
    17    16    17    2
    18    16    18    1
    19    18    19    1
    20    19    20    1
    21    14    21    1
    22    21    22    1
    23    22    23    1
    24    13    23    1
    25     5    24   ar
    26    24    25   ar
    27    25    26   ar
    28     4    26   ar
    29    26    27    1
    30    27    28   ar
    31    28    29   ar
    32    29    30   ar
    33    30    31    1
    34    31    32    2
    35    31    33    1
    36    30    34   ar
    37    34    35   ar
    38    27    35   ar
    39     1    36    1
    40     1    37    1
    41     2    38    1
    42     3    39    1
    43     3    40    1
    44     7    41    1
    45     7    42    1
    46    10    43    1
    47    19    44    1
    48    19    45    1
    49    20    46    1
    50    20    47    1
    51    20    48    1
    52    21    49    1
    53    21    50    1
    54    22    51    1
    55    22    52    1
    56    23    53    1
    57    23    54    1
    58    28    55    1
    59    29    56    1
    60    34    57    1
    61    35    58    1
