@<TRIPOS>MOLECULE
*****
 56 57 0 0 0
SMALL
GASTEIGER

@<TRIPOS>ATOM
      1 O           1.1005   -0.0220   -0.0890 O.2     1  UNL1       -0.2525
      2 C           2.3314    0.0649   -0.0375 C.2     1  UNL1        0.3039
      3 N           2.9845    0.9158    0.8082 N.am    1  UNL1       -0.2991
      4 C           2.3017    1.8193    1.7057 C.3     1  UNL1        0.0131
      5 C           3.2931    2.6419    2.5310 C.3     1  UNL1       -0.0373
      6 C           2.5594    3.5909    3.4789 C.3     1  UNL1       -0.0516
      7 C           3.5300    4.4285    4.3155 C.3     1  UNL1       -0.0516
      8 C           2.7729    5.3738    5.2608 C.3     1  UNL1       -0.0373
      9 C           3.7285    6.2146    6.1038 C.3     1  UNL1        0.0131
     10 N           3.0594    7.1192    7.0361 N.am    1  UNL1       -0.2991
     11 C           3.8325    7.9188    7.8482 C.2     1  UNL1        0.3039
     12 O           5.0603    7.8693    7.7921 O.2     1  UNL1       -0.2525
     13 N           3.1270    8.7315    8.7195 N.am    1  UNL1       -0.2693
     14 C           3.7624    9.7152    9.5279 C.ar    1  UNL1        0.0412
     15 C           3.2696   10.0622   10.7943 C.ar    1  UNL1       -0.0400
     16 C           3.8472   11.1224   11.5198 C.ar    1  UNL1       -0.0536
     17 C           4.9348   11.8279   10.9991 C.ar    1  UNL1        0.0157
     18 C           5.4259   11.4764    9.7391 C.ar    1  UNL1        0.2749
     19 N           6.4962   12.2620    9.1155 N.pl3   1  UNL1        0.0797
     20 O           6.9660   13.2092    9.7608 O.2     1  UNL1        0.0414
     21 O           6.8486   11.9539    7.9674 O.co2   1  UNL1       -0.5760
     22 C           4.8540   10.4233    9.0184 C.ar    1  UNL1        0.0368
     23 N           3.1078   -0.6604   -0.9053 N.am    1  UNL1       -0.2693
     24 C           4.5020   -0.8241   -0.9077 C.ar    1  UNL1        0.0412
     25 C           5.1910   -0.9566   -2.1169 C.ar    1  UNL1       -0.0400
     26 C           6.5830   -1.1215   -2.1155 C.ar    1  UNL1       -0.0536
     27 C           7.2923   -1.1243   -0.9108 C.ar    1  UNL1        0.0157
     28 C           6.5887   -1.0332    0.2932 C.ar    1  UNL1        0.2749
     29 N           7.2860   -1.1016    1.5791 N.pl3   1  UNL1        0.0797
     30 O           8.5149   -1.2382    1.5622 O.2     1  UNL1        0.0414
     31 O           6.5994   -1.0149    2.6090 O.co2   1  UNL1       -0.5760
     32 C           5.2009   -0.9053    0.2942 C.ar    1  UNL1        0.0368
     33 H           3.9677    1.0756    0.6585 H       1  UNL1        0.1502
     34 H           1.6597    1.2177    2.3572 H       1  UNL1        0.0462
     35 H           1.6617    2.4756    1.1058 H       1  UNL1        0.0462
     36 H           3.9473    3.2173    1.8626 H       1  UNL1        0.0280
     37 H           3.9472    1.9721    3.1040 H       1  UNL1        0.0280
     38 H           1.9113    3.0085    4.1446 H       1  UNL1        0.0266
     39 H           1.9116    4.2568    2.8960 H       1  UNL1        0.0266
     40 H           4.1797    5.0093    3.6488 H       1  UNL1        0.0266
     41 H           4.1798    3.7621    4.8964 H       1  UNL1        0.0266
     42 H           2.1229    4.7860    5.9194 H       1  UNL1        0.0280
     43 H           2.1231    6.0330    4.6732 H       1  UNL1        0.0280
     44 H           4.3763    6.8140    5.4513 H       1  UNL1        0.0462
     45 H           4.3820    5.5590    6.6925 H       1  UNL1        0.0462
     46 H           2.0527    7.1752    7.0490 H       1  UNL1        0.1502
     47 H           2.1416    8.5666    8.8626 H       1  UNL1        0.1564
     48 H           2.4738    9.4902   11.2671 H       1  UNL1        0.0636
     49 H           3.4436   11.4114   12.4898 H       1  UNL1        0.0620
     50 H           5.3766   12.6426   11.5706 H       1  UNL1        0.0685
     51 H           5.2275   10.1906    8.0248 H       1  UNL1        0.0704
     52 H           2.5727   -1.1422   -1.6188 H       1  UNL1        0.1564
     53 H           4.6710   -0.8768   -3.0703 H       1  UNL1        0.0636
     54 H           7.1181   -1.2467   -3.0556 H       1  UNL1        0.0620
     55 H           8.3765   -1.2121   -0.9253 H       1  UNL1        0.0685
     56 H           4.6539   -0.9051    1.2346 H       1  UNL1        0.0704
@<TRIPOS>UNITY_ATOM_ATTR
19 1
charge 1
21 1
charge -1
29 1
charge 1
31 1
charge -1
@<TRIPOS>BOND
     1     1     2    2
     2     2     3   am
     3     3     4    1
     4     4     5    1
     5     5     6    1
     6     6     7    1
     7     7     8    1
     8     8     9    1
     9     9    10    1
    10    10    11   am
    11    11    12    2
    12    11    13   am
    13    13    14    1
    14    14    15   ar
    15    15    16   ar
    16    16    17   ar
    17    17    18   ar
    18    18    19    1
    19    19    20    2
    20    19    21    1
    21    18    22   ar
    22    14    22   ar
    23     2    23   am
    24    23    24    1
    25    24    25   ar
    26    25    26   ar
    27    26    27   ar
    28    27    28   ar
    29    28    29    1
    30    29    30    2
    31    29    31    1
    32    28    32   ar
    33    24    32   ar
    34     3    33    1
    35     4    34    1
    36     4    35    1
    37     5    36    1
    38     5    37    1
    39     6    38    1
    40     6    39    1
    41     7    40    1
    42     7    41    1
    43     8    42    1
    44     8    43    1
    45     9    44    1
    46     9    45    1
    47    10    46    1
    48    13    47    1
    49    15    48    1
    50    16    49    1
    51    17    50    1
    52    22    51    1
    53    23    52    1
    54    25    53    1
    55    26    54    1
    56    27    55    1
    57    32    56    1
