@<TRIPOS>MOLECULE
*****
 44 45 0 0 0
SMALL
GASTEIGER

@<TRIPOS>ATOM
      1 C           1.0627    0.0284   -0.0970 C.3     1  UNL1       -0.0544
      2 C           2.5967   -0.0278   -0.1062 C.3     1  UNL1        0.0303
      3 C           3.0971   -0.0773    1.3337 C.3     1  UNL1       -0.0544
      4 C           3.0499   -1.2450   -0.9173 C.2     1  UNL1        0.2198
      5 O           2.2246   -1.9829   -1.4570 O.2     1  UNL1       -0.2752
      6 N           4.4243   -1.4459   -0.9860 N.am    1  UNL1       -0.2853
      7 C           4.9811   -2.5570   -1.6575 C.ar    1  UNL1        0.0337
      8 C           6.0450   -3.2657   -1.1140 C.ar    1  UNL1       -0.0405
      9 C           6.5810   -4.3533   -1.8143 C.ar    1  UNL1       -0.0597
     10 C           6.0489   -4.7380   -3.0527 C.ar    1  UNL1       -0.0570
     11 C           5.0035   -4.0073   -3.6346 C.ar    1  UNL1       -0.0286
     12 C           4.4949   -4.3709   -5.0141 C.3     1  UNL1        0.0372
     13 N           3.4829   -3.4656   -5.5363 N.am    1  UNL1       -0.3072
     14 C           2.8629   -3.6572   -6.7366 C.2     1  UNL1        0.2445
     15 O           3.1197   -4.5828   -7.5041 O.2     1  UNL1       -0.2702
     16 C           1.8155   -2.6587   -7.0913 C.ar    1  UNL1        0.0431
     17 C           0.6656   -3.1082   -7.7513 C.ar    1  UNL1       -0.0492
     18 C          -0.2587   -2.1951   -8.2647 C.ar    1  UNL1       -0.0546
     19 C          -0.0762   -0.8266   -8.0650 C.ar    1  UNL1        0.0156
     20 C           1.0617   -0.3767   -7.3805 C.ar    1  UNL1        0.2739
     21 N           1.2966    1.0677   -7.2444 N.pl3   1  UNL1        0.0796
     22 O           0.4504    1.8390   -7.7186 O.2     1  UNL1        0.0414
     23 O           2.3334    1.4290   -6.6700 O.co2   1  UNL1       -0.5760
     24 C           2.0117   -1.2856   -6.8852 C.ar    1  UNL1        0.0277
     25 C           4.4821   -2.9311   -2.9031 C.ar    1  UNL1       -0.0358
     26 H           0.6952    0.8950    0.4607 H       1  UNL1        0.0237
     27 H           0.6429   -0.8731    0.3671 H       1  UNL1        0.0237
     28 H           0.6640    0.0864   -1.1160 H       1  UNL1        0.0237
     29 H           2.9769    0.8743   -0.6009 H       1  UNL1        0.0389
     30 H           2.7504   -0.9870    1.8361 H       1  UNL1        0.0237
     31 H           2.7289    0.7845    1.9014 H       1  UNL1        0.0237
     32 H           4.1892   -0.0638    1.3857 H       1  UNL1        0.0237
     33 H           5.0383   -0.9139   -0.3849 H       1  UNL1        0.1548
     34 H           6.4156   -3.0363   -0.1201 H       1  UNL1        0.0636
     35 H           7.4166   -4.9082   -1.3931 H       1  UNL1        0.0618
     36 H           6.4616   -5.6103   -3.5584 H       1  UNL1        0.0621
     37 H           4.0836   -5.3873   -5.0079 H       1  UNL1        0.0512
     38 H           5.3346   -4.3494   -5.7200 H       1  UNL1        0.0512
     39 H           3.0926   -2.7597   -4.9356 H       1  UNL1        0.1493
     40 H           0.4995   -4.1765   -7.8812 H       1  UNL1        0.0625
     41 H          -1.1052   -2.5520   -8.8478 H       1  UNL1        0.0620
     42 H          -0.8148   -0.1307   -8.4602 H       1  UNL1        0.0685
     43 H           2.9145   -0.9291   -6.3952 H       1  UNL1        0.0693
     44 H           3.6835   -2.3197   -3.2974 H       1  UNL1        0.0639
@<TRIPOS>UNITY_ATOM_ATTR
21 1
charge 1
23 1
charge -1
@<TRIPOS>BOND
     1     1     2    1
     2     2     3    1
     3     2     4    1
     4     4     5    2
     5     4     6   am
     6     6     7    1
     7     7     8   ar
     8     8     9   ar
     9     9    10   ar
    10    10    11   ar
    11    11    12    1
    12    12    13    1
    13    13    14   am
    14    14    15    2
    15    14    16    1
    16    16    17   ar
    17    17    18   ar
    18    18    19   ar
    19    19    20   ar
    20    20    21    1
    21    21    22    2
    22    21    23    1
    23    20    24   ar
    24    16    24   ar
    25    11    25   ar
    26     7    25   ar
    27     1    26    1
    28     1    27    1
    29     1    28    1
    30     2    29    1
    31     3    30    1
    32     3    31    1
    33     3    32    1
    34     6    33    1
    35     8    34    1
    36     9    35    1
    37    10    36    1
    38    12    37    1
    39    12    38    1
    40    13    39    1
    41    17    40    1
    42    18    41    1
    43    19    42    1
    44    24    43    1
    45    25    44    1
