@<TRIPOS>MOLECULE
*****
 57 60 0 0 0
SMALL
GASTEIGER

@<TRIPOS>ATOM
      1 C           2.9242    0.4385    1.1856 C.3     1  UNL1       -0.0425
      2 N           2.3394    0.0939   -0.1139 N.4     1  UNL1        0.2396
      3 C           0.8657   -0.0697    0.1693 C.3     1  UNL1        0.0139
      4 C           0.4829   -0.9930    1.3348 C.ar    1  UNL1        0.1234
      5 C           1.1121   -1.6981    2.4461 C.ar    1  UNL1        0.1773
      6 C           2.6430   -1.9847    3.0854 C.2     1  UNL1        0.2854
      7 O           2.7479   -2.2661    4.2607 O.2     1  UNL1       -0.2666
      8 N           3.8622   -1.8366    2.2717 N.am    1  UNL1       -0.2016
      9 N           5.1788   -1.5596    2.6959 N.2     1  UNL1       -0.1874
     10 C           5.9956   -0.9018    1.8975 C.2     1  UNL1        0.0529
     11 C           7.4741   -0.9610    2.0086 C.ar    1  UNL1       -0.0027
     12 C           7.9717   -2.1988    2.4025 C.ar    1  UNL1       -0.0529
     13 C           9.3373   -2.3891    2.5569 C.ar    1  UNL1       -0.0584
     14 C          10.2163   -1.3422    2.2928 C.ar    1  UNL1       -0.0264
     15 C           9.7225   -0.1285    1.8203 C.ar    1  UNL1        0.1240
     16 F          10.5834    0.8647    1.5555 F       1  UNL1       -0.2055
     17 C           8.3509    0.0728    1.6392 C.ar    1  UNL1       -0.0178
     18 N           0.0504   -2.0910    3.2543 N.ar    1  UNL1       -0.1239
     19 N          -1.1115   -1.6903    2.7484 N.ar    1  UNL1       -0.0581
     20 N          -0.9249   -1.1337    1.5376 N.ar    1  UNL1       -0.1868
     21 C          -2.0068   -0.7899    0.6389 C.ar    1  UNL1        0.2404
     22 N          -3.0678   -0.1006    1.0707 N.ar    1  UNL1       -0.0272
     23 O          -3.8592    0.0788   -0.0767 O.2     1  UNL1       -0.2388
     24 N          -3.2711   -0.5150   -1.1904 N.ar    1  UNL1       -0.0319
     25 C          -2.1367   -1.0475   -0.7452 C.ar    1  UNL1        0.2064
     26 N          -1.2750   -1.7362   -1.5286 N.pl3   1  UNL1       -0.3375
     27 C           2.8606   -1.0915   -0.9964 C.3     1  UNL1       -0.0208
     28 C           4.3856   -1.1798   -1.0902 C.3     1  UNL1       -0.0096
     29 C           4.8727   -2.3614   -1.9312 C.3     1  UNL1       -0.0480
     30 C           4.2697   -3.6826   -1.4513 C.3     1  UNL1       -0.0527
     31 C           2.7540   -3.6054   -1.4503 C.3     1  UNL1       -0.0480
     32 C           2.2732   -2.4632   -0.5807 C.3     1  UNL1       -0.0096
     33 H           3.9840    0.6061    1.1670 H       1  UNL1        0.0778
     34 H           2.7225   -0.4703    1.6263 H       1  UNL1        0.0778
     35 H           2.3368    1.0976    1.8329 H       1  UNL1        0.0778
     36 H           2.4870    0.9556   -0.6596 H       1  UNL1        0.2037
     37 H           0.4741    0.9452    0.3316 H       1  UNL1        0.0883
     38 H           0.4571   -0.3892   -0.7854 H       1  UNL1        0.0883
     39 H           3.8073   -1.9241    1.2853 H       1  UNL1        0.1776
     40 H           5.7144   -0.2914    1.0220 H       1  UNL1        0.0851
     41 H           7.2834   -3.0192    2.5889 H       1  UNL1        0.0624
     42 H           9.7004   -3.3510    2.9054 H       1  UNL1        0.0619
     43 H          11.2821   -1.4713    2.4562 H       1  UNL1        0.0646
     44 H           8.0254    1.0343    1.2511 H       1  UNL1        0.0652
     45 H          -1.6631   -2.0541   -2.4206 H       1  UNL1        0.1439
     46 H          -0.7063   -2.4663   -1.1191 H       1  UNL1        0.1439
     47 H           2.4825   -0.8448   -1.9945 H       1  UNL1        0.0851
     48 H           4.7977   -1.4115   -0.1264 H       1  UNL1        0.0320
     49 H           4.8357   -0.2393   -1.4192 H       1  UNL1        0.0320
     50 H           5.9650   -2.4308   -1.8582 H       1  UNL1        0.0267
     51 H           4.6155   -2.1912   -2.9796 H       1  UNL1        0.0267
     52 H           4.6290   -3.9190   -0.4389 H       1  UNL1        0.0265
     53 H           4.5920   -4.5021   -2.1006 H       1  UNL1        0.0265
     54 H           2.3288   -4.5424   -1.0716 H       1  UNL1        0.0267
     55 H           2.3781   -3.4557   -2.4661 H       1  UNL1        0.0267
     56 H           2.5138   -2.7484    0.4381 H       1  UNL1        0.0320
     57 H           1.1905   -2.4672   -0.6255 H       1  UNL1        0.0320
@<TRIPOS>UNITY_ATOM_ATTR
2 1
charge 1
@<TRIPOS>BOND
     1     3     4    1
     2     4     5   ar
     3     5     6    1
     4     6     7    2
     5     6     8   am
     6     8     9    1
     7     9    10    2
     8    10    11    1
     9    11    12   ar
    10    12    13   ar
    11    13    14   ar
    12    14    15   ar
    13    15    16    1
    14    15    17   ar
    15    11    17   ar
    16     5    18   ar
    17    18    19   ar
    18    19    20   ar
    19     4    20   ar
    20    20    21    1
    21    21    22   ar
    22    22    23   ar
    23    23    24   ar
    24    24    25   ar
    25    21    25   ar
    26    25    26    1
    27     2    27    1
    28    27    28    1
    29    28    29    1
    30    29    30    1
    31    30    31    1
    32    31    32    1
    33    27    32    1
    34     2     3    1
    35     2     1    1
    36     1    33    1
    37     1    34    1
    38     1    35    1
    39     2    36    1
    40     3    37    1
    41     3    38    1
    42     8    39    1
    43    10    40    1
    44    12    41    1
    45    13    42    1
    46    14    43    1
    47    17    44    1
    48    26    45    1
    49    26    46    1
    50    27    47    1
    51    28    48    1
    52    28    49    1
    53    29    50    1
    54    29    51    1
    55    30    52    1
    56    30    53    1
    57    31    54    1
    58    31    55    1
    59    32    56    1
    60    32    57    1
