@<TRIPOS>MOLECULE
*****
 54 55 0 0 0
SMALL
GASTEIGER

@<TRIPOS>ATOM
      1 C           1.0695    0.0106   -0.0542 C.3     1  UNL1        0.0790
      2 O           2.4962    0.0256   -0.0408 O.3     1  UNL1       -0.4914
      3 C           3.1119    1.2552   -0.0436 C.ar    1  UNL1        0.1619
      4 C           4.5245    1.1937   -0.0595 C.ar    1  UNL1       -0.0077
      5 C           5.2963    2.3653   -0.0808 C.ar    1  UNL1       -0.0018
      6 C           6.7935    2.3073   -0.1029 C.2     1  UNL1        0.0529
      7 N           7.5000    3.3951   -0.1306 N.2     1  UNL1       -0.1877
      8 N           8.8753    3.3163   -0.1553 N.am    1  UNL1       -0.2059
      9 C           9.5905    4.5166   -0.2435 C.2     1  UNL1        0.2480
     10 O           9.0291    5.6124   -0.3278 O.2     1  UNL1       -0.2726
     11 C          11.1289    4.3844   -0.1976 C.3     1  UNL1        0.0981
     12 N          11.8075    5.7169    0.0085 N.3     1  UNL1       -0.1708
     13 C          11.4200    6.2656    1.3329 C.3     1  UNL1        0.0095
     14 S          13.4891    5.6889   -0.2182 S.O2    1  UNL1        0.0615
     15 O          14.0116    5.0850    0.9872 O.2     1  UNL1       -0.1528
     16 O          13.7554    5.0925   -1.5192 O.2     1  UNL1       -0.1528
     17 C          14.1173    7.3885   -0.2852 C.ar    1  UNL1        0.1113
     18 C          15.5376    7.5478   -0.2727 C.ar    1  UNL1       -0.0236
     19 C          16.5103    6.3871   -0.2617 C.3     1  UNL1       -0.0378
     20 C          16.0937    8.8524   -0.2723 C.ar    1  UNL1       -0.0540
     21 C          15.2745    9.9829   -0.2623 C.ar    1  UNL1       -0.0498
     22 C          15.7886   11.3932   -0.2732 C.3     1  UNL1       -0.0397
     23 C          13.8936    9.8064   -0.2687 C.ar    1  UNL1       -0.0540
     24 C          13.2892    8.5388   -0.3295 C.ar    1  UNL1       -0.0236
     25 C          11.7906    8.5934   -0.4434 C.3     1  UNL1       -0.0378
     26 C           4.6439    3.6035   -0.0844 C.ar    1  UNL1       -0.0494
     27 C           3.2458    3.6754   -0.0559 C.ar    1  UNL1       -0.0159
     28 C           2.4819    2.5089   -0.0328 C.ar    1  UNL1        0.1585
     29 O           1.1187    2.6226    0.0025 O.3     1  UNL1       -0.5033
     30 H           0.7312   -1.0293   -0.0650 H       1  UNL1        0.0660
     31 H           0.6752    0.4818   -0.9622 H       1  UNL1        0.0660
     32 H           0.6623    0.4645    0.8564 H       1  UNL1        0.0660
     33 H           5.0032    0.2174   -0.0566 H       1  UNL1        0.0662
     34 H           7.2618    1.3078   -0.0976 H       1  UNL1        0.0851
     35 H           9.3317    2.4112   -0.1431 H       1  UNL1        0.1773
     36 H          11.4572    3.9197   -1.1335 H       1  UNL1        0.0540
     37 H          11.4099    3.7346    0.6396 H       1  UNL1        0.0540
     38 H          10.4047    6.6668    1.2736 H       1  UNL1        0.0408
     39 H          12.0816    7.0773    1.6399 H       1  UNL1        0.0408
     40 H          11.4810    5.5149    2.1157 H       1  UNL1        0.0408
     41 H          16.0407    5.4073   -0.3369 H       1  UNL1        0.0278
     42 H          17.0857    6.3861    0.6698 H       1  UNL1        0.0278
     43 H          17.1934    6.4460   -1.1157 H       1  UNL1        0.0278
     44 H          17.1768    8.9802   -0.2765 H       1  UNL1        0.0623
     45 H          16.8793   11.4446   -0.2960 H       1  UNL1        0.0278
     46 H          15.4345   11.9248    0.6177 H       1  UNL1        0.0278
     47 H          15.4042   11.9168   -1.1575 H       1  UNL1        0.0278
     48 H          13.2613   10.6946   -0.2507 H       1  UNL1        0.0623
     49 H          11.4384    9.5929   -0.7177 H       1  UNL1        0.0278
     50 H          11.3036    8.4519    0.5172 H       1  UNL1        0.0278
     51 H          11.4249    7.9044   -1.2049 H       1  UNL1        0.0278
     52 H           5.2201    4.5266   -0.1088 H       1  UNL1        0.0625
     53 H           2.7695    4.6516   -0.0540 H       1  UNL1        0.0655
     54 H           0.8477    3.5536    0.0251 H       1  UNL1        0.2923
@<TRIPOS>BOND
     1     1     2    1
     2     2     3    1
     3     3     4   ar
     4     4     5   ar
     5     5     6    1
     6     6     7    2
     7     7     8    1
     8     8     9   am
     9     9    10    2
    10     9    11    1
    11    11    12    1
    12    12    13    1
    13    12    14    1
    14    14    15    2
    15    14    16    2
    16    14    17    1
    17    17    18   ar
    18    18    19    1
    19    18    20   ar
    20    20    21   ar
    21    21    22    1
    22    21    23   ar
    23    23    24   ar
    24    17    24   ar
    25    24    25    1
    26     5    26   ar
    27    26    27   ar
    28    27    28   ar
    29     3    28   ar
    30    28    29    1
    31     1    30    1
    32     1    31    1
    33     1    32    1
    34     4    33    1
    35     6    34    1
    36     8    35    1
    37    11    36    1
    38    11    37    1
    39    13    38    1
    40    13    39    1
    41    13    40    1
    42    19    41    1
    43    19    42    1
    44    19    43    1
    45    20    44    1
    46    22    45    1
    47    22    46    1
    48    22    47    1
    49    23    48    1
    50    25    49    1
    51    25    50    1
    52    25    51    1
    53    26    52    1
    54    27    53    1
    55    29    54    1
