REMARK  3 active torsions:
REMARK  status: ('A' for Active; 'I' for Inactive)
REMARK    1  A    between atoms: C_2  and  C_3 
REMARK    2  A    between atoms: C_3  and  C_9 
REMARK    3  A    between atoms: N_4  and  N_5 
REMARK       I    between atoms: N_5  and  C_6 
REMARK       I    between atoms: C_6  and  N_7 
ROOT
ATOM      1  C   UNL d   1       2.975   1.292   0.798  0.00  0.00     0.064 C 
ATOM      2  N   UNL d   1       2.219   2.236   1.315  0.00  0.00    -0.175 NA
ENDROOT
BRANCH   1   3
ATOM      3  C   UNL d   1       2.557  -0.019   0.092  0.00  0.00     0.057 C 
ATOM      4  C   UNL d   1       1.084  -0.314  -0.059  0.00  0.00     0.011 C 
ENDBRANCH   1   3
BRANCH   1   5
ATOM      5  C   UNL d   1       4.476   1.498   0.887  0.00  0.00    -0.010 A 
ATOM      6  C   UNL d   1       5.035   2.027   2.056  0.00  0.00     0.013 A 
ATOM      7  C   UNL d   1       6.389   2.384   2.095  0.00  0.00     0.001 A 
ATOM      8  C   UNL d   1       7.212   2.145   0.995  0.00  0.00     0.000 A 
ATOM      9  C   UNL d   1       6.676   1.572  -0.156  0.00  0.00     0.001 A 
ATOM     10  C   UNL d   1       5.314   1.252  -0.213  0.00  0.00     0.013 A 
ENDBRANCH   1   5
BRANCH   2  11
ATOM     11  N   UNL d   1       0.858   2.163   1.255  0.00  0.00    -0.229 N 
ATOM     12  C   UNL d   1      -0.056   3.051   1.707  0.00  0.00     0.334 C 
ATOM     13  N   UNL d   1       0.406   4.157   2.297  0.00  0.00    -0.351 N 
ATOM     14  O   UNL d   1      -1.262   2.828   1.572  0.00  0.00    -0.246 OA
ATOM     15  H   UNL d   1       1.404   4.286   2.334  0.00  0.00     0.160 HD
ATOM     16  H   UNL d   1      -0.257   4.840   2.627  0.00  0.00     0.160 HD
ATOM     17  H   UNL d   1       0.364   1.408   0.836  0.00  0.00     0.194 HD
ENDBRANCH   2  11
TORSDOF 3
