@<TRIPOS>MOLECULE
*****
 67 70 0 0 0
SMALL
GASTEIGER

@<TRIPOS>ATOM
      1 C          11.0741   -8.5438    0.7655 C.3     1  UNL1       -0.0396
      2 C          10.4708   -7.1608    0.7788 C.ar    1  UNL1       -0.0482
      3 C          10.5350   -6.4321    1.9658 C.ar    1  UNL1       -0.0552
      4 C           9.7311   -5.2792    2.1424 C.ar    1  UNL1       -0.0410
      5 C          10.1774   -4.4845    3.4708 C.3     1  UNL1       -0.0391
      6 C           8.9349   -4.6924    0.9058 C.ar    1  UNL1        0.0040
      7 C           8.5382   -3.2359    0.6233 C.ar    1  UNL1       -0.0390
      8 C           8.4153   -2.5989   -0.6829 C.ar    1  UNL1        0.0588
      9 C           8.5794   -1.0468   -0.9782 C.3     1  UNL1       -0.0000
     10 N           9.4419   -0.1474   -0.0136 N.4     1  UNL1        0.2481
     11 C           8.7733    1.2211    0.2009 C.3     1  UNL1       -0.0072
     12 C           9.0963    2.3036   -0.8388 C.3     1  UNL1        0.0841
     13 O           7.9816    3.1759   -0.9454 O.3     1  UNL1       -0.3898
     14 C          11.0660    0.1179   -0.1130 C.3     1  UNL1        0.0443
     15 C          11.5446    0.5586    1.2928 C.ar    1  UNL1        0.2000
     16 N          11.4288    1.8373    1.6407 N.ar    1  UNL1       -0.1075
     17 N          11.7751    1.9550    2.9474 N.ar    1  UNL1       -0.0228
     18 N          12.0970    0.7772    3.4414 N.ar    1  UNL1       -0.0434
     19 N          11.9772   -0.1346    2.4291 N.ar    1  UNL1       -0.2201
     20 C          12.3431   -1.5226    2.8440 C.3     1  UNL1        0.0704
     21 C          12.4201   -2.6872    1.8319 C.ar    1  UNL1       -0.0258
     22 C          11.4288   -3.3372    1.3136 C.ar    1  UNL1       -0.0541
     23 C          11.3392   -4.0533    0.0585 C.ar    1  UNL1       -0.0261
     24 C          12.3372   -4.4842   -0.7468 C.ar    1  UNL1        0.1234
     25 F          11.9596   -4.8444   -1.9993 F       1  UNL1       -0.2055
     26 C          13.3186   -3.6564   -0.4377 C.ar    1  UNL1       -0.0261
     27 C          13.4011   -2.8132    0.8751 C.ar    1  UNL1       -0.0541
     28 C          11.8983   -0.9950   -0.7798 C.3     1  UNL1        0.0038
     29 C          11.3504   -1.6537   -2.0472 C.3     1  UNL1       -0.0571
     30 C          13.5326   -0.7707   -0.8789 C.3     1  UNL1       -0.0571
     31 C           8.3849   -3.5298   -1.7240 C.ar    1  UNL1        0.2213
     32 O           8.4397   -3.1545   -3.0462 O.3     1  UNL1       -0.4921
     33 N           8.6190   -4.8785   -1.5417 N.ar    1  UNL1       -0.2126
     34 C           8.9729   -5.4451   -0.3216 C.ar    1  UNL1        0.0753
     35 C           9.7268   -6.6582   -0.3301 C.ar    1  UNL1       -0.0327
     36 H          11.5230   -8.7874    1.7386 H       1  UNL1        0.0278
     37 H          11.8263   -8.7289   -0.0075 H       1  UNL1        0.0278
     38 H          10.2342   -9.2315    0.6339 H       1  UNL1        0.0278
     39 H          11.3003   -6.7110    2.7030 H       1  UNL1        0.0623
     40 H          10.6468   -5.1100    4.2466 H       1  UNL1        0.0278
     41 H           9.4616   -3.7060    3.7425 H       1  UNL1        0.0278
     42 H          11.0840   -3.8695    3.4101 H       1  UNL1        0.0278
     43 H           8.7439   -2.5565    1.4486 H       1  UNL1        0.0630
     44 H           7.5745   -0.6113   -1.0436 H       1  UNL1        0.0869
     45 H           8.9780   -0.7904   -1.9717 H       1  UNL1        0.0869
     46 H           9.2898   -0.5937    0.8919 H       1  UNL1        0.2045
     47 H           7.6976    1.0429    0.2728 H       1  UNL1        0.0837
     48 H           9.0828    1.5677    1.1876 H       1  UNL1        0.0837
     49 H           9.3323    1.9218   -1.8379 H       1  UNL1        0.0610
     50 H           9.9491    2.9077   -0.5034 H       1  UNL1        0.0610
     51 H           7.1993    2.6814   -1.2439 H       1  UNL1        0.2096
     52 H          11.1720    0.9615   -0.7992 H       1  UNL1        0.0938
     53 H          11.6909   -1.7351    3.7137 H       1  UNL1        0.0560
     54 H          13.3497   -1.3930    3.2551 H       1  UNL1        0.0560
     55 H          10.4752   -3.1722    1.8026 H       1  UNL1        0.0622
     56 H          10.4932   -3.8562   -0.5464 H       1  UNL1        0.0646
     57 H          13.6170   -3.2139   -1.4157 H       1  UNL1        0.0646
     58 H          13.7708   -1.8131    0.9118 H       1  UNL1        0.0622
     59 H          11.5665   -1.6917   -0.0495 H       1  UNL1        0.0355
     60 H          11.4039   -1.0519   -2.9408 H       1  UNL1        0.0234
     61 H          10.3426   -1.9379   -1.8630 H       1  UNL1        0.0234
     62 H          11.6925   -2.6537   -2.2970 H       1  UNL1        0.0234
     63 H          13.8663   -0.4093   -1.8415 H       1  UNL1        0.0234
     64 H          14.2063   -1.6504   -0.8654 H       1  UNL1        0.0234
     65 H          13.9942   -0.2303   -0.0319 H       1  UNL1        0.0234
     66 H           8.2183   -2.2343   -3.2423 H       1  UNL1        0.2937
     67 H           9.8906   -7.1755   -1.2875 H       1  UNL1        0.0642
@<TRIPOS>UNITY_ATOM_ATTR
10 1
charge 1
@<TRIPOS>BOND
     1     1     2    1
     2     2     3   ar
     3     3     4   ar
     4     4     5    1
     5     4     6   ar
     6     6     7   ar
     7     7     8   ar
     8     8     9    1
     9    11    12    1
    10    12    13    1
    11    10    14    1
    12    14    15    1
    13    15    16   ar
    14    16    17   ar
    15    17    18   ar
    16    18    19   ar
    17    15    19   ar
    18    19    20    1
    19    20    21    1
    20    21    22   ar
    21    22    23   ar
    22    23    24   ar
    23    24    25    1
    24    24    26   ar
    25    26    27   ar
    26    21    27   ar
    27    14    28    1
    28    28    29    1
    29    28    30    1
    30     8    31   ar
    31    31    32    1
    32    31    33   ar
    33    33    34   ar
    34     6    34   ar
    35    34    35   ar
    36     2    35   ar
    37    10    11    1
    38    10     9    1
    39     1    36    1
    40     1    37    1
    41     1    38    1
    42     3    39    1
    43     5    40    1
    44     5    41    1
    45     5    42    1
    46     7    43    1
    47     9    44    1
    48     9    45    1
    49    10    46    1
    50    11    47    1
    51    11    48    1
    52    12    49    1
    53    12    50    1
    54    13    51    1
    55    14    52    1
    56    20    53    1
    57    20    54    1
    58    22    55    1
    59    23    56    1
    60    26    57    1
    61    27    58    1
    62    28    59    1
    63    29    60    1
    64    29    61    1
    65    29    62    1
    66    30    63    1
    67    30    64    1
    68    30    65    1
    69    32    66    1
    70    35    67    1
