REMARK  10 active torsions:
REMARK  status: ('A' for Active; 'I' for Inactive)
REMARK    1  A    between atoms: C_2  and  C_3 
REMARK    2  A    between atoms: C_3  and  C_4 
REMARK    3  A    between atoms: C_4  and  C_5 
REMARK       I    between atoms: C_5  and  N_7 
REMARK    4  A    between atoms: N_7  and  C_8 
REMARK    5  A    between atoms: C_11  and  C_12 
REMARK       I    between atoms: C_12  and  N_14 
REMARK    6  A    between atoms: N_14  and  N_15 
REMARK       I    between atoms: N_15  and  C_16 
REMARK    7  A    between atoms: C_16  and  C_18 
REMARK    8  A    between atoms: C_18  and  O_19 
REMARK    9  A    between atoms: O_19  and  C_20 
REMARK   10  A    between atoms: C_23  and  N_24 
ROOT
ATOM      1  C   UNL d   1       8.710   4.636   7.163  0.00  0.00     0.270 C 
ATOM      2  O   UNL d   1       9.765   5.271   7.043  0.00  0.00    -0.266 OA
ATOM      3  N   UNL d   1       8.044   4.555   8.384  0.00  0.00    -0.263 N 
ATOM      4  H   UNL d   1       7.163   4.067   8.531  0.00  0.00     0.190 HD
ENDROOT
BRANCH   3   5
ATOM      5  N   UNL d   1       8.552   5.220   9.543  0.00  0.00    -0.265 N 
ATOM      6  C   UNL d   1       7.850   5.088  10.742  0.00  0.00     0.260 C 
ATOM      7  O   UNL d   1       6.804   4.435  10.789  0.00  0.00    -0.269 OA
ATOM      8  H   UNL d   1       9.412   5.750   9.418  0.00  0.00     0.190 HD
BRANCH   6   9
ATOM      9  C   UNL d   1       8.455   5.812  11.978  0.00  0.00     0.280 C 
BRANCH   9  10
ATOM     10  O   UNL d   1       7.735   5.489  13.176  0.00  0.00    -0.342 OA
BRANCH  10  11
ATOM     11  C   UNL d   1       7.965   6.200  14.325  0.00  0.00     0.069 A 
ATOM     12  C   UNL d   1       7.668   5.529  15.522  0.00  0.00     0.039 A 
ATOM     13  C   UNL d   1       7.722   6.187  16.761  0.00  0.00     0.039 A 
ATOM     14  C   UNL d   1       8.146   7.518  16.809  0.00  0.00     0.103 A 
ATOM     15  C   UNL d   1       8.450   8.199  15.623  0.00  0.00     0.039 A 
ATOM     16  C   UNL d   1       8.356   7.538  14.386  0.00  0.00     0.039 A 
BRANCH  14  17
ATOM     17  N   UNL d   1       8.321   8.188  18.107  0.00  0.00    -0.116 N 
ATOM     18  O   UNL d   1       8.062   7.542  19.132  0.00  0.00    -0.532 OA
ATOM     19  O   UNL d   1       8.742   9.355  18.100  0.00  0.00    -0.532 OA
ENDBRANCH  14  17
ENDBRANCH  10  11
ENDBRANCH   9  10
ENDBRANCH   6   9
ENDBRANCH   3   5
BRANCH   1  20
ATOM     20  C   UNL d   1       8.101   3.945   5.959  0.00  0.00     0.033 A 
ATOM     21  C   UNL d   1       8.714   4.036   4.691  0.00  0.00     0.019 A 
ATOM     22  C   UNL d   1       8.122   3.465   3.535  0.00  0.00     0.030 A 
ATOM     23  C   UNL d   1       6.923   2.756   3.638  0.00  0.00     0.034 A 
ATOM     24  C   UNL d   1       6.325   2.661   4.897  0.00  0.00     0.030 A 
ATOM     25  C   UNL d   1       6.905   3.230   6.041  0.00  0.00     0.019 A 
BRANCH  23  26
ATOM     26  N   UNL d   1       6.359   2.075   2.524  0.00  0.00    -0.327 N 
ATOM     27  C   UNL d   1       4.990   1.892   2.373  0.00  0.00     0.222 C 
ATOM     28  O   UNL d   1       4.150   2.432   3.094  0.00  0.00    -0.273 OA
ATOM     29  H   UNL d   1       6.987   1.762   1.793  0.00  0.00     0.169 HD
BRANCH  27  30
ATOM     30  C   UNL d   1       4.557   0.989   1.222  0.00  0.00     0.103 C 
BRANCH  30  31
ATOM     31  C   UNL d   1       3.021   0.938   1.169  0.00  0.00     0.009 C 
BRANCH  31  32
ATOM     32  C   UNL d   1       2.482   0.067   0.041  0.00  0.00    -0.004 C 
ATOM     33  C   UNL d   1       0.959   0.067   0.040  0.00  0.00     0.005 C 
ENDBRANCH  31  32
ENDBRANCH  30  31
ENDBRANCH  27  30
ENDBRANCH  23  26
ENDBRANCH   1  20
TORSDOF 10
