@<TRIPOS>MOLECULE
*****
 62 65 0 0 0
SMALL
GASTEIGER

@<TRIPOS>ATOM
      1 C           0.8819   -0.3100   -0.4258 C.3     1  UNL1       -0.0307
      2 C           2.3927   -0.3922   -0.6387 C.3     1  UNL1        0.0869
      3 O           3.1955   -1.4850   -0.2065 O.3     1  UNL1       -0.4904
      4 C           4.5283   -1.4322    0.2586 C.ar    1  UNL1        0.1418
      5 C           5.0375   -2.7556    0.1095 C.ar    1  UNL1       -0.0181
      6 C           6.3059   -3.1357    0.5386 C.ar    1  UNL1       -0.0582
      7 C           7.0747   -2.2200    1.2002 C.ar    1  UNL1       -0.0598
      8 C           6.4712   -1.0420    1.6159 C.ar    1  UNL1       -0.0367
      9 C           5.2732   -0.5109    1.0927 C.ar    1  UNL1        0.0796
     10 N           4.9400    0.8559    1.5739 N.am    1  UNL1       -0.2444
     11 C           5.8384    1.8844    2.0309 C.2     1  UNL1        0.2619
     12 O           5.4229    2.9567    2.5013 O.2     1  UNL1       -0.2689
     13 C           7.2636    1.7172    2.0063 C.ar    1  UNL1        0.1156
     14 S           8.1384    2.0737    3.4418 S.2     1  UNL1        0.0190
     15 N           9.5545    1.3429    2.9702 N.ar    1  UNL1       -0.2031
     16 C           9.4109    0.9138    1.7055 C.ar    1  UNL1        0.1554
     17 C          10.4345    0.0931    1.0533 C.2     1  UNL1        0.2624
     18 N          11.6420   -0.0173    1.6643 N.am    1  UNL1       -0.3240
     19 O          10.2276   -0.5192   -0.0039 O.2     1  UNL1       -0.2687
     20 C           8.1435    1.2099    1.0782 C.ar    1  UNL1        0.0765
     21 N           7.8066    0.7937   -0.1750 N.pl3   1  UNL1       -0.3551
     22 C           3.5443    1.2216    1.5232 C.3     1  UNL1        0.1647
     23 C           2.5108    0.1830    2.4035 C.2     1  UNL1        0.2417
     24 O           1.5620    0.5975    3.0759 O.2     1  UNL1       -0.2733
     25 N           2.5694   -1.2005    2.2945 N.am    1  UNL1       -0.3105
     26 C           1.6381   -2.1698    2.8544 C.3     1  UNL1        0.0232
     27 C           0.1648   -2.0309    2.4713 C.3     1  UNL1       -0.0345
     28 C          -0.4436   -3.3316    2.9711 C.3     1  UNL1       -0.0513
     29 C           0.6498   -4.3826    2.7698 C.3     1  UNL1       -0.0513
     30 C           1.9013   -3.6059    2.3546 C.3     1  UNL1       -0.0345
     31 C           3.0316    2.6338    1.6782 C.ar    1  UNL1        0.1345
     32 C           2.0782    3.2075    2.4858 C.ar    1  UNL1       -0.0183
     33 C           2.1880    4.5945    2.3285 C.ar    1  UNL1       -0.0236
     34 C           3.0835    4.7943    1.3092 C.ar    1  UNL1        0.0922
     35 O           3.5237    3.6007    0.8237 O.2     1  UNL1       -0.4654
     36 H           0.5411    0.6874   -0.7443 H       1  UNL1        0.0262
     37 H           0.6273   -0.2814    0.6436 H       1  UNL1        0.0262
     38 H           0.3125   -1.1037   -0.8867 H       1  UNL1        0.0262
     39 H           2.4717    0.2888    0.1275 H       1  UNL1        0.0694
     40 H           2.7783    0.0784   -1.5400 H       1  UNL1        0.0694
     41 H           4.4026   -3.5289   -0.3220 H       1  UNL1        0.0655
     42 H           6.6776   -4.1469    0.4094 H       1  UNL1        0.0619
     43 H           8.1128   -2.4136    1.4584 H       1  UNL1        0.0618
     44 H           7.0206   -0.5352    2.3967 H       1  UNL1        0.0637
     45 H          11.8352    0.4506    2.5406 H       1  UNL1        0.1453
     46 H          12.3646   -0.5154    1.1665 H       1  UNL1        0.1453
     47 H           8.3649    0.0089   -0.5394 H       1  UNL1        0.1424
     48 H           6.8297    0.6304   -0.4067 H       1  UNL1        0.1424
     49 H           3.5593    1.3053    0.4302 H       1  UNL1        0.0683
     50 H           3.0566   -1.6113    1.5316 H       1  UNL1        0.1490
     51 H           1.7583   -2.1204    3.9394 H       1  UNL1        0.0498
     52 H           0.0176   -2.0119    1.3870 H       1  UNL1        0.0283
     53 H          -0.3130   -1.1471    2.8984 H       1  UNL1        0.0283
     54 H          -1.3630   -3.5826    2.4328 H       1  UNL1        0.0266
     55 H          -0.6872   -3.2383    4.0342 H       1  UNL1        0.0266
     56 H           0.3632   -5.1170    2.0083 H       1  UNL1        0.0266
     57 H           0.8282   -4.9266    3.7026 H       1  UNL1        0.0266
     58 H           1.9870   -3.6449    1.2571 H       1  UNL1        0.0283
     59 H           2.8203   -4.0405    2.7573 H       1  UNL1        0.0283
     60 H           1.4506    2.6992    3.1969 H       1  UNL1        0.0653
     61 H           1.6912    5.3316    2.9357 H       1  UNL1        0.0649
     62 H           3.5220    5.6772    0.8685 H       1  UNL1        0.1029
@<TRIPOS>BOND
     1     1     2    1
     2     2     3    1
     3     3     4    1
     4     4     5   ar
     5     5     6   ar
     6     6     7   ar
     7     7     8   ar
     8     8     9   ar
     9     4     9   ar
    10     9    10    1
    11    10    11   am
    12    11    12    2
    13    11    13    1
    14    13    14   ar
    15    14    15   ar
    16    15    16   ar
    17    16    17    1
    18    17    18   am
    19    17    19    2
    20    16    20   ar
    21    13    20   ar
    22    20    21    1
    23    10    22    1
    24    22    23    1
    25    23    24    2
    26    23    25   am
    27    25    26    1
    28    26    27    1
    29    27    28    1
    30    28    29    1
    31    29    30    1
    32    26    30    1
    33    22    31    1
    34    31    32   ar
    35    32    33   ar
    36    33    34   ar
    37    34    35   ar
    38    31    35   ar
    39     1    36    1
    40     1    37    1
    41     1    38    1
    42     2    39    1
    43     2    40    1
    44     5    41    1
    45     6    42    1
    46     7    43    1
    47     8    44    1
    48    18    45    1
    49    18    46    1
    50    21    47    1
    51    21    48    1
    52    22    49    1
    53    25    50    1
    54    26    51    1
    55    27    52    1
    56    27    53    1
    57    28    54    1
    58    28    55    1
    59    29    56    1
    60    29    57    1
    61    30    58    1
    62    30    59    1
    63    32    60    1
    64    33    61    1
    65    34    62    1
