REMARK  7 active torsions:
REMARK  status: ('A' for Active; 'I' for Inactive)
REMARK    1  A    between atoms: C_7  and  C_8 
REMARK    2  A    between atoms: C_8  and  N_9 
REMARK       I    between atoms: N_9  and  C_10 
REMARK       I    between atoms: C_10  and  N_12 
REMARK    3  A    between atoms: N_12  and  C_13 
REMARK    4  A    between atoms: C_13  and  C_14 
REMARK    5  A    between atoms: C_14  and  N_15 
REMARK       I    between atoms: N_15  and  C_16 
REMARK    6  A    between atoms: C_16  and  O_18 
REMARK    7  A    between atoms: O_18  and  C_19 
ROOT
ATOM      1  N   UNL d   1       1.454  -3.218   0.027  0.00  0.00    -0.339 N 
ATOM      2  C   UNL d   1       1.664  -4.569   0.025  0.00  0.00     0.316 C 
ATOM      3  O   UNL d   1       0.752  -5.385   0.012  0.00  0.00    -0.247 OA
ATOM      4  N   UNL d   1       3.000  -4.931   0.041  0.00  0.00    -0.342 N 
ATOM      5  H   UNL d   1       2.258  -2.628   0.017  0.00  0.00     0.164 HD
ATOM      6  H   UNL d   1       3.719  -4.221   0.053  0.00  0.00     0.164 HD
ENDROOT
BRANCH   1   7
ATOM      7  C   UNL d   1       0.119  -2.617   0.006  0.00  0.00     0.167 C 
BRANCH   7   8
ATOM      8  C   UNL d   1       0.120  -1.105   0.007  0.00  0.00     0.009 A 
ATOM      9  C   UNL d   1       1.175  -0.202   0.002  0.00  0.00     0.034 A 
ATOM     10  N   UNL d   1       0.623   1.048   0.013  0.00  0.00    -0.282 N 
ATOM     11  C   UNL d   1       2.641  -0.380  -0.020  0.00  0.00     0.070 C 
ATOM     12  N   UNL d   1      -0.710   1.048   0.005  0.00  0.00    -0.179 NA
ATOM     13  H   UNL d   1       1.101   1.943   0.020  0.00  0.00     0.189 HD
ATOM     14  C   UNL d   1      -1.040  -0.249   0.004  0.00  0.00     0.060 A 
ATOM     15  C   UNL d   1      -2.484  -0.611   0.001  0.00  0.00     0.073 C 
ENDBRANCH   7   8
ENDBRANCH   1   7
BRANCH   4  16
ATOM     16  C   UNL d   1       3.382  -6.350   0.045  0.00  0.00     0.144 C 
BRANCH  16  17
ATOM     17  C   UNL d   1       4.895  -6.642   0.065  0.00  0.00     0.144 C 
BRANCH  17  18
ATOM     18  N   UNL d   1       5.262  -8.065   0.068  0.00  0.00    -0.335 N 
ATOM     19  C   UNL d   1       6.589  -8.432   0.085  0.00  0.00     0.361 C 
ATOM     20  O   UNL d   1       7.486  -7.593   0.097  0.00  0.00    -0.238 OA
ATOM     21  H   UNL d   1       4.564  -8.797   0.058  0.00  0.00     0.164 HD
BRANCH  19  22
ATOM     22  O   UNL d   1       6.786  -9.789   0.086  0.00  0.00    -0.294 OA
BRANCH  22  23
ATOM     23  C   UNL d   1       8.168 -10.295   0.104  0.00  0.00     0.061 C 
ATOM     24  C   UNL d   1       8.934  -9.853  -1.153  0.00  0.00     0.046 C 
ATOM     25  C   UNL d   1       8.901  -9.856   1.380  0.00  0.00     0.046 C 
ATOM     26  C   UNL d   1       8.156 -11.842   0.102  0.00  0.00     0.046 C 
ENDBRANCH  22  23
ENDBRANCH  19  22
ENDBRANCH  17  18
ENDBRANCH  16  17
ENDBRANCH   4  16
TORSDOF 7
