@<TRIPOS>MOLECULE
*****
 58 62 0 0 0
SMALL
GASTEIGER

@<TRIPOS>ATOM
      1 C           1.8547    0.4707  -12.6621 C.3     1  UNL1        0.0820
      2 O           1.8083    1.4987  -13.6657 O.3     1  UNL1       -0.4646
      3 C           0.5891    1.6232  -14.2627 C.2     1  UNL1        0.3375
      4 O          -0.3749    0.9231  -14.0351 O.2     1  UNL1       -0.2452
      5 C           0.5400    2.7694  -15.2116 C.2     1  UNL1        0.0670
      6 C           1.3152    2.9454  -16.3092 C.2     1  UNL1       -0.0441
      7 C           2.5249    2.1335  -16.7378 C.3     1  UNL1       -0.0298
      8 C           3.4547    2.9656  -17.6310 C.3     1  UNL1       -0.0493
      9 C           2.7065    3.4390  -18.8758 C.3     1  UNL1       -0.0515
     10 C           1.5352    4.3586  -18.5358 C.3     1  UNL1       -0.0373
     11 C           0.8695    4.1072  -17.1771 C.3     1  UNL1        0.0291
     12 S          -0.7846    4.6062  -16.6270 S.3     1  UNL1       -0.1257
     13 C          -0.6402    3.7018  -15.0350 C.3     1  UNL1        0.1034
     14 N          -0.4450    4.5918  -13.8747 N.am    1  UNL1       -0.2831
     15 C          -0.7948    4.0878  -12.6286 C.2     1  UNL1        0.3049
     16 O          -1.2341    2.9608  -12.5179 O.2     1  UNL1       -0.2525
     17 N          -0.6152    4.9000  -11.5135 N.am    1  UNL1       -0.2695
     18 C          -0.8678    4.3592  -10.1792 C.ar    1  UNL1        0.0348
     19 C          -1.5318    5.0519   -9.1811 C.ar    1  UNL1       -0.0400
     20 C          -1.7264    4.4643   -7.8568 C.ar    1  UNL1       -0.0502
     21 C          -1.4643    3.0690   -7.4719 C.ar    1  UNL1        0.0240
     22 C          -1.8735    2.3720   -5.9226 C.3     1  UNL1        0.1985
     23 C          -3.2337    1.5451   -5.1149 C.2     1  UNL1        0.0013
     24 C          -4.4276    2.1647   -5.2531 C.ar    1  UNL1        0.0497
     25 C          -5.8715    2.3393   -5.0694 C.ar    1  UNL1       -0.0300
     26 C          -6.4785    2.8814   -6.1643 C.ar    1  UNL1        0.0419
     27 CL         -8.1734    2.8442   -6.4664 Cl      1  UNL1       -0.0835
     28 C          -5.6849    3.3559   -7.2776 C.ar    1  UNL1       -0.0372
     29 C          -4.3619    3.5388   -7.1400 C.ar    1  UNL1        0.0112
     30 C          -3.7894    3.3282   -5.8108 C.ar    1  UNL1        0.2089
     31 N          -2.5720    3.5544   -5.3874 N.2     1  UNL1       -0.2304
     32 C          -0.6655    2.4726   -8.4636 C.ar    1  UNL1       -0.0502
     33 C          -0.3951    3.0992   -9.7691 C.ar    1  UNL1       -0.0400
     34 H           2.8933    0.3517  -12.3371 H       1  UNL1        0.0661
     35 H           1.5089   -0.4956  -13.0471 H       1  UNL1        0.0661
     36 H           1.2608    0.7607  -11.7882 H       1  UNL1        0.0661
     37 H           2.2089    1.2401  -17.2934 H       1  UNL1        0.0311
     38 H           3.1014    1.7687  -15.8785 H       1  UNL1        0.0311
     39 H           4.3345    2.3873  -17.9424 H       1  UNL1        0.0268
     40 H           3.8355    3.8264  -17.0652 H       1  UNL1        0.0268
     41 H           2.3475    2.5791  -19.4518 H       1  UNL1        0.0266
     42 H           3.3959    3.9952  -19.5245 H       1  UNL1        0.0266
     43 H           0.8490    4.4423  -19.3823 H       1  UNL1        0.0279
     44 H           2.0177    5.3448  -18.4348 H       1  UNL1        0.0279
     45 H           1.2547    5.0024  -16.7144 H       1  UNL1        0.0458
     46 H          -1.5936    3.1806  -14.9530 H       1  UNL1        0.0668
     47 H          -0.2837    5.5697  -14.0594 H       1  UNL1        0.1516
     48 H          -0.6388    5.9007  -11.6623 H       1  UNL1        0.1564
     49 H          -1.9845    6.0204   -9.4101 H       1  UNL1        0.0636
     50 H          -2.1790    5.1744   -7.1581 H       1  UNL1        0.0623
     51 H          -0.9373    2.2090   -5.3742 H       1  UNL1        0.1166
     52 H          -3.1441    0.9812   -4.1618 H       1  UNL1        0.0649
     53 H          -6.5012    2.0194   -4.2387 H       1  UNL1        0.0640
     54 H          -6.0900    3.5138   -8.2656 H       1  UNL1        0.0634
     55 H          -3.7816    3.5811   -8.0377 H       1  UNL1        0.0684
     56 H          -2.3298    3.4281   -4.3958 H       1  UNL1        0.4466
     57 H          -0.1292    1.5449   -8.2877 H       1  UNL1        0.0623
     58 H           0.2486    2.5731  -10.4782 H       1  UNL1        0.0636
@<TRIPOS>UNITY_ATOM_ATTR
31 1
charge 1
@<TRIPOS>BOND
     1     1     2    1
     2     2     3    1
     3     3     4    2
     4     3     5    1
     5     5     6    2
     6     6     7    1
     7     7     8    1
     8     8     9    1
     9     9    10    1
    10    10    11    1
    11     6    11    1
    12    11    12    1
    13    12    13    1
    14     5    13    1
    15    13    14    1
    16    14    15   am
    17    15    16    2
    18    15    17   am
    19    17    18    1
    20    18    19   ar
    21    19    20   ar
    22    20    21   ar
    23    22    23    1
    24    23    24    2
    25    24    25   ar
    26    25    26   ar
    27    26    27    1
    28    26    28   ar
    29    28    29   ar
    30    29    30   ar
    31    24    30   ar
    32    30    31    2
    33    22    31    1
    34    21    32   ar
    35    32    33   ar
    36    18    33   ar
    37    22    21    1
    38     1    34    1
    39     1    35    1
    40     1    36    1
    41     7    37    1
    42     7    38    1
    43     8    39    1
    44     8    40    1
    45     9    41    1
    46     9    42    1
    47    10    43    1
    48    10    44    1
    49    11    45    1
    50    13    46    1
    51    14    47    1
    52    17    48    1
    53    19    49    1
    54    20    50    1
    55    22    51    1
    56    23    52    1
    57    25    53    1
    58    28    54    1
    59    29    55    1
    60    31    56    1
    61    32    57    1
    62    33    58    1
