@<TRIPOS>MOLECULE
*****
 80 83 0 0 0
SMALL
GASTEIGER

@<TRIPOS>ATOM
      1 C           1.0596    0.0678    0.0357 C.3     1  UNL1       -0.0307
      2 C           2.5771    0.0578    0.0327 C.3     1  UNL1        0.0868
      3 O           3.0233   -0.5286    1.2544 O.3     1  UNL1       -0.4922
      4 C           4.3728   -0.4788    1.4705 C.ar    1  UNL1        0.1206
      5 C           4.9201   -1.5446    2.1820 C.ar    1  UNL1       -0.0182
      6 C           6.2633   -1.5151    2.5663 C.ar    1  UNL1       -0.0374
      7 C           7.0985   -0.4568    2.1876 C.ar    1  UNL1        0.0276
      8 N           8.4110   -0.4482    2.6234 N.pl3   1  UNL1       -0.3383
      9 C           9.4139    0.4267    2.0445 C.3     1  UNL1        0.0500
     10 C          10.8325    0.0998    2.3973 C.ar    1  UNL1        0.0426
     11 C          11.8638    0.9960    2.6081 C.ar    1  UNL1       -0.0390
     12 C          13.0112    0.2563    2.9471 C.ar    1  UNL1       -0.0435
     13 C          12.6553   -1.0758    2.9486 C.ar    1  UNL1        0.0120
     14 N          11.3280   -1.1954    2.5726 N.ar    1  UNL1       -0.2965
     15 C          10.6754   -2.3906    2.2575 C.ar    1  UNL1        0.2019
     16 N          10.3969   -3.3863    3.0662 N.ar    1  UNL1       -0.1211
     17 N           9.5563   -4.3111    2.4187 N.ar    1  UNL1       -0.1240
     18 C           9.3551   -4.0179    1.1418 C.ar    1  UNL1        0.1858
     19 N           8.7470   -4.7992    0.2069 N.pl3   1  UNL1       -0.3081
     20 C           7.3022   -4.9738    0.1685 C.3     1  UNL1        0.0147
     21 C           7.0468   -6.4463   -0.1840 C.3     1  UNL1       -0.0260
     22 C           7.7620   -6.8534   -1.4931 C.3     1  UNL1        0.0384
     23 C           7.1323   -6.2439   -2.7503 C.2     1  UNL1        0.2162
     24 O           7.7394   -5.5279   -3.5301 O.2     1  UNL1       -0.2755
     25 N           5.8200   -6.5708   -2.9955 N.am    1  UNL1       -0.3149
     26 C           5.1891   -6.0108   -4.1797 C.3     1  UNL1        0.0164
     27 C           3.7482   -6.4352   -4.2420 C.3     1  UNL1        0.0031
     28 C           2.9356   -5.7764   -5.3383 C.3     1  UNL1       -0.0305
     29 N           1.4578   -6.1889   -5.2700 N.4     1  UNL1        0.2349
     30 C           0.7231   -5.7630   -3.9991 C.3     1  UNL1       -0.0348
     31 C           1.1858   -6.4302   -2.7188 C.3     1  UNL1       -0.0245
     32 C           0.7456   -5.6214   -6.5110 C.3     1  UNL1       -0.0348
     33 C          -0.6986   -6.0859   -6.5998 C.3     1  UNL1       -0.0245
     34 C           9.2478   -6.4475   -1.4520 C.3     1  UNL1       -0.0260
     35 C           9.3975   -4.9733   -1.0881 C.3     1  UNL1        0.0147
     36 S          10.0869   -2.5254    0.6789 S.2     1  UNL1       -0.0127
     37 C           6.5368    0.5976    1.4695 C.ar    1  UNL1       -0.0374
     38 C           5.1855    0.5958    1.1213 C.ar    1  UNL1       -0.0182
     39 H           0.6757    0.4342   -0.9206 H       1  UNL1        0.0262
     40 H           0.6818    0.7161    0.8341 H       1  UNL1        0.0262
     41 H           0.6630   -0.9349    0.2209 H       1  UNL1        0.0262
     42 H           2.9164    1.0899   -0.0942 H       1  UNL1        0.0694
     43 H           2.9407   -0.5534   -0.8003 H       1  UNL1        0.0694
     44 H           4.3023   -2.3937    2.4598 H       1  UNL1        0.0655
     45 H           6.6532   -2.3213    3.1860 H       1  UNL1        0.0637
     46 H           8.7247   -1.3267    3.0189 H       1  UNL1        0.1465
     47 H           9.2075    1.4409    2.4084 H       1  UNL1        0.0525
     48 H           9.3400    0.4714    0.9473 H       1  UNL1        0.0525
     49 H          11.7828    2.0737    2.5213 H       1  UNL1        0.0636
     50 H          13.9951    0.6591    3.1525 H       1  UNL1        0.0633
     51 H          13.2623   -1.9583    3.1013 H       1  UNL1        0.0813
     52 H           6.8594   -4.3374   -0.6124 H       1  UNL1        0.0464
     53 H           6.8075   -4.7090    1.1096 H       1  UNL1        0.0464
     54 H           5.9716   -6.6467   -0.2336 H       1  UNL1        0.0288
     55 H           7.4467   -7.0614    0.6347 H       1  UNL1        0.0288
     56 H           7.7069   -7.9441   -1.6021 H       1  UNL1        0.0395
     57 H           5.3076   -7.1378   -2.3290 H       1  UNL1        0.1487
     58 H           5.7460   -6.3035   -5.0719 H       1  UNL1        0.0464
     59 H           5.2335   -4.9178   -4.0800 H       1  UNL1        0.0464
     60 H           3.4174   -6.0583   -3.2939 H       1  UNL1        0.0332
     61 H           3.6267   -7.5240   -4.2360 H       1  UNL1        0.0332
     62 H           3.3105   -6.0837   -6.3215 H       1  UNL1        0.0815
     63 H           2.9597   -4.6843   -5.2646 H       1  UNL1        0.0815
     64 H           1.4111   -7.2151   -5.3526 H       1  UNL1        0.2033
     65 H          -0.3123   -6.0803   -4.1138 H       1  UNL1        0.0812
     66 H           0.7750   -4.6726   -3.9463 H       1  UNL1        0.0812
     67 H           1.3735   -7.4992   -2.8596 H       1  UNL1        0.0281
     68 H           0.4385   -6.2980   -1.9345 H       1  UNL1        0.0281
     69 H           2.0485   -5.9415   -2.2735 H       1  UNL1        0.0281
     70 H           1.2994   -5.9678   -7.3913 H       1  UNL1        0.0812
     71 H           0.8100   -4.5295   -6.4500 H       1  UNL1        0.0812
     72 H          -0.7596   -7.1774   -6.6343 H       1  UNL1        0.0281
     73 H          -1.1719   -5.6800   -7.4986 H       1  UNL1        0.0281
     74 H          -1.3046   -5.7298   -5.7628 H       1  UNL1        0.0281
     75 H           9.7401   -6.6424   -2.4108 H       1  UNL1        0.0288
     76 H           9.7661   -7.0493   -0.6945 H       1  UNL1        0.0288
     77 H           8.9404   -4.3079   -1.8311 H       1  UNL1        0.0464
     78 H          10.4647   -4.7275   -1.0590 H       1  UNL1        0.0464
     79 H           7.1310    1.4671    1.2063 H       1  UNL1        0.0637
     80 H           4.8000    1.4758    0.6216 H       1  UNL1        0.0655
@<TRIPOS>UNITY_ATOM_ATTR
29 1
charge 1
@<TRIPOS>BOND
     1     1     2    1
     2     2     3    1
     3     3     4    1
     4     4     5   ar
     5     5     6   ar
     6     6     7   ar
     7     7     8    1
     8     8     9    1
     9     9    10    1
    10    10    11   ar
    11    11    12   ar
    12    12    13   ar
    13    13    14   ar
    14    10    14   ar
    15    14    15    1
    16    15    16   ar
    17    16    17   ar
    18    17    18   ar
    19    18    19    1
    20    19    20    1
    21    20    21    1
    22    21    22    1
    23    22    23    1
    24    23    24    2
    25    23    25   am
    26    25    26    1
    27    26    27    1
    28    27    28    1
    29    28    29    1
    30    29    30    1
    31    30    31    1
    32    29    32    1
    33    32    33    1
    34    22    34    1
    35    34    35    1
    36    19    35    1
    37    18    36   ar
    38    15    36   ar
    39     7    37   ar
    40    37    38   ar
    41     4    38   ar
    42     1    39    1
    43     1    40    1
    44     1    41    1
    45     2    42    1
    46     2    43    1
    47     5    44    1
    48     6    45    1
    49     8    46    1
    50     9    47    1
    51     9    48    1
    52    11    49    1
    53    12    50    1
    54    13    51    1
    55    20    52    1
    56    20    53    1
    57    21    54    1
    58    21    55    1
    59    22    56    1
    60    25    57    1
    61    26    58    1
    62    26    59    1
    63    27    60    1
    64    27    61    1
    65    28    62    1
    66    28    63    1
    67    29    64    1
    68    30    65    1
    69    30    66    1
    70    31    67    1
    71    31    68    1
    72    31    69    1
    73    32    70    1
    74    32    71    1
    75    33    72    1
    76    33    73    1
    77    33    74    1
    78    34    75    1
    79    34    76    1
    80    35    77    1
    81    35    78    1
    82    37    79    1
    83    38    80    1
