@<TRIPOS>MOLECULE
*****
 38 39 0 0 0
SMALL
GASTEIGER

@<TRIPOS>ATOM
      1 O           0.9446    0.0242   -0.1537 O.2     1  UNL1       -0.2746
      2 C           2.1634    0.1865   -0.0010 C.2     1  UNL1        0.2274
      3 C           2.7732    1.1165    1.0658 C.3     1  UNL1        0.0751
      4 S           1.5716    1.7235    2.2846 S.3     1  UNL1       -0.1159
      5 C           2.6270    2.4465    3.5477 C.ar    1  UNL1        0.0090
      6 C           3.3812    1.7320    4.4858 C.ar    1  UNL1       -0.0469
      7 C           3.9842    2.4047    5.5652 C.ar    1  UNL1       -0.0418
      8 C           3.8437    3.7903    5.7196 C.ar    1  UNL1        0.0527
      9 CL          4.5613    4.4982    7.1204 Cl      1  UNL1       -0.0830
     10 C           3.1286    4.5251    4.7737 C.ar    1  UNL1        0.0741
     11 C           2.9233    6.0146    4.8170 C.3     1  UNL1        0.4188
     12 F           3.4254    6.6152    3.6988 F       1  UNL1       -0.1658
     13 F           1.5995    6.3429    4.8399 F       1  UNL1       -0.1658
     14 F           3.4799    6.6760    5.8625 F       1  UNL1       -0.1658
     15 C           2.5306    3.8321    3.6961 C.ar    1  UNL1       -0.0353
     16 N           2.9949   -0.4554   -0.9032 N.am    1  UNL1       -0.2843
     17 C           4.3866   -0.6685   -0.8760 C.ar    1  UNL1        0.0455
     18 C           5.0794   -0.5696   -2.1046 C.ar    1  UNL1       -0.0335
     19 C           6.4752   -0.7278   -2.1687 C.ar    1  UNL1        0.0174
     20 C           7.1897   -0.9402   -0.9901 C.ar    1  UNL1        0.2738
     21 N           8.6584   -0.9559   -0.9836 N.pl3   1  UNL1        0.0796
     22 O           9.2413   -0.8066   -2.0651 O.2     1  UNL1        0.0414
     23 O           9.2221   -1.0930    0.1113 O.co2   1  UNL1       -0.5760
     24 C           6.5064   -1.1118    0.2136 C.ar    1  UNL1        0.0290
     25 C           5.1003   -1.0370    0.2751 C.ar    1  UNL1        0.0823
     26 C           4.5090   -1.4301    1.6080 C.3     1  UNL1        0.4193
     27 F           4.9621   -2.6241    2.0667 F       1  UNL1       -0.1658
     28 F           4.8609   -0.5236    2.5664 F       1  UNL1       -0.1658
     29 F           3.1558   -1.5311    1.6394 F       1  UNL1       -0.1658
     30 H           3.3763    1.8991    0.5975 H       1  UNL1        0.0474
     31 H           3.4251    0.5672    1.7049 H       1  UNL1        0.0474
     32 H           3.4847    0.6499    4.4357 H       1  UNL1        0.0629
     33 H           4.5430    1.8404    6.3129 H       1  UNL1        0.0633
     34 H           1.9394    4.3939    2.9716 H       1  UNL1        0.0634
     35 H           2.4789   -0.8757   -1.6745 H       1  UNL1        0.1548
     36 H           4.5563   -0.3056   -3.0261 H       1  UNL1        0.0638
     37 H           6.9878   -0.6569   -3.1280 H       1  UNL1        0.0686
     38 H           7.0517   -1.3237    1.1346 H       1  UNL1        0.0691
@<TRIPOS>UNITY_ATOM_ATTR
21 1
charge 1
23 1
charge -1
@<TRIPOS>BOND
     1     1     2    2
     2     2     3    1
     3     3     4    1
     4     4     5    1
     5     5     6   ar
     6     6     7   ar
     7     7     8   ar
     8     8     9    1
     9     8    10   ar
    10    10    11    1
    11    11    12    1
    12    11    13    1
    13    11    14    1
    14    10    15   ar
    15     5    15   ar
    16     2    16   am
    17    16    17    1
    18    17    18   ar
    19    18    19   ar
    20    19    20   ar
    21    20    21    1
    22    21    22    2
    23    21    23    1
    24    20    24   ar
    25    24    25   ar
    26    17    25   ar
    27    25    26    1
    28    26    27    1
    29    26    28    1
    30    26    29    1
    31     3    30    1
    32     3    31    1
    33     6    32    1
    34     7    33    1
    35    15    34    1
    36    16    35    1
    37    18    36    1
    38    19    37    1
    39    24    38    1
