@<TRIPOS>MOLECULE
*****
 61 63 0 0 0
SMALL
GASTEIGER

@<TRIPOS>ATOM
      1 C           0.9710    0.0121   -0.0956 C.3     1  UNL1       -0.0652
      2 C           2.4903    0.0243   -0.0901 C.3     1  UNL1       -0.0528
      3 C           3.0358    1.4154    0.2334 C.3     1  UNL1       -0.0189
      4 C           4.5661    1.4163    0.2456 C.3     1  UNL1        0.0896
      5 O           5.0367    2.7039    0.6522 O.3     1  UNL1       -0.4920
      6 C           6.3885    2.9162    0.5648 C.ar    1  UNL1        0.1205
      7 C           6.9389    3.7806    1.5108 C.ar    1  UNL1       -0.0192
      8 C           8.2598    4.2444    1.3644 C.ar    1  UNL1       -0.0443
      9 C           9.0704    3.8105    0.2941 C.ar    1  UNL1        0.0596
     10 C          10.4618    4.3735    0.1210 C.2     1  UNL1        0.3446
     11 O          10.8078    5.4416    0.6285 O.2     1  UNL1       -0.2445
     12 O          11.3186    3.4569   -0.4873 O.3     1  UNL1       -0.4186
     13 C          12.7238    3.6076   -0.3014 C.ar    1  UNL1        0.1734
     14 C          13.4965    3.7933   -1.4673 C.ar    1  UNL1       -0.0150
     15 C          14.9098    3.8479   -1.4127 C.ar    1  UNL1       -0.0494
     16 C          15.5729    3.7876   -0.1836 C.ar    1  UNL1       -0.0018
     17 C          17.0697    4.0142   -0.1177 C.2     1  UNL1        0.0529
     18 N          17.6964    4.0178    1.0159 N.2     1  UNL1       -0.1885
     19 N          19.0641    4.2705    1.1186 N.am    1  UNL1       -0.2182
     20 C          19.6204    4.3156    2.4189 C.2     1  UNL1        0.1542
     21 S          18.6267    4.1458    3.7834 S.2     1  UNL1       -0.0169
     22 N          21.0153    4.5515    2.4663 N.am    1  UNL1       -0.2956
     23 C          21.8149    4.5111    3.6631 C.ar    1  UNL1        0.0340
     24 C          22.8201    5.4576    3.9188 C.ar    1  UNL1       -0.0404
     25 C          23.5949    5.3782    5.0963 C.ar    1  UNL1       -0.0586
     26 C          23.3480    4.3820    6.0427 C.ar    1  UNL1       -0.0433
     27 C          22.3739    3.4300    5.7788 C.ar    1  UNL1        0.0427
     28 CL         22.0876    2.1512    6.8948 Cl      1  UNL1       -0.0835
     29 C          21.6396    3.4808    4.5946 C.ar    1  UNL1       -0.0222
     30 C          14.7956    3.5688    0.9701 C.ar    1  UNL1       -0.0076
     31 C          13.3755    3.4509    0.9320 C.ar    1  UNL1        0.1628
     32 O          12.8447    3.1853    2.1684 O.3     1  UNL1       -0.4914
     33 C          11.4707    2.8798    2.3284 C.3     1  UNL1        0.0790
     34 C           8.5478    2.8499   -0.5735 C.ar    1  UNL1       -0.0443
     35 C           7.2077    2.4334   -0.4572 C.ar    1  UNL1       -0.0192
     36 H           0.5985   -0.9923   -0.3202 H       1  UNL1        0.0230
     37 H           0.5781    0.6986   -0.8521 H       1  UNL1        0.0230
     38 H           0.5761    0.3117    0.8802 H       1  UNL1        0.0230
     39 H           2.8571   -0.3054   -1.0696 H       1  UNL1        0.0264
     40 H           2.8534   -0.6978    0.6507 H       1  UNL1        0.0264
     41 H           2.6546    1.7573    1.2030 H       1  UNL1        0.0298
     42 H           2.6723    2.1409   -0.5065 H       1  UNL1        0.0298
     43 H           4.9060    1.1485   -0.7591 H       1  UNL1        0.0696
     44 H           4.9299    0.6773    0.9671 H       1  UNL1        0.0696
     45 H           6.3304    4.1152    2.3509 H       1  UNL1        0.0654
     46 H           8.6432    4.9554    2.0962 H       1  UNL1        0.0627
     47 H          13.0049    3.9133   -2.4311 H       1  UNL1        0.0656
     48 H          15.4738    3.9464   -2.3380 H       1  UNL1        0.0625
     49 H          17.5939    4.2061   -1.0704 H       1  UNL1        0.0851
     50 H          19.6006    4.4516    0.2779 H       1  UNL1        0.1762
     51 H          21.4743    4.9352    1.6494 H       1  UNL1        0.1539
     52 H          22.9812    6.3093    3.2621 H       1  UNL1        0.0636
     53 H          24.3904    6.0969    5.2886 H       1  UNL1        0.0619
     54 H          23.9135    4.3446    6.9710 H       1  UNL1        0.0632
     55 H          20.9272    2.6863    4.4000 H       1  UNL1        0.0651
     56 H          15.2963    3.4808    1.9348 H       1  UNL1        0.0662
     57 H          11.2791    2.5371    3.3472 H       1  UNL1        0.0660
     58 H          11.1323    2.1017    1.6354 H       1  UNL1        0.0660
     59 H          10.8754    3.7858    2.2798 H       1  UNL1        0.0660
     60 H           9.1527    2.4445   -1.3785 H       1  UNL1        0.0627
     61 H           6.8183    1.7703   -1.2211 H       1  UNL1        0.0654
@<TRIPOS>BOND
     1     1     2    1
     2     2     3    1
     3     3     4    1
     4     4     5    1
     5     5     6    1
     6     6     7   ar
     7     7     8   ar
     8     8     9   ar
     9     9    10    1
    10    10    11    2
    11    10    12    1
    12    12    13    1
    13    13    14   ar
    14    14    15   ar
    15    15    16   ar
    16    16    17    1
    17    17    18    2
    18    18    19    1
    19    19    20    1
    20    20    21    2
    21    20    22    1
    22    22    23    1
    23    23    24   ar
    24    24    25   ar
    25    25    26   ar
    26    26    27   ar
    27    27    28    1
    28    27    29   ar
    29    23    29   ar
    30    16    30   ar
    31    30    31   ar
    32    13    31   ar
    33    31    32    1
    34    32    33    1
    35     9    34   ar
    36    34    35   ar
    37     6    35   ar
    38     1    36    1
    39     1    37    1
    40     1    38    1
    41     2    39    1
    42     2    40    1
    43     3    41    1
    44     3    42    1
    45     4    43    1
    46     4    44    1
    47     7    45    1
    48     8    46    1
    49    14    47    1
    50    15    48    1
    51    17    49    1
    52    19    50    1
    53    22    51    1
    54    24    52    1
    55    25    53    1
    56    26    54    1
    57    29    55    1
    58    30    56    1
    59    33    57    1
    60    33    58    1
    61    33    59    1
    62    34    60    1
    63    35    61    1
