REMARK  9 active torsions:
REMARK  status: ('A' for Active; 'I' for Inactive)
REMARK    1  A    between atoms: C_4  and  N_5 
REMARK    2  A    between atoms: C_10  and  N_11 
REMARK       I    between atoms: N_11  and  C_12 
REMARK       I    between atoms: C_12  and  N_14 
REMARK    3  A    between atoms: N_14  and  C_15 
REMARK    4  A    between atoms: C_15  and  C_16 
REMARK    5  A    between atoms: C_18  and  C_15 
REMARK    6  A    between atoms: C_16  and  O_17 
REMARK    7  A    between atoms: C_18  and  C_20 
REMARK    8  A    between atoms: C_18  and  O_19 
REMARK    9  A    between atoms: C_23  and  N_24 
ROOT
ATOM      1  N   UNK d   0       1.113   4.755  -1.321  0.00  0.00    -0.308 N 
ATOM      2  C   UNK d   0       2.465   4.840  -1.318  0.00  0.00     0.321 C 
ATOM      3  O   UNK d   0       3.240   3.892  -1.321  0.00  0.00    -0.247 OA
ATOM      4  H   UNK d   0       0.569   5.607  -1.355  0.00  0.00     0.170 HD
ATOM      5  N   UNK d   1       3.141   6.004  -1.312  0.00  0.00    -0.333 N 
ATOM      6  H   UNK d   1       2.688   6.906  -1.357  0.00  0.00     0.164 HD
ENDROOT
BRANCH   5   7
ATOM      7  C   UNK d   1       4.646   5.855  -1.287  0.00  0.00     0.143 C 
BRANCH   7   8
ATOM      8  C   UNK d   1       5.268   5.183  -2.590  0.00  0.00     0.192 C 
BRANCH   8   9
ATOM      9  O   UNK d   1       5.056   3.808  -2.906  0.00  0.00    -0.399 OA
ATOM     10  H   UNK d   1       4.762   3.336  -2.110  0.00  0.00     0.209 HD
ENDBRANCH   8   9
ENDBRANCH   7   8
BRANCH   7  11
ATOM     11  C   UNK d   1       5.224   5.224   0.073  0.00  0.00     0.176 C 
BRANCH  11  12
ATOM     12  C   UNK d   1       6.742   5.191   0.093  0.00  0.00    -0.028 A 
ATOM     13  C   UNK d   1       7.460   6.392   0.089  0.00  0.00     0.012 A 
ATOM     14  C   UNK d   1       8.854   6.375   0.078  0.00  0.00     0.037 A 
ATOM     15  C   UNK d   1       9.537   5.150   0.073  0.00  0.00     0.102 A 
ATOM     16  C   UNK d   1       8.840   3.943   0.073  0.00  0.00     0.037 A 
ATOM     17  C   UNK d   1       7.451   3.970   0.079  0.00  0.00     0.012 A 
BRANCH  15  18
ATOM     18  N   UNK d   1      11.001   5.128   0.065  0.00  0.00    -0.116 N 
ATOM     19  O   UNK d   1      11.591   6.218   0.060  0.00  0.00    -0.532 OA
ATOM     20  O   UNK d   1      11.562   4.023   0.061  0.00  0.00    -0.532 OA
ENDBRANCH  15  18
ENDBRANCH  11  12
BRANCH  11  21
ATOM     21  O   UNK d   1       4.814   3.917   0.474  0.00  0.00    -0.389 OA
ATOM     22  H   UNK d   1       4.797   3.360  -0.320  0.00  0.00     0.210 HD
ENDBRANCH  11  21
ENDBRANCH   7  11
ENDBRANCH   5   7
BRANCH   1  23
ATOM     23  C   UNK d   0       0.365   3.507  -1.308  0.00  0.00     0.042 A 
ATOM     24  C   UNK d   0      -1.035   3.558  -1.340  0.00  0.00     0.032 A 
ATOM     25  C   UNK d   0      -1.826   2.372  -1.335  0.00  0.00     0.031 A 
ATOM     26  C   UNK d   0      -1.282   1.080  -1.286  0.00  0.00     0.030 A 
ATOM     27  C   UNK d   0       0.098   1.064  -1.255  0.00  0.00     0.038 A 
ATOM     28  C   UNK d   0       0.912   2.207  -1.267  0.00  0.00    -0.033 A 
ATOM     29  C   UNK d   0       2.353   1.822  -1.238  0.00  0.00     0.050 C 
BRANCH  26  30
ATOM     30  N   UNK d   0      -2.001  -0.101  -1.272  0.00  0.00    -0.390 N 
ATOM     31  C   UNK d   0      -1.367  -1.428  -1.210  0.00  0.00     0.149 C 
ATOM     32  C   UNK d   0      -3.455  -0.131  -1.300  0.00  0.00     0.149 C 
ENDBRANCH  26  30
ENDBRANCH   1  23
TORSDOF 9
