REMARK  6 active torsions:
REMARK  status: ('A' for Active; 'I' for Inactive)
REMARK    1  A    between atoms: C_6  and  C_7 
REMARK       I    between atoms: C_7  and  N_9 
REMARK    2  A    between atoms: N_9  and  N_10 
REMARK       I    between atoms: N_10  and  C_11 
REMARK       I    between atoms: C_11  and  N_13 
REMARK    3  A    between atoms: N_13  and  C_14 
REMARK    4  A    between atoms: C_14  and  C_15 
REMARK    5  A    between atoms: C_15  and  N_16 
REMARK    6  A    between atoms: N_19  and  C_20 
ROOT
ATOM      1  N   UNL d   1      -1.808   5.109   0.043  0.00  0.00    -0.249 N 
ATOM      2  C   UNL d   1      -1.034   6.264   0.060  0.00  0.00     0.334 C 
ATOM      3  O   UNL d   1       0.197   6.217   0.061  0.00  0.00    -0.246 OA
ATOM      4  N   UNL d   1      -1.737   7.456   0.076  0.00  0.00    -0.340 N 
ATOM      5  H   UNL d   1      -2.823   5.085   0.042  0.00  0.00     0.192 HD
ATOM      6  H   UNL d   1      -2.746   7.435   0.067  0.00  0.00     0.164 HD
ENDROOT
BRANCH   4   7
ATOM      7  C   UNL d   1      -1.038   8.764   0.093  0.00  0.00     0.143 C 
BRANCH   7   8
ATOM      8  C   UNL d   1      -1.963  10.006   0.109  0.00  0.00     0.136 C 
BRANCH   8   9
ATOM      9  N   UNL d   1      -1.356  11.327   0.087  0.00  0.00    -0.408 N 
ATOM     10  C   UNL d   1      -0.848  11.924  -1.146  0.00  0.00     0.136 C 
ATOM     11  C   UNL d   1      -1.286  13.421  -1.229  0.00  0.00     0.142 C 
ATOM     12  N   UNL d   1      -0.855  14.132  -0.016  0.00  0.00    -0.378 N 
ATOM     13  C   UNL d   1      -1.267  13.504   1.250  0.00  0.00     0.142 C 
ATOM     14  C   UNL d   1      -0.858  12.000   1.285  0.00  0.00     0.136 C 
BRANCH  12  15
ATOM     15  C   UNL d   1      -0.107  15.288  -0.065  0.00  0.00     0.030 A 
ATOM     16  C   UNL d   1       1.150  15.367   0.550  0.00  0.00     0.029 A 
ATOM     17  C   UNL d   1       1.930  16.529   0.484  0.00  0.00     0.003 A 
ATOM     18  C   UNL d   1       1.451  17.658  -0.174  0.00  0.00     0.007 A 
ATOM     19  C   UNL d   1       0.195  17.627  -0.782  0.00  0.00    -0.060 A 
ATOM     20  C   UNL d   1      -0.345  18.855  -1.456  0.00  0.00     0.048 C 
ATOM     21  C   UNL d   1      -0.562  16.436  -0.735  0.00  0.00     0.036 A 
ENDBRANCH  12  15
ENDBRANCH   8   9
ENDBRANCH   7   8
ENDBRANCH   4   7
BRANCH   1  22
ATOM     22  N   UNL d   1      -1.144   3.833   0.029  0.00  0.00    -0.262 N 
ATOM     23  C   UNL d   1      -1.866   2.639   0.013  0.00  0.00     0.270 C 
ATOM     24  O   UNL d   1      -3.101   2.629   0.009  0.00  0.00    -0.266 OA
ATOM     25  H   UNL d   1      -0.130   3.892   0.036  0.00  0.00     0.190 HD
BRANCH  23  26
ATOM     26  C   UNL d   1      -1.102   1.324   0.004  0.00  0.00     0.034 A 
ATOM     27  C   UNL d   1      -1.808   0.102  -0.005  0.00  0.00     0.017 A 
ATOM     28  C   UNL d   1      -1.135  -1.133  -0.001  0.00  0.00     0.002 A 
ATOM     29  C   UNL d   1       0.257  -1.171   0.004  0.00  0.00     0.007 A 
ATOM     30  C   UNL d   1       0.982   0.024   0.002  0.00  0.00    -0.061 A 
ATOM     31  C   UNL d   1       2.484   0.007  -0.013  0.00  0.00     0.048 C 
ATOM     32  C   UNL d   1       0.299   1.259   0.004  0.00  0.00     0.024 A 
ENDBRANCH  23  26
ENDBRANCH   1  22
TORSDOF 6
