@<TRIPOS>MOLECULE
*****
 41 43 0 0 0
SMALL
GASTEIGER

@<TRIPOS>ATOM
      1 C           2.2502    0.0677    0.0021 C.3     1  UNL1       -0.0029
      2 C           0.8048   -0.1995    0.0090 C.ar    1  UNL1        0.1484
      3 O           0.0199    0.9087    0.0097 O.2     1  UNL1       -0.3585
      4 N          -1.3024    0.5455    0.0253 N.ar    1  UNL1       -0.0771
      5 C          -1.3254   -0.7934    0.0163 C.ar    1  UNL1        0.1313
      6 C          -2.5964   -1.5123    0.0270 C.ar    1  UNL1        0.0579
      7 C          -2.8593   -2.3965    1.0807 C.ar    1  UNL1        0.1341
      8 F          -1.9798   -2.5169    2.0892 F       1  UNL1       -0.2048
      9 C          -3.9884   -3.2114    1.0891 C.ar    1  UNL1       -0.0257
     10 C          -4.9037   -3.1284    0.0447 C.ar    1  UNL1       -0.0576
     11 C          -4.6883   -2.2201   -0.9930 C.ar    1  UNL1       -0.0426
     12 C          -3.5419   -1.4128   -1.0054 C.ar    1  UNL1        0.0530
     13 CL         -3.3303   -0.3689   -2.3681 Cl      1  UNL1       -0.0828
     14 C           0.0182   -1.3336    0.0140 C.ar    1  UNL1        0.1223
     15 C           0.3938   -2.7372    0.0002 C.2     1  UNL1        0.3119
     16 O          -0.4510   -3.6270   -0.0711 O.2     1  UNL1       -0.2514
     17 N           1.7726   -3.1399    0.0451 N.am    1  UNL1       -0.1749
     18 C           2.1967   -4.4439   -0.0346 C.2     1  UNL1        0.3361
     19 N           1.2843   -5.4271   -0.1464 N.2     1  UNL1       -0.2947
     20 N           3.5177   -4.8093    0.0035 N.pl3   1  UNL1       -0.2273
     21 C           4.6098   -4.1599    0.7589 C.3     1  UNL1        0.0605
     22 C           5.8154   -4.2587   -0.1599 C.3     1  UNL1       -0.0212
     23 C           5.6496   -5.6226   -0.8256 C.3     1  UNL1       -0.0212
     24 C           4.1280   -5.8505   -0.8955 C.3     1  UNL1        0.0605
     25 H           2.4722    1.1386    0.0014 H       1  UNL1        0.0309
     26 H           2.7038   -0.3766   -0.8884 H       1  UNL1        0.0309
     27 H           2.7066   -0.3747    0.8919 H       1  UNL1        0.0309
     28 H          -4.1392   -3.9151    1.9027 H       1  UNL1        0.0646
     29 H          -5.7842   -3.7677    0.0361 H       1  UNL1        0.0619
     30 H          -5.4135   -2.1571   -1.8031 H       1  UNL1        0.0632
     31 H           2.4849   -2.4312    0.0401 H       1  UNL1        0.2542
     32 H           0.2898   -5.1899   -0.0968 H       1  UNL1        0.2542
     33 H           1.5380   -6.4019   -0.0759 H       1  UNL1        0.2542
     34 H           4.7816   -4.7894    1.6436 H       1  UNL1        0.0634
     35 H           4.3610   -3.1488    1.0780 H       1  UNL1        0.0634
     36 H           6.7665   -4.1644    0.3730 H       1  UNL1        0.0295
     37 H           5.7627   -3.4680   -0.9161 H       1  UNL1        0.0295
     38 H           6.1265   -6.4007   -0.2170 H       1  UNL1        0.0295
     39 H           6.1246   -5.6541   -1.8132 H       1  UNL1        0.0295
     40 H           3.8813   -6.8475   -0.5164 H       1  UNL1        0.0634
     41 H           3.7568   -5.7244   -1.9169 H       1  UNL1        0.0634
@<TRIPOS>UNITY_ATOM_ATTR
19 1
charge 1
@<TRIPOS>BOND
     1     1     2    1
     2     2     3   ar
     3     3     4   ar
     4     4     5   ar
     5     5     6    1
     6     6     7   ar
     7     7     8    1
     8     7     9   ar
     9     9    10   ar
    10    10    11   ar
    11    11    12   ar
    12     6    12   ar
    13    12    13    1
    14     5    14   ar
    15     2    14   ar
    16    14    15    1
    17    15    16    2
    18    15    17   am
    19    17    18    1
    20    18    19    2
    21    18    20    1
    22    20    21    1
    23    21    22    1
    24    22    23    1
    25    23    24    1
    26    20    24    1
    27     1    25    1
    28     1    26    1
    29     1    27    1
    30     9    28    1
    31    10    29    1
    32    11    30    1
    33    17    31    1
    34    19    32    1
    35    19    33    1
    36    21    34    1
    37    21    35    1
    38    22    36    1
    39    22    37    1
    40    23    38    1
    41    23    39    1
    42    24    40    1
    43    24    41    1
