REMARK  10 active torsions:
REMARK  status: ('A' for Active; 'I' for Inactive)
REMARK    1  A    between atoms: O_2  and  C_3 
REMARK    2  A    between atoms: C_6  and  C_7 
REMARK    3  A    between atoms: C_7  and  C_8 
REMARK    4  A    between atoms: C_7  and  N_27 
REMARK    5  A    between atoms: C_8  and  N_9 
REMARK       I    between atoms: N_9  and  C_10 
REMARK    6  A    between atoms: C_10  and  C_12 
REMARK    7  A    between atoms: C_15  and  S_16 
REMARK    8  A    between atoms: S_16  and  C_17 
REMARK    9  A    between atoms: C_17  and  C_18 
REMARK   10  A    between atoms: C_31  and  O_32 
ROOT
ATOM      1  N   UNL d   1       6.424   4.766   1.283  0.00  0.00    -0.354 N 
ATOM      2  C   UNL d   1       6.618   5.852   0.464  0.00  0.00     0.256 C 
ATOM      3  O   UNL d   1       6.258   6.990   0.777  0.00  0.00    -0.268 OA
ATOM      4  H   UNL d   1       6.866   3.900   1.009  0.00  0.00     0.162 HD
ENDROOT
BRANCH   1   5
ATOM      5  C   UNL d   1       5.651   4.827   2.525  0.00  0.00     0.161 C 
BRANCH   5   6
ATOM      6  C   UNL d   1       5.461   3.450   3.269  0.00  0.00     0.237 C 
BRANCH   6   7
ATOM      7  C   UNL d   1       4.638   2.505   2.398  0.00  0.00    -0.023 C 
ATOM      8  C   UNL d   1       5.115   2.008   1.192  0.00  0.00     0.012 C 
ATOM      9  C   UNL d   1       4.280   1.286   0.326  0.00  0.00     0.040 C 
ATOM     10  C   UNL d   1       3.024   0.813   0.726  0.00  0.00     0.101 C 
ATOM     11  C   UNL d   1       2.591   1.190   2.000  0.00  0.00     0.102 C 
ATOM     12  C   UNL d   1       3.351   2.096   2.748  0.00  0.00     0.049 C 
BRANCH  10  13
ATOM     13  O   UNL d   1       2.549  -0.162  -0.110  0.00  0.00    -0.353 OA
ATOM     14  C   UNL d   1       1.224  -0.127  -0.630  0.00  0.00     0.210 C 
ENDBRANCH  10  13
BRANCH  11  15
ATOM     15  O   UNL d   1       1.547   0.788   2.793  0.00  0.00    -0.353 OA
ATOM     16  C   UNL d   1       0.586   0.037   2.119  0.00  0.00     0.210 C 
ENDBRANCH  11  15
ENDBRANCH   6   7
BRANCH   6  17
ATOM     17  N   UNL d   1       4.833   3.651   4.670  0.00  0.00    -0.069 N 
ATOM     18  C   UNL d   1       4.743   2.354   5.467  0.00  0.00     0.270 C 
ATOM     19  C   UNL d   1       5.533   4.663   5.531  0.00  0.00     0.270 C 
ATOM     20  H   UNL d   1       3.882   4.012   4.506  0.00  0.00     0.279 HD
ENDBRANCH   6  17
ENDBRANCH   5   6
ENDBRANCH   1   5
BRANCH   2  21
ATOM     21  C   UNL d   1       7.341   5.617  -0.797  0.00  0.00     0.090 A 
ATOM     22  C   UNL d   1       8.358   6.449  -1.207  0.00  0.00     0.139 A 
ATOM     23  N   UNL d   1       9.050   6.292  -2.369  0.00  0.00    -0.234 NA
ATOM     24  C   UNL d   1       8.689   5.262  -3.147  0.00  0.00     0.189 A 
ATOM     25  N   UNL d   1       7.725   4.397  -2.832  0.00  0.00    -0.210 NA
ATOM     26  C   UNL d   1       7.059   4.618  -1.694  0.00  0.00     0.146 A 
ATOM     27 CL   UNL d   1       5.732   3.555  -1.576  0.00  0.00    -0.061 Cl
BRANCH  24  28
ATOM     28  S   UNL d   1       9.373   4.971  -4.734  0.00  0.00    -0.086 SA
BRANCH  28  29
ATOM     29  C   UNL d   1      10.681   6.224  -4.901  0.00  0.00     0.121 C 
BRANCH  29  30
ATOM     30  C   UNL d   1      11.445   6.057  -6.207  0.00  0.00    -0.049 A 
ATOM     31  C   UNL d   1      11.702   4.788  -6.760  0.00  0.00     0.008 A 
ATOM     32  C   UNL d   1      12.497   4.636  -7.893  0.00  0.00     0.001 A 
ATOM     33  C   UNL d   1      13.006   5.758  -8.534  0.00  0.00     0.000 A 
ATOM     34  C   UNL d   1      12.760   7.026  -8.011  0.00  0.00     0.001 A 
ATOM     35  C   UNL d   1      11.996   7.176  -6.848  0.00  0.00     0.008 A 
ENDBRANCH  29  30
ENDBRANCH  28  29
ENDBRANCH  24  28
ENDBRANCH   2  21
TORSDOF 10
