REMARK  9 active torsions:
REMARK  status: ('A' for Active; 'I' for Inactive)
REMARK    1  A    between atoms: C_2  and  C_3 
REMARK       I    between atoms: C_2  and  N_23 
REMARK    2  A    between atoms: C_3  and  O_4 
REMARK    3  A    between atoms: O_4  and  C_5 
REMARK    4  A    between atoms: C_5  and  C_7 
REMARK    5  A    between atoms: C_7  and  C_8 
REMARK    6  A    between atoms: C_8  and  N_9 
REMARK       I    between atoms: N_9  and  C_10 
REMARK       I    between atoms: C_10  and  N_12 
REMARK    7  A    between atoms: N_12  and  C_13 
REMARK    8  A    between atoms: N_23  and  C_24 
REMARK    9  A    between atoms: C_30  and  N_31 
ROOT
ATOM      1  C   UNL d   1       2.705  -3.543   1.348  0.00  0.00     0.260 C 
ATOM      2  O   UNL d   1       3.906  -3.693   1.372  0.00  0.00    -0.265 OA
ENDROOT
BRANCH   1   3
ATOM      3  O   UNL d   1       2.091  -2.368   0.975  0.00  0.00    -0.312 OA
BRANCH   3   4
ATOM      4  C   UNL d   1       3.007  -1.341   0.546  0.00  0.00     0.281 C 
BRANCH   4   5
ATOM      5  C   UNL d   1       2.333  -0.051   0.023  0.00  0.00     0.246 C 
ATOM      6  O   UNL d   1       1.106   0.075   0.000  0.00  0.00    -0.271 OA
ATOM      7  N   UNL d   1       3.107   1.033  -0.355  0.00  0.00    -0.323 N 
ATOM      8  H   UNL d   1       2.558   1.896  -0.390  0.00  0.00     0.169 HD
BRANCH   7   9
ATOM      9  C   UNL d   1       4.515   1.155  -0.354  0.00  0.00     0.069 A 
ATOM     10  C   UNL d   1       5.278   0.119  -0.909  0.00  0.00     0.056 A 
ATOM     11  C   UNL d   1       6.670   0.149  -0.889  0.00  0.00     0.036 A 
ATOM     12 CL   UNL d   1       7.547  -1.191  -1.512  0.00  0.00    -0.084 Cl
ATOM     13  C   UNL d   1       7.340   1.248  -0.371  0.00  0.00     0.026 A 
ATOM     14  C   UNL d   1       6.607   2.329   0.128  0.00  0.00     0.040 A 
ATOM     15  C   UNL d   1       5.196   2.295   0.128  0.00  0.00     0.129 A 
BRANCH  15  16
ATOM     16  N   UNL d   1       4.482   3.448   0.707  0.00  0.00    -0.113 N 
ATOM     17  O   UNL d   1       5.164   4.373   1.173  0.00  0.00    -0.532 OA
ATOM     18  O   UNL d   1       3.243   3.439   0.690  0.00  0.00    -0.532 OA
ENDBRANCH  15  16
ENDBRANCH   7   9
ENDBRANCH   4   5
ENDBRANCH   3   4
ENDBRANCH   1   3
BRANCH   1  19
ATOM     19  C   UNL d   1       1.667  -4.620   1.712  0.00  0.00     0.131 C 
BRANCH  19  20
ATOM     20  C   UNL d   1       2.339  -5.938   2.158  0.00  0.00     0.134 C 
BRANCH  20  21
ATOM     21  N   UNL d   1       1.456  -7.115   2.455  0.00  0.00    -0.343 N 
ATOM     22  C   UNL d   1       2.064  -8.336   2.770  0.00  0.00     0.316 C 
ATOM     23  O   UNL d   1       3.285  -8.368   2.868  0.00  0.00    -0.247 OA
ATOM     24  N   UNL d   1       1.230  -9.459   2.948  0.00  0.00    -0.334 N 
ATOM     25  H   UNL d   1       0.277  -9.198   3.162  0.00  0.00     0.165 HD
ATOM     26  H   UNL d   1       0.457  -6.979   2.499  0.00  0.00     0.164 HD
BRANCH  24  27
ATOM     27  C   UNL d   1       1.680 -10.806   3.639  0.00  0.00     0.035 C 
ATOM     28  C   UNL d   1       2.107 -12.162   2.787  0.00  0.00     0.035 C 
ATOM     29  C   UNL d   1       2.546 -13.301   3.795  0.00  0.00    -0.012 C 
ATOM     30  C   UNL d   1       3.762 -12.739   4.546  0.00  0.00     0.009 C 
ATOM     31  C   UNL d   1       1.313 -13.623   4.656  0.00  0.00     0.009 C 
ATOM     32  C   UNL d   1       3.328 -11.589   5.446  0.00  0.00    -0.012 C 
ATOM     33  C   UNL d   1       2.183 -12.024   6.355  0.00  0.00     0.009 C 
ATOM     34  C   UNL d   1       2.872 -10.451   4.555  0.00  0.00     0.035 C 
ATOM     35  C   UNL d   1       0.955 -12.420   5.522  0.00  0.00    -0.012 C 
ATOM     36  C   UNL d   1       0.520 -11.261   4.596  0.00  0.00     0.035 C 
ENDBRANCH  24  27
ENDBRANCH  20  21
ENDBRANCH  19  20
ENDBRANCH   1  19
TORSDOF 9
