REMARK  8 active torsions:
REMARK  status: ('A' for Active; 'I' for Inactive)
REMARK    1  A    between atoms: C_2  and  C_3 
REMARK    2  A    between atoms: C_3  and  C_4 
REMARK    3  A    between atoms: C_4  and  C_5 
REMARK    4  A    between atoms: C_5  and  C_6 
REMARK       I    between atoms: C_6  and  N_8 
REMARK    5  A    between atoms: N_8  and  N_9 
REMARK       I    between atoms: N_9  and  C_10 
REMARK    6  A    between atoms: C_10  and  C_12 
REMARK    7  A    between atoms: C_15  and  N_16 
REMARK       I    between atoms: N_16  and  C_17 
REMARK    8  A    between atoms: C_17  and  C_19 
ROOT
ATOM      1  N   UNL d   1       8.733   3.150   2.845  0.00  0.00    -0.263 N 
ATOM      2  C   UNL d   1       9.386   3.990   3.736  0.00  0.00     0.270 C 
ATOM      3  O   UNL d   1       8.786   4.734   4.518  0.00  0.00    -0.266 OA
ATOM      4  H   UNL d   1       9.208   2.477   2.244  0.00  0.00     0.190 HD
ENDROOT
BRANCH   2   5
ATOM      5  C   UNL d   1      10.884   4.003   3.704  0.00  0.00     0.033 A 
ATOM      6  C   UNL d   1      11.655   4.165   4.870  0.00  0.00     0.019 A 
ATOM      7  C   UNL d   1      13.067   4.320   4.806  0.00  0.00     0.030 A 
ATOM      8  C   UNL d   1      13.733   4.263   3.574  0.00  0.00     0.034 A 
ATOM      9  C   UNL d   1      12.932   4.134   2.431  0.00  0.00     0.030 A 
ATOM     10  C   UNL d   1      11.541   3.996   2.483  0.00  0.00     0.019 A 
BRANCH   8  11
ATOM     11  N   UNL d   1      15.164   4.306   3.497  0.00  0.00    -0.327 N 
ATOM     12  C   UNL d   1      15.882   4.155   2.312  0.00  0.00     0.221 C 
ATOM     13  O   UNL d   1      15.374   4.014   1.200  0.00  0.00    -0.273 OA
ATOM     14  H   UNL d   1      15.678   4.369   4.370  0.00  0.00     0.169 HD
BRANCH  12  15
ATOM     15  C   UNL d   1      17.400   4.150   2.410  0.00  0.00     0.098 C 
ATOM     16  C   UNL d   1      17.979   4.005   0.994  0.00  0.00     0.014 C 
ENDBRANCH  12  15
ENDBRANCH   8  11
ENDBRANCH   2   5
BRANCH   1  17
ATOM     17  N   UNL d   1       7.312   3.108   2.815  0.00  0.00    -0.267 N 
ATOM     18  C   UNL d   1       6.694   2.203   1.966  0.00  0.00     0.236 C 
ATOM     19  O   UNL d   1       7.347   1.440   1.253  0.00  0.00    -0.272 OA
ATOM     20  H   UNL d   1       6.821   3.763   3.421  0.00  0.00     0.190 HD
BRANCH  18  21
ATOM     21  C   UNL d   1       5.163   2.218   1.980  0.00  0.00     0.104 C 
BRANCH  21  22
ATOM     22  C   UNL d   1       4.580   1.177   1.009  0.00  0.00     0.009 C 
BRANCH  22  23
ATOM     23  C   UNL d   1       3.050   1.160   0.994  0.00  0.00     0.000 C 
BRANCH  23  24
ATOM     24  C   UNL d   1       2.517   0.110   0.014  0.00  0.00    -0.005 C 
ATOM     25  C   UNL d   1       0.996   0.096   0.001  0.00  0.00     0.005 C 
ENDBRANCH  23  24
ENDBRANCH  22  23
ENDBRANCH  21  22
ENDBRANCH  18  21
ENDBRANCH   1  17
TORSDOF 8
