@<TRIPOS>MOLECULE
*****
 33 34 0 0 0
SMALL
GASTEIGER

@<TRIPOS>ATOM
      1 C           2.4520   -0.3524    0.4995 C.3     1  UNL1       -0.0380
      2 C           0.9878   -0.1135    0.2919 C.ar    1  UNL1       -0.0292
      3 C           0.2255   -1.2759    0.1496 C.ar    1  UNL1       -0.0564
      4 C          -1.1545   -1.2307    0.0368 C.ar    1  UNL1       -0.0493
      5 C          -1.8236   -0.0093    0.0491 C.ar    1  UNL1        0.0383
      6 C          -3.3216    0.0403   -0.0347 C.2     1  UNL1        0.2416
      7 N          -4.0053   -1.1574   -0.0679 N.am    1  UNL1       -0.3253
      8 O          -3.9287    1.0908   -0.0615 O.2     1  UNL1       -0.2704
      9 C          -1.0660    1.1827    0.1062 C.ar    1  UNL1       -0.0281
     10 C           0.3521    1.1413    0.1694 C.ar    1  UNL1        0.0373
     11 N           1.0562    2.3717    0.0178 N.am    1  UNL1       -0.2812
     12 C           2.4089    2.5813   -0.2087 C.2     1  UNL1        0.2497
     13 O           3.0218    3.3720    0.5105 O.2     1  UNL1       -0.2698
     14 C           3.1586    1.8514   -1.3068 C.ar    1  UNL1        0.0567
     15 C           4.5637    1.7214   -1.1191 C.ar    1  UNL1       -0.0298
     16 C           5.3035    0.8015   -1.8752 C.ar    1  UNL1        0.0418
     17 CL          7.0071    0.6633   -1.6750 Cl      1  UNL1       -0.0835
     18 C           4.6621   -0.0640   -2.7542 C.ar    1  UNL1       -0.0420
     19 C           3.2908    0.0600   -2.9556 C.ar    1  UNL1       -0.0413
     20 C           2.5539    1.0797   -2.3277 C.ar    1  UNL1        0.0532
     21 CL          0.9013    1.1557   -2.8277 Cl      1  UNL1       -0.0828
     22 H           2.7067   -1.4008    0.6639 H       1  UNL1        0.0278
     23 H           2.8807    0.2742    1.2828 H       1  UNL1        0.0278
     24 H           2.9717   -0.1957   -0.4203 H       1  UNL1        0.0278
     25 H           0.7222   -2.2421    0.1080 H       1  UNL1        0.0621
     26 H          -1.6638   -2.1800   -0.0559 H       1  UNL1        0.0625
     27 H          -3.5942   -2.0747   -0.0391 H       1  UNL1        0.1453
     28 H          -5.0159   -1.1151   -0.0927 H       1  UNL1        0.1453
     29 H          -1.5938    2.1349    0.0333 H       1  UNL1        0.0644
     30 H           0.5405    3.2259    0.2096 H       1  UNL1        0.1551
     31 H           5.0710    2.2605   -0.3171 H       1  UNL1        0.0640
     32 H           5.2099   -0.8439   -3.2779 H       1  UNL1        0.0633
     33 H           2.7754   -0.6896   -3.5545 H       1  UNL1        0.0633
@<TRIPOS>BOND
     1     1     2    1
     2     2     3   ar
     3     3     4   ar
     4     4     5   ar
     5     5     6    1
     6     6     7   am
     7     6     8    2
     8     5     9   ar
     9     9    10   ar
    10     2    10   ar
    11    10    11    1
    12    11    12   am
    13    12    13    2
    14    12    14    1
    15    14    15   ar
    16    15    16   ar
    17    16    17    1
    18    16    18   ar
    19    18    19   ar
    20    19    20   ar
    21    14    20   ar
    22    20    21    1
    23     1    22    1
    24     1    23    1
    25     1    24    1
    26     3    25    1
    27     4    26    1
    28     7    27    1
    29     7    28    1
    30     9    29    1
    31    11    30    1
    32    15    31    1
    33    18    32    1
    34    19    33    1
