@<TRIPOS>MOLECULE
*****
 65 69 0 0 0
SMALL
GASTEIGER

@<TRIPOS>ATOM
      1 C           2.4934   -0.0092   -0.0130 C.3     1  UNL1       -0.0397
      2 C           0.9944   -0.0152    0.0017 C.ar    1  UNL1       -0.0501
      3 C           0.2706   -1.2091    0.0037 C.ar    1  UNL1       -0.0588
      4 C          -1.1238   -1.1813   -0.0015 C.ar    1  UNL1       -0.0611
      5 C          -1.8047    0.0418   -0.0090 C.ar    1  UNL1       -0.0553
      6 C          -1.0968    1.2563   -0.0035 C.ar    1  UNL1       -0.0102
      7 C          -1.8391    2.5843    0.0101 C.3     1  UNL1        0.1146
      8 O          -0.9191    3.6944   -0.0202 O.3     1  UNL1       -0.4874
      9 C          -1.4547    4.9518    0.0335 C.ar    1  UNL1        0.1210
     10 C          -2.4774    5.3364    0.8943 C.ar    1  UNL1       -0.0193
     11 C          -2.9684    6.6643    0.8913 C.ar    1  UNL1       -0.0496
     12 C          -2.4510    7.6419    0.0309 C.ar    1  UNL1       -0.0052
     13 C          -3.0896    9.0434   -0.0414 C.2     1  UNL1        0.0528
     14 N          -4.2493    9.3441    0.5031 N.2     1  UNL1       -0.1874
     15 N          -4.7976   10.6814    0.4487 N.am    1  UNL1       -0.2016
     16 C          -6.0261   11.0431    1.1837 C.2     1  UNL1        0.2838
     17 O          -6.8210   10.2016    1.6550 O.2     1  UNL1       -0.2667
     18 C          -6.3699   12.4502    1.4281 C.ar    1  UNL1        0.1608
     19 C          -6.5889   13.2358    2.5833 C.ar    1  UNL1        0.1399
     20 C          -6.4618   13.0100    4.1028 C.3     1  UNL1        0.0155
     21 N          -5.4524   11.9759    4.6516 N.4     1  UNL1        0.2397
     22 C          -4.0595   12.4002    4.2065 C.3     1  UNL1       -0.0313
     23 C          -3.8732   11.6154    2.9454 C.3     1  UNL1       -0.0077
     24 C          -4.4809   10.2535    3.3011 C.3     1  UNL1       -0.0077
     25 C          -5.5819   10.5031    4.3119 C.3     1  UNL1       -0.0313
     26 N          -6.7467   14.5418    2.1575 N.ar    1  UNL1       -0.1279
     27 N          -6.5826   14.5916    0.8385 N.ar    1  UNL1       -0.0581
     28 N          -6.4874   13.3270    0.3644 N.ar    1  UNL1       -0.1830
     29 C          -6.4156   12.9006   -0.9796 C.ar    1  UNL1        0.2407
     30 N          -5.6184   13.5163   -1.8506 N.ar    1  UNL1       -0.0272
     31 O          -5.6524   12.6661   -2.9696 O.2     1  UNL1       -0.2388
     32 N          -6.4237   11.5308   -2.7268 N.ar    1  UNL1       -0.0319
     33 C          -6.9213   11.6896   -1.5053 C.ar    1  UNL1        0.2064
     34 N          -7.7470   10.8141   -0.8902 N.pl3   1  UNL1       -0.3375
     35 C          -1.3557    7.2632   -0.7767 C.ar    1  UNL1       -0.0496
     36 C          -0.8652    5.9295   -0.7711 C.ar    1  UNL1       -0.0193
     37 C           0.3046    1.2045    0.0027 C.ar    1  UNL1       -0.0524
     38 H           2.9003   -1.0247    0.0003 H       1  UNL1        0.0278
     39 H           2.8759    0.5215    0.8649 H       1  UNL1        0.0278
     40 H           2.8541    0.4891   -0.9189 H       1  UNL1        0.0278
     41 H           0.7876   -2.1663    0.0051 H       1  UNL1        0.0620
     42 H          -1.6774   -2.1180   -0.0027 H       1  UNL1        0.0618
     43 H          -2.8927    0.0314   -0.0192 H       1  UNL1        0.0621
     44 H          -2.4503    2.6058    0.9187 H       1  UNL1        0.0748
     45 H          -2.4819    2.6328   -0.8774 H       1  UNL1        0.0748
     46 H          -2.9043    4.6205    1.5906 H       1  UNL1        0.0654
     47 H          -3.7751    6.9137    1.5724 H       1  UNL1        0.0625
     48 H          -2.4986    9.7840   -0.6132 H       1  UNL1        0.0851
     49 H          -4.1612   11.3949    0.0909 H       1  UNL1        0.1776
     50 H          -7.4082   12.9208    4.6564 H       1  UNL1        0.0884
     51 H          -6.0524   13.9496    4.5281 H       1  UNL1        0.0884
     52 H          -5.5361   12.0061    5.6766 H       1  UNL1        0.2037
     53 H          -3.3317   12.1273    4.9645 H       1  UNL1        0.0814
     54 H          -4.0614   13.4787    4.0188 H       1  UNL1        0.0814
     55 H          -2.8759   11.5633    2.5138 H       1  UNL1        0.0319
     56 H          -4.3541   12.2384    2.2045 H       1  UNL1        0.0319
     57 H          -3.6717    9.6162    3.6531 H       1  UNL1        0.0319
     58 H          -4.9141    9.5972    2.5572 H       1  UNL1        0.0319
     59 H          -5.3328    9.9012    5.1923 H       1  UNL1        0.0814
     60 H          -6.6157   10.2633    4.0308 H       1  UNL1        0.0814
     61 H          -7.9057    9.9010   -1.3073 H       1  UNL1        0.1439
     62 H          -7.9783   10.7870    0.1035 H       1  UNL1        0.1439
     63 H          -0.8701    7.9650   -1.4518 H       1  UNL1        0.0625
     64 H          -0.0351    5.6411   -1.4203 H       1  UNL1        0.0654
     65 H           0.8804    2.1277    0.0053 H       1  UNL1        0.0624
@<TRIPOS>UNITY_ATOM_ATTR
21 1
charge 1
@<TRIPOS>BOND
     1     1     2    1
     2     2     3   ar
     3     3     4   ar
     4     4     5   ar
     5     5     6   ar
     6     6     7    1
     7     7     8    1
     8     8     9    1
     9     9    10   ar
    10    10    11   ar
    11    11    12   ar
    12    12    13    1
    13    13    14    2
    14    14    15    1
    15    15    16   am
    16    16    17    2
    17    16    18    1
    18    18    19   ar
    19    19    20    1
    20    20    21    1
    21    21    22    1
    22    22    23    1
    23    23    24    1
    24    24    25    1
    25    21    25    1
    26    19    26   ar
    27    26    27   ar
    28    27    28   ar
    29    18    28   ar
    30    28    29    1
    31    29    30   ar
    32    30    31   ar
    33    31    32   ar
    34    32    33   ar
    35    29    33   ar
    36    33    34    1
    37    12    35   ar
    38    35    36   ar
    39     9    36   ar
    40     6    37   ar
    41     2    37   ar
    42     1    38    1
    43     1    39    1
    44     1    40    1
    45     3    41    1
    46     4    42    1
    47     5    43    1
    48     7    44    1
    49     7    45    1
    50    10    46    1
    51    11    47    1
    52    13    48    1
    53    15    49    1
    54    20    50    1
    55    20    51    1
    56    21    52    1
    57    22    53    1
    58    22    54    1
    59    23    55    1
    60    23    56    1
    61    24    57    1
    62    24    58    1
    63    25    59    1
    64    25    60    1
    65    34    61    1
    66    34    62    1
    67    35    63    1
    68    36    64    1
    69    37    65    1
