REMARK  6 active torsions:
REMARK  status: ('A' for Active; 'I' for Inactive)
REMARK       I    between atoms: C_2  and  N_3 
REMARK    1  A    between atoms: C_2  and  C_18 
REMARK    2  A    between atoms: N_3  and  C_4 
REMARK    3  A    between atoms: C_4  and  C_5 
REMARK    4  A    between atoms: C_9  and  N_10 
REMARK       I    between atoms: N_10  and  C_11 
REMARK    5  A    between atoms: C_11  and  C_13 
REMARK    6  A    between atoms: C_24  and  N_25 
ROOT
ATOM      1  O   UNL d   1       1.179  -0.100  -0.201  0.00  0.00    -0.266 OA
ATOM      2  C   UNL d   1       2.387  -0.000  -0.139  0.00  0.00     0.268 C 
ATOM      3  N   UNL d   1       3.021   0.706   0.919  0.00  0.00    -0.351 N 
ATOM      4  H   UNL d   1       4.016   0.818   0.920  0.00  0.00     0.163 HD
ENDROOT
BRANCH   3   5
ATOM      5  C   UNL d   1       2.358   1.486   1.957  0.00  0.00     0.161 C 
BRANCH   5   6
ATOM      6  C   UNL d   1       3.318   2.221   2.899  0.00  0.00    -0.038 A 
ATOM      7  C   UNL d   1       4.178   1.594   3.799  0.00  0.00     0.009 A 
ATOM      8  C   UNL d   1       4.861   2.351   4.771  0.00  0.00     0.003 A 
ATOM      9  C   UNL d   1       4.763   3.756   4.808  0.00  0.00     0.029 A 
ATOM     10  C   UNL d   1       3.947   4.416   3.887  0.00  0.00     0.035 A 
ATOM     11  C   UNL d   1       3.249   3.621   2.957  0.00  0.00     0.038 A 
BRANCH  10  12
ATOM     12  N   UNL d   1       3.788   5.838   3.943  0.00  0.00    -0.327 N 
ATOM     13  C   UNL d   1       2.941   6.553   3.097  0.00  0.00     0.226 C 
ATOM     14  O   UNL d   1       2.319   6.051   2.148  0.00  0.00    -0.273 OA
ATOM     15  H   UNL d   1       4.265   6.333   4.688  0.00  0.00     0.169 HD
BRANCH  13  16
ATOM     16  C   UNL d   1       2.657   8.018   3.324  0.00  0.00     0.078 C 
ATOM     17  C   UNL d   1       3.546   9.129   3.906  0.00  0.00     0.014 C 
ATOM     18  C   UNL d   1       2.880  10.088   2.872  0.00  0.00     0.002 C 
ATOM     19  C   UNL d   1       2.694   8.852   1.992  0.00  0.00     0.014 C 
ENDBRANCH  13  16
ENDBRANCH  10  12
ENDBRANCH   5   6
ENDBRANCH   3   5
BRANCH   2  20
ATOM     20  C   UNL d   1       3.352  -0.633  -1.104  0.00  0.00     0.102 C 
ATOM     21  C   UNL d   1       4.693  -0.713  -0.842  0.00  0.00     0.049 C 
ATOM     22  C   UNL d   1       5.251  -1.710  -1.636  0.00  0.00    -0.005 C 
ATOM     23  C   UNL d   1       6.426  -2.429  -1.421  0.00  0.00     0.014 C 
ATOM     24  C   UNL d   1       4.509  -1.814  -2.814  0.00  0.00     0.076 C 
ATOM     25  C   UNL d   1       7.040  -3.106  -2.443  0.00  0.00     0.003 C 
ATOM     26  C   UNL d   1       6.472  -3.049  -3.700  0.00  0.00     0.038 C 
ATOM     27  C   UNL d   1       5.213  -2.397  -3.966  0.00  0.00     0.130 C 
ATOM     28  N   UNL d   1       3.221  -1.355  -2.349  0.00  0.00    -0.349 N 
ATOM     29  H   UNL d   1       2.323  -1.705  -2.676  0.00  0.00     0.166 HD
BRANCH  27  30
ATOM     30  N   UNL d   1       5.000  -2.221  -5.437  0.00  0.00    -0.113 N 
ATOM     31  O   UNL d   1       5.767  -2.829  -6.213  0.00  0.00    -0.532 OA
ATOM     32  O   UNL d   1       4.142  -1.419  -5.815  0.00  0.00    -0.532 OA
ENDBRANCH  27  30
ENDBRANCH   2  20
TORSDOF 6
