@<TRIPOS>MOLECULE
*****
 45 46 0 0 0
SMALL
GASTEIGER

@<TRIPOS>ATOM
      1 C           1.5557    1.7451    0.0107 C.3     1  UNL1       -0.0370
      2 C           0.3613    0.8386   -0.0010 C.ar    1  UNL1       -0.0152
      3 C          -0.9358    1.3571   -0.0043 C.ar    1  UNL1       -0.0554
      4 C          -2.0485    0.5038   -0.0028 C.ar    1  UNL1       -0.0492
      5 C          -1.8891   -0.8887    0.0150 C.ar    1  UNL1        0.0394
      6 C          -3.0524   -1.8426    0.0603 C.2     1  UNL1        0.2442
      7 O          -2.8428   -3.0553    0.0841 O.2     1  UNL1       -0.2702
      8 N          -4.3385   -1.3221    0.0839 N.am    1  UNL1       -0.3099
      9 C          -5.5148   -2.1886    0.1402 C.3     1  UNL1        0.0275
     10 C          -6.8516   -1.4239    0.1560 C.3     1  UNL1        0.0287
     11 N          -8.0368   -2.2795    0.2082 N.am    1  UNL1       -0.2963
     12 C          -9.3066   -1.7318    0.2236 C.2     1  UNL1        0.3227
     13 O          -9.4890   -0.5178    0.1970 O.2     1  UNL1       -0.2507
     14 N         -10.3115   -2.6730    0.2669 N.am    1  UNL1       -0.1781
     15 O         -11.6366   -2.1612    0.2685 O.3     1  UNL1       -0.2740
     16 C         -12.6116   -3.2127    0.3096 C.3     1  UNL1        0.0983
     17 C         -14.0289   -2.6717    0.3584 C.ar    1  UNL1       -0.0197
     18 C         -14.2978   -1.2957    0.3506 C.ar    1  UNL1       -0.0563
     19 C         -15.5965   -0.8197    0.5458 C.ar    1  UNL1       -0.0614
     20 C         -16.6597   -1.7115    0.6592 C.ar    1  UNL1       -0.0617
     21 C         -16.4196   -3.0828    0.6169 C.ar    1  UNL1       -0.0614
     22 C         -15.1123   -3.5609    0.4753 C.ar    1  UNL1       -0.0563
     23 C          -0.5833   -1.4078    0.0047 C.ar    1  UNL1       -0.0141
     24 C           0.5187   -0.5483   -0.0033 C.ar    1  UNL1        0.1270
     25 F           1.7542   -1.0712   -0.0059 F       1  UNL1       -0.2052
     26 H           1.2556    2.7990    0.0044 H       1  UNL1        0.0278
     27 H           2.1775    1.5722   -0.8733 H       1  UNL1        0.0278
     28 H           2.1537    1.5767    0.9122 H       1  UNL1        0.0278
     29 H          -1.0955    2.4336   -0.0032 H       1  UNL1        0.0621
     30 H          -3.0261    0.9693   -0.0120 H       1  UNL1        0.0625
     31 H          -4.4925   -0.3258    0.0737 H       1  UNL1        0.1491
     32 H          -5.4269   -2.8120    1.0374 H       1  UNL1        0.0477
     33 H          -5.4745   -2.8590   -0.7259 H       1  UNL1        0.0477
     34 H          -6.9317   -0.7930   -0.7380 H       1  UNL1        0.0478
     35 H          -6.8866   -0.7496    1.0208 H       1  UNL1        0.0478
     36 H          -7.9264   -3.2814    0.2288 H       1  UNL1        0.1503
     37 H         -10.1684   -3.6702    0.2943 H       1  UNL1        0.1841
     38 H         -12.4486   -3.8060    1.2179 H       1  UNL1        0.0634
     39 H         -12.4971   -3.8501   -0.5742 H       1  UNL1        0.0634
     40 H         -13.4917   -0.5772    0.2120 H       1  UNL1        0.0621
     41 H         -15.7711    0.2502    0.6251 H       1  UNL1        0.0618
     42 H         -17.6722   -1.3353    0.7799 H       1  UNL1        0.0618
     43 H         -17.2490   -3.7788    0.7175 H       1  UNL1        0.0618
     44 H         -14.9466   -4.6359    0.4706 H       1  UNL1        0.0621
     45 H          -0.4041   -2.4805    0.0079 H       1  UNL1        0.0654
@<TRIPOS>BOND
     1     1     2    1
     2     2     3   ar
     3     3     4   ar
     4     4     5   ar
     5     5     6    1
     6     6     7    2
     7     6     8   am
     8     8     9    1
     9     9    10    1
    10    10    11    1
    11    11    12   am
    12    12    13    2
    13    12    14   am
    14    14    15    1
    15    15    16    1
    16    16    17    1
    17    17    18   ar
    18    18    19   ar
    19    19    20   ar
    20    20    21   ar
    21    21    22   ar
    22    17    22   ar
    23     5    23   ar
    24    23    24   ar
    25     2    24   ar
    26    24    25    1
    27     1    26    1
    28     1    27    1
    29     1    28    1
    30     3    29    1
    31     4    30    1
    32     8    31    1
    33     9    32    1
    34     9    33    1
    35    10    34    1
    36    10    35    1
    37    11    36    1
    38    14    37    1
    39    16    38    1
    40    16    39    1
    41    18    40    1
    42    19    41    1
    43    20    42    1
    44    21    43    1
    45    22    44    1
    46    23    45    1
