REMARK  10 active torsions:
REMARK  status: ('A' for Active; 'I' for Inactive)
REMARK    1  A    between atoms: C_2  and  C_3 
REMARK    2  A    between atoms: C_6  and  O_7 
REMARK    3  A    between atoms: O_7  and  C_8 
REMARK    4  A    between atoms: C_8  and  C_9 
REMARK       I    between atoms: C_9  and  N_11 
REMARK    5  A    between atoms: N_11  and  N_12 
REMARK    6  A    between atoms: N_12  and  C_13 
REMARK    7  A    between atoms: C_13  and  N_15 
REMARK       I    between atoms: N_15  and  C_16 
REMARK    8  A    between atoms: C_16  and  C_18 
REMARK    9  A    between atoms: C_22  and  C_23 
REMARK   10  A    between atoms: C_23  and  O_25 
ROOT
ATOM      1  N   UNL d   1       4.361  10.306   0.737  0.00  0.00    -0.273 N 
ATOM      2  H   UNL d   1       5.032  10.274   1.504  0.00  0.00     0.189 HD
ENDROOT
BRANCH   1   3
ATOM      3  N   UNL d   1       3.825   8.999   0.351  0.00  0.00    -0.266 N 
ATOM      4  C   UNL d   1       4.229   7.834   0.999  0.00  0.00     0.260 C 
ATOM      5  O   UNL d   1       5.059   7.875   1.908  0.00  0.00    -0.269 OA
ATOM      6  H   UNL d   1       3.144   9.017  -0.409  0.00  0.00     0.190 HD
BRANCH   4   7
ATOM      7  C   UNL d   1       3.570   6.509   0.498  0.00  0.00     0.280 C 
BRANCH   7   8
ATOM      8  O   UNL d   1       4.008   5.379   1.272  0.00  0.00    -0.342 OA
BRANCH   8   9
ATOM      9  C   UNL d   1       3.612   4.123   0.885  0.00  0.00     0.069 A 
ATOM     10  C   UNL d   1       4.176   3.043   1.582  0.00  0.00     0.037 A 
ATOM     11  C   UNL d   1       3.892   1.714   1.222  0.00  0.00     0.010 A 
ATOM     12  C   UNL d   1       2.956   1.449   0.219  0.00  0.00    -0.058 A 
ATOM     13  C   UNL d   1       2.409   2.532  -0.480  0.00  0.00     0.010 A 
ATOM     14  C   UNL d   1       2.716   3.852  -0.141  0.00  0.00     0.037 A 
BRANCH  12  15
ATOM     15  C   UNL d   1       2.474   0.047  -0.075  0.00  0.00     0.034 C 
ATOM     16  C   UNL d   1       0.945  -0.017  -0.061  0.00  0.00     0.010 C 
ENDBRANCH  12  15
ENDBRANCH   8   9
ENDBRANCH   7   8
ENDBRANCH   4   7
ENDBRANCH   1   3
BRANCH   1  17
ATOM     17  C   UNL d   1       3.911  11.460   0.067  0.00  0.00     0.193 C 
ATOM     18  S   UNL d   1       2.783  11.302  -1.179  0.00  0.00    -0.039 SA
BRANCH  17  19
ATOM     19  N   UNL d   1       4.470  12.685   0.509  0.00  0.00    -0.298 N 
ATOM     20  C   UNL d   1       4.150  13.978   0.022  0.00  0.00     0.257 C 
ATOM     21  O   UNL d   1       3.324  14.216  -0.855  0.00  0.00    -0.267 OA
ATOM     22  H   UNL d   1       5.136  12.645   1.268  0.00  0.00     0.171 HD
BRANCH  20  23
ATOM     23  C   UNL d   1       4.852  15.195   0.540  0.00  0.00     0.033 A 
ATOM     24  C   UNL d   1       4.133  16.412   0.597  0.00  0.00     0.017 A 
ATOM     25  C   UNL d   1       4.792  17.632   0.791  0.00  0.00     0.002 A 
ATOM     26  C   UNL d   1       6.171  17.643   0.989  0.00  0.00     0.017 A 
ATOM     27  C   UNL d   1       6.903  16.444   0.938  0.00  0.00     0.040 A 
ATOM     28  C   UNL d   1       6.238  15.220   0.711  0.00  0.00     0.034 A 
BRANCH  27  29
ATOM     29  C   UNL d   1       8.386  16.528   1.061  0.00  0.00     0.292 C 
ATOM     30  O   UNL d   1       8.989  17.579   1.251  0.00  0.00    -0.259 OA
BRANCH  29  31
ATOM     31  O   UNL d   1       8.954  15.305   0.930  0.00  0.00    -0.323 OA
ATOM     32  C   UNL d   1      10.382  15.305   1.035  0.00  0.00     0.213 C 
ENDBRANCH  29  31
ENDBRANCH  27  29
ENDBRANCH  20  23
ENDBRANCH  17  19
ENDBRANCH   1  17
TORSDOF 10
