REMARK  7 active torsions:
REMARK  status: ('A' for Active; 'I' for Inactive)
REMARK    1  A    between atoms: C_2  and  C_4 
REMARK    2  A    between atoms: C_4  and  O_5 
REMARK    3  A    between atoms: C_4  and  C_14 
REMARK    4  A    between atoms: O_5  and  C_6 
REMARK       I    between atoms: C_14  and  N_16 
REMARK    5  A    between atoms: N_16  and  C_17 
REMARK    6  A    between atoms: C_20  and  C_21 
REMARK    7  A    between atoms: C_21  and  N_22 
REMARK       I    between atoms: N_22  and  C_23 
REMARK       I    between atoms: C_23  and  N_24 
ROOT
ATOM      1  C   UNL d   1       1.223  -1.840   1.918  0.00  0.00     0.090 C 
ATOM      2  C   UNL d   1       0.696  -2.179   3.178  0.00  0.00     0.038 C 
ATOM      3  C   UNL d   1      -0.685  -2.381   3.355  0.00  0.00     0.003 C 
ATOM      4  C   UNL d   1      -1.564  -2.122   2.311  0.00  0.00     0.002 C 
ATOM      5  C   UNL d   1      -1.049  -1.847   1.052  0.00  0.00     0.025 C 
ATOM      6  C   UNL d   1       0.341  -1.914   0.807  0.00  0.00     0.077 C 
ATOM      7  C   UNL d   1       0.726  -1.793  -0.575  0.00  0.00     0.102 C 
ATOM      8  N   UNL d   1       0.960  -1.534  -1.695  0.00  0.00    -0.191 NA
ENDROOT
BRANCH   1   9
ATOM      9  O   UNL d   1       2.565  -1.490   1.881  0.00  0.00    -0.335 OA
BRANCH   9  10
ATOM     10  C   UNL d   1       3.032  -0.116   1.551  0.00  0.00     0.224 C 
BRANCH  10  11
ATOM     11  C   UNL d   1       2.522   0.401   0.180  0.00  0.00     0.016 C 
ATOM     12  C   UNL d   1       1.051   0.836   0.315  0.00  0.00     0.012 C 
ATOM     13  C   UNL d   1       3.155   1.607  -0.491  0.00  0.00     0.012 C 
ENDBRANCH  10  11
BRANCH  10  14
ATOM     14  C   UNL d   1       4.594  -0.185   1.500  0.00  0.00     0.252 C 
ATOM     15  O   UNL d   1       5.205  -0.153   0.429  0.00  0.00    -0.270 OA
ATOM     16  N   UNL d   1       5.269  -0.308   2.707  0.00  0.00    -0.325 N 
ATOM     17  H   UNL d   1       4.767  -0.617   3.528  0.00  0.00     0.169 HD
BRANCH  16  18
ATOM     18  C   UNL d   1       6.686  -0.266   2.757  0.00  0.00     0.034 A 
ATOM     19  C   UNL d   1       7.413  -1.132   3.572  0.00  0.00     0.030 A 
ATOM     20  C   UNL d   1       8.814  -1.009   3.663  0.00  0.00     0.011 A 
ATOM     21  C   UNL d   1       9.516  -0.064   2.889  0.00  0.00    -0.040 A 
ATOM     22  C   UNL d   1       8.764   0.806   2.095  0.00  0.00     0.011 A 
ATOM     23  C   UNL d   1       7.377   0.697   2.021  0.00  0.00     0.030 A 
BRANCH  21  24
ATOM     24  C   UNL d   1      11.029  -0.067   2.897  0.00  0.00     0.162 C 
BRANCH  24  25
ATOM     25  N   UNL d   1      11.661   0.907   2.029  0.00  0.00    -0.339 N 
ATOM     26  C   UNL d   1      12.972   1.122   1.816  0.00  0.00     0.314 C 
ATOM     27  N   UNL d   1      13.841   0.352   2.490  0.00  0.00    -0.352 N 
ATOM     28  O   UNL d   1      13.352   1.990   1.040  0.00  0.00    -0.248 OA
ATOM     29  H   UNL d   1      13.561  -0.388   3.110  0.00  0.00     0.160 HD
ATOM     30  H   UNL d   1      14.824   0.508   2.323  0.00  0.00     0.160 HD
ATOM     31  H   UNL d   1      11.098   1.513   1.453  0.00  0.00     0.164 HD
ENDBRANCH  24  25
ENDBRANCH  21  24
ENDBRANCH  16  18
ENDBRANCH  10  14
ENDBRANCH   9  10
ENDBRANCH   1   9
TORSDOF 7
