REMARK  6 active torsions:
REMARK  status: ('A' for Active; 'I' for Inactive)
REMARK    1  A    between atoms: O_2  and  C_3 
REMARK       I    between atoms: C_3  and  N_5 
REMARK    2  A    between atoms: N_5  and  C_6 
REMARK    3  A    between atoms: C_8  and  N_9 
REMARK       I    between atoms: N_9  and  C_10 
REMARK    4  A    between atoms: C_10  and  C_12 
REMARK       I    between atoms: C_12  and  N_14 
REMARK    5  A    between atoms: N_14  and  C_15 
REMARK    6  A    between atoms: C_15  and  C_16 
ROOT
ATOM      1  N   UNL d   1       8.184   4.225  -1.446  0.00  0.00    -0.319 N 
ATOM      2  C   UNL d   1       8.898   5.443  -1.412  0.00  0.00     0.313 C 
ATOM      3  O   UNL d   1       8.701   6.411  -0.682  0.00  0.00    -0.262 OA
ATOM      4  H   UNL d   1       8.495   3.542  -2.132  0.00  0.00     0.169 HD
ENDROOT
BRANCH   1   5
ATOM      5  C   UNL d   1       7.062   3.897  -0.604  0.00  0.00     0.037 A 
ATOM      6  C   UNL d   1       6.373   2.650  -0.686  0.00  0.00     0.062 A 
ATOM      7  C   UNL d   1       5.218   2.401   0.115  0.00  0.00     0.077 A 
ATOM      8  C   UNL d   1       4.833   3.370   1.051  0.00  0.00     0.143 A 
ATOM      9  C   UNL d   1       5.510   4.566   1.161  0.00  0.00     0.047 A 
ATOM     10  F   UNL d   1       3.852   3.131   1.935  0.00  0.00    -0.204 F 
ATOM     11  C   UNL d   1       6.595   4.828   0.332  0.00  0.00     0.032 A 
BRANCH   7  12
ATOM     12  N   UNL d   1       4.444   1.206   0.007  0.00  0.00    -0.300 N 
ATOM     13  C   UNL d   1       3.054   1.221   0.053  0.00  0.00     0.364 C 
ATOM     14  O   UNL d   1       2.353   2.232   0.068  0.00  0.00    -0.238 OA
ATOM     15  H   UNL d   1       4.886   0.329  -0.232  0.00  0.00     0.171 HD
BRANCH  13  16
ATOM     16  O   UNL d   1       2.519  -0.035  -0.013  0.00  0.00    -0.309 OA
ATOM     17  C   UNL d   1       1.076  -0.041  -0.020  0.00  0.00     0.215 C 
ENDBRANCH  13  16
ENDBRANCH   7  12
ENDBRANCH   1   5
BRANCH   2  18
ATOM     18  C   UNL d   1      10.083   5.605  -2.402  0.00  0.00     0.309 C 
ATOM     19  O   UNL d   1      10.370   4.707  -3.179  0.00  0.00    -0.262 OA
ATOM     20  N   UNL d   1      10.742   6.828  -2.300  0.00  0.00    -0.349 N 
ATOM     21  H   UNL d   1      10.400   7.486  -1.601  0.00  0.00     0.163 HD
BRANCH  20  22
ATOM     22  C   UNL d   1      11.878   7.184  -3.126  0.00  0.00     0.161 C 
BRANCH  22  23
ATOM     23  C   UNL d   1      12.416   8.570  -2.844  0.00  0.00    -0.039 A 
ATOM     24  C   UNL d   1      13.649   8.758  -2.195  0.00  0.00     0.009 A 
ATOM     25  C   UNL d   1      14.142  10.045  -1.944  0.00  0.00     0.002 A 
ATOM     26  C   UNL d   1      13.406  11.164  -2.330  0.00  0.00     0.024 A 
ATOM     27  C   UNL d   1      12.186  10.990  -2.978  0.00  0.00     0.034 A 
ATOM     28 CL   UNL d   1      11.266  12.369  -3.444  0.00  0.00    -0.084 Cl
ATOM     29  C   UNL d   1      11.697   9.708  -3.245  0.00  0.00     0.032 A 
ENDBRANCH  22  23
ENDBRANCH  20  22
ENDBRANCH   2  18
TORSDOF 6
