REMARK  8 active torsions:
REMARK  status: ('A' for Active; 'I' for Inactive)
REMARK    1  A    between atoms: N_6  and  C_7 
REMARK    2  A    between atoms: C_7  and  C_8 
REMARK    3  A    between atoms: C_8  and  C_9 
REMARK    4  A    between atoms: C_9  and  N_10 
REMARK       I    between atoms: N_10  and  C_11 
REMARK    5  A    between atoms: C_11  and  C_13 
REMARK    6  A    between atoms: C_16  and  N_17 
REMARK    7  A    between atoms: N_17  and  C_18 
REMARK    8  A    between atoms: C_24  and  N_25 
ROOT
ATOM      1  C   UNL d   1       5.715  -8.064   0.007  0.00  0.00     0.034 A 
ATOM      2  C   UNL d   1       5.809  -9.238  -0.733  0.00  0.00     0.019 A 
ATOM      3  C   UNL d   1       6.907 -10.103  -0.548  0.00  0.00     0.033 A 
ATOM      4  C   UNL d   1       7.995  -9.782   0.309  0.00  0.00     0.066 A 
ATOM      5  C   UNL d   1       7.862  -8.581   1.049  0.00  0.00     0.130 A 
ATOM      6  C   UNL d   1       6.730  -7.750   0.898  0.00  0.00     0.055 A 
ENDROOT
BRANCH   1   7
ATOM      7  C   UNL d   1       4.508  -7.202  -0.036  0.00  0.00     0.251 C 
ATOM      8  N   UNL d   1       4.709  -5.835   0.035  0.00  0.00    -0.357 N 
ATOM      9  H   UNL d   1       5.653  -5.465   0.027  0.00  0.00     0.162 HD
ATOM     10  O   UNL d   1       3.393  -7.712  -0.102  0.00  0.00    -0.268 OA
BRANCH   8  11
ATOM     11  C   UNL d   1       3.573  -4.933   0.043  0.00  0.00     0.124 C 
BRANCH  11  12
ATOM     12  C   UNL d   1       4.009  -3.481   0.057  0.00  0.00     0.040 C 
BRANCH  12  13
ATOM     13  C   UNL d   1       2.830  -2.510   0.055  0.00  0.00     0.131 C 
BRANCH  13  14
ATOM     14  N   UNL d   1       3.259  -1.092   0.063  0.00  0.00    -0.346 N 
ATOM     15  C   UNL d   1       4.575  -0.627   0.073  0.00  0.00     0.109 A 
ATOM     16  C   UNL d   1       4.526   0.732   0.070  0.00  0.00     0.106 A 
ATOM     17  N   UNL d   1       3.196   1.062   0.063  0.00  0.00    -0.355 N 
ATOM     18  C   UNL d   1       2.418  -0.031   0.063  0.00  0.00     0.079 A 
ATOM     19  H   UNL d   1       2.837   2.014   0.061  0.00  0.00     0.166 HD
ATOM     20  C   UNL d   1       0.928  -0.032   0.062  0.00  0.00     0.089 C 
ENDBRANCH  13  14
ENDBRANCH  12  13
ENDBRANCH  11  12
ENDBRANCH   8  11
ENDBRANCH   1   7
BRANCH   5  21
ATOM     21  N   UNL d   1       8.838  -7.998   1.983  0.00  0.00    -0.113 N 
ATOM     22  O   UNL d   1      10.038  -8.002   1.678  0.00  0.00    -0.532 OA
ATOM     23  O   UNL d   1       8.383  -7.367   2.947  0.00  0.00    -0.532 OA
ENDBRANCH   5  21
BRANCH   4  24
ATOM     24  N   UNL d   1       9.054 -10.723   0.350  0.00  0.00    -0.354 N 
ATOM     25  H   UNL d   1       9.089 -11.406  -0.404  0.00  0.00     0.166 HD
BRANCH  24  26
ATOM     26  C   UNL d   1      10.223 -10.704   1.131  0.00  0.00     0.032 A 
ATOM     27  C   UNL d   1      11.488 -10.471   0.565  0.00  0.00     0.029 A 
ATOM     28  C   UNL d   1      12.601 -10.268   1.393  0.00  0.00     0.002 A 
ATOM     29  C   UNL d   1      12.437 -10.201   2.777  0.00  0.00     0.000 A 
ATOM     30  C   UNL d   1      11.186 -10.432   3.341  0.00  0.00     0.002 A 
ATOM     31  C   UNL d   1      10.100 -10.736   2.525  0.00  0.00     0.029 A 
ENDBRANCH  24  26
ENDBRANCH   4  24
TORSDOF 8
