@<TRIPOS>MOLECULE
*****
 69 72 0 0 0
SMALL
GASTEIGER

@<TRIPOS>ATOM
      1 O           0.9498    0.0537   -0.1647 O.2     1  UNL1       -0.2738
      2 C           2.1773   -0.0230   -0.0666 C.2     1  UNL1        0.2343
      3 C           2.8663   -1.1103    0.7845 C.3     1  UNL1        0.0861
      4 N           1.9334   -1.9853    1.5221 N.pl3   1  UNL1       -0.3354
      5 C           2.4869   -3.0677    2.2103 C.ar    1  UNL1        0.0283
      6 C           3.5486   -2.8247    3.0826 C.ar    1  UNL1       -0.0394
      7 C           4.1834   -3.8550    3.7654 C.ar    1  UNL1       -0.0409
      8 C           3.7947   -5.1830    3.5839 C.ar    1  UNL1        0.0532
      9 CL          4.7226   -6.3212    4.5005 Cl      1  UNL1       -0.0828
     10 C           2.7373   -5.4954    2.7147 C.ar    1  UNL1        0.0567
     11 C           2.2459   -6.9041    2.4517 C.2     1  UNL1        0.2458
     12 O           1.2624   -7.0704    1.7294 O.2     1  UNL1       -0.2701
     13 N           2.9135   -7.9786    3.0291 N.am    1  UNL1       -0.3085
     14 C           2.4020   -9.3484    2.9890 C.3     1  UNL1        0.0234
     15 C           3.5172  -10.4130    2.9774 C.3     1  UNL1       -0.0345
     16 C           2.9184  -11.8262    2.9316 C.3     1  UNL1       -0.0514
     17 C           1.9531  -12.0695    4.0896 C.3     1  UNL1       -0.0529
     18 C           0.8678  -10.9985    4.1309 C.3     1  UNL1       -0.0514
     19 C           1.4680   -9.5964    4.1814 C.3     1  UNL1       -0.0345
     20 C           2.0894   -4.4111    2.0328 C.ar    1  UNL1       -0.0273
     21 N           2.9684    0.9465   -0.6676 N.am    1  UNL1       -0.2842
     22 C           4.3707    0.9720   -0.7949 C.ar    1  UNL1        0.0335
     23 C           5.0744    2.1765   -0.7293 C.ar    1  UNL1       -0.0398
     24 C           6.4785    2.1804   -0.8751 C.ar    1  UNL1       -0.0479
     25 C           7.1963    0.9789   -1.0376 C.ar    1  UNL1        0.0368
     26 C           8.6951    0.9843   -1.0744 C.2     1  UNL1        0.2442
     27 O           9.2952    2.0582   -0.9735 O.2     1  UNL1       -0.2702
     28 N           9.3581   -0.2304   -1.2000 N.am    1  UNL1       -0.3089
     29 C          10.8113   -0.2969   -1.1508 C.3     1  UNL1        0.0382
     30 C          11.4360   -1.6982   -1.2917 C.3     1  UNL1        0.0742
     31 C          11.1935   -2.4253   -2.6034 C.3     1  UNL1       -0.0231
     32 C          11.5554   -3.8462   -2.2309 C.3     1  UNL1       -0.0271
     33 C          11.0634   -3.9510   -0.8008 C.3     1  UNL1        0.0482
     34 O          11.0057   -2.6142   -0.2653 O.3     1  UNL1       -0.3750
     35 C           6.4723   -0.2035   -1.1561 C.ar    1  UNL1       -0.0479
     36 C           5.0817   -0.1933   -1.0676 C.ar    1  UNL1       -0.0398
     37 H           3.5291   -0.5876    1.4839 H       1  UNL1        0.0557
     38 H           3.4454   -1.7578    0.1298 H       1  UNL1        0.0557
     39 H           0.9905   -2.0336    1.1456 H       1  UNL1        0.1466
     40 H           3.8737   -1.8056    3.2738 H       1  UNL1        0.0636
     41 H           4.9895   -3.6045    4.4498 H       1  UNL1        0.0633
     42 H           3.6138   -7.7813    3.7341 H       1  UNL1        0.1493
     43 H           1.8316   -9.4544    2.0594 H       1  UNL1        0.0498
     44 H           4.1558  -10.3199    3.8664 H       1  UNL1        0.0283
     45 H           4.1699  -10.2707    2.1082 H       1  UNL1        0.0283
     46 H           3.7141  -12.5796    2.9510 H       1  UNL1        0.0266
     47 H           2.3793  -11.9588    1.9849 H       1  UNL1        0.0266
     48 H           2.5073  -12.0723    5.0365 H       1  UNL1        0.0265
     49 H           1.4900  -13.0582    3.9889 H       1  UNL1        0.0265
     50 H           0.2207  -11.1579    5.0000 H       1  UNL1        0.0266
     51 H           0.2371  -11.0872    3.2377 H       1  UNL1        0.0266
     52 H           2.0221   -9.4730    5.1226 H       1  UNL1        0.0283
     53 H           0.6637   -8.8531    4.1930 H       1  UNL1        0.0283
     54 H           1.2756   -4.6342    1.3410 H       1  UNL1        0.0644
     55 H           2.4451    1.7342   -1.0378 H       1  UNL1        0.1549
     56 H           4.5655    3.1145   -0.5102 H       1  UNL1        0.0636
     57 H           7.0124    3.1312   -0.8516 H       1  UNL1        0.0626
     58 H           8.8684   -1.1097   -1.1400 H       1  UNL1        0.1491
     59 H          11.1146    0.1373   -0.1907 H       1  UNL1        0.0487
     60 H          11.1882    0.3526   -1.9477 H       1  UNL1        0.0487
     61 H          12.5192   -1.5738   -1.1613 H       1  UNL1        0.0611
     62 H          11.8102   -2.0356   -3.4174 H       1  UNL1        0.0291
     63 H          10.1416   -2.3821   -2.9057 H       1  UNL1        0.0291
     64 H          12.6446   -3.9758   -2.2608 H       1  UNL1        0.0288
     65 H          11.1160   -4.6036   -2.8869 H       1  UNL1        0.0288
     66 H          11.7173   -4.5817   -0.1878 H       1  UNL1        0.0560
     67 H          10.0516   -4.3657   -0.7575 H       1  UNL1        0.0560
     68 H           6.9429   -1.1592   -1.3435 H       1  UNL1        0.0626
     69 H           4.5755   -1.1249   -1.2858 H       1  UNL1        0.0636
@<TRIPOS>BOND
     1     1     2    2
     2     2     3    1
     3     3     4    1
     4     4     5    1
     5     5     6   ar
     6     6     7   ar
     7     7     8   ar
     8     8     9    1
     9     8    10   ar
    10    10    11    1
    11    11    12    2
    12    11    13   am
    13    13    14    1
    14    14    15    1
    15    15    16    1
    16    16    17    1
    17    17    18    1
    18    18    19    1
    19    14    19    1
    20    10    20   ar
    21     5    20   ar
    22     2    21   am
    23    21    22    1
    24    22    23   ar
    25    23    24   ar
    26    24    25   ar
    27    25    26    1
    28    26    27    2
    29    26    28   am
    30    28    29    1
    31    29    30    1
    32    30    31    1
    33    31    32    1
    34    32    33    1
    35    33    34    1
    36    30    34    1
    37    25    35   ar
    38    35    36   ar
    39    22    36   ar
    40     3    37    1
    41     3    38    1
    42     4    39    1
    43     6    40    1
    44     7    41    1
    45    13    42    1
    46    14    43    1
    47    15    44    1
    48    15    45    1
    49    16    46    1
    50    16    47    1
    51    17    48    1
    52    17    49    1
    53    18    50    1
    54    18    51    1
    55    19    52    1
    56    19    53    1
    57    20    54    1
    58    21    55    1
    59    23    56    1
    60    24    57    1
    61    28    58    1
    62    29    59    1
    63    29    60    1
    64    30    61    1
    65    31    62    1
    66    31    63    1
    67    32    64    1
    68    32    65    1
    69    33    66    1
    70    33    67    1
    71    35    68    1
    72    36    69    1
