@<TRIPOS>MOLECULE
*****
 63 67 0 0 0
SMALL
GASTEIGER

@<TRIPOS>ATOM
      1 N          -2.3265   -0.1800    0.0255 N.pl3   1  UNL1       -0.3040
      2 C          -0.9753    0.0181    0.0164 C.ar    1  UNL1        0.2882
      3 N          -0.2448   -1.1074    0.0363 N.ar    1  UNL1       -0.1927
      4 C           1.0886   -1.1603    0.0181 C.ar    1  UNL1        0.2036
      5 C           1.7414   -2.5168    0.1250 C.3     1  UNL1        0.1084
      6 N           3.2037   -2.4699    0.1597 N.ar    1  UNL1       -0.3295
      7 C           3.9647   -1.8444    1.1492 C.ar    1  UNL1        0.0500
      8 C           3.3810   -1.1313    2.2923 C.ar    1  UNL1       -0.0013
      9 C           2.4562   -1.7611    3.1290 C.ar    1  UNL1       -0.0492
     10 C           1.6854   -1.0146    4.0239 C.ar    1  UNL1       -0.0187
     11 C           1.9019    0.3585    4.1665 C.ar    1  UNL1        0.1286
     12 O           1.1460    0.9834    5.1402 O.3     1  UNL1       -0.4530
     13 C           1.4140    2.2929    5.4083 C.ar    1  UNL1        0.1644
     14 C           1.1059    3.3103    4.5299 C.ar    1  UNL1        0.0730
     15 N           1.4181    4.6035    4.7408 N.ar    1  UNL1       -0.2401
     16 C           2.0162    4.8681    5.9153 C.ar    1  UNL1        0.1161
     17 N           2.3137    3.9688    6.8689 N.ar    1  UNL1       -0.2401
     18 C           1.9942    2.6856    6.5933 C.ar    1  UNL1        0.0730
     19 C           2.8623    0.9827    3.3646 C.ar    1  UNL1       -0.0187
     20 C           3.5977    0.2445    2.4371 C.ar    1  UNL1       -0.0492
     21 C           5.2697   -1.8321    0.6901 C.ar    1  UNL1       -0.0356
     22 C           5.3159   -2.5453   -0.5282 C.ar    1  UNL1       -0.0356
     23 C           4.0262   -2.9157   -0.8610 C.ar    1  UNL1        0.0514
     24 C           3.5643   -3.6029   -2.0717 C.ar    1  UNL1        0.0168
     25 C           3.9522   -4.9356   -2.2720 C.ar    1  UNL1       -0.0512
     26 C           3.5444   -5.6250   -3.4164 C.ar    1  UNL1       -0.0611
     27 C           2.6803   -5.0225   -4.3280 C.ar    1  UNL1       -0.0603
     28 C           2.2793   -3.7057   -4.1387 C.ar    1  UNL1       -0.0427
     29 C           2.7576   -2.9844   -3.0474 C.ar    1  UNL1        0.0501
     30 CL          2.3146   -1.3165   -2.9992 Cl      1  UNL1       -0.0829
     31 C           1.7752    0.0521   -0.1131 C.ar    1  UNL1        0.0090
     32 C           1.0899    1.2524   -0.0584 C.ar    1  UNL1       -0.0271
     33 C          -0.3012    1.2767    0.0273 C.ar    1  UNL1        0.1159
     34 N          -0.8834    2.5392    0.0418 N.pl3   1  UNL1       -0.3355
     35 C          -2.3051    2.7642    0.1345 C.3     1  UNL1        0.0325
     36 C          -2.7249    4.2206    0.2016 C.3     1  UNL1        0.0596
     37 O          -4.1490    4.2676    0.2647 O.3     1  UNL1       -0.3935
     38 H          -2.7932   -1.0751   -0.0288 H       1  UNL1        0.1478
     39 H          -2.9611    0.5975   -0.0427 H       1  UNL1        0.1478
     40 H          -0.7823   -1.9711    0.0566 H       1  UNL1        0.4546
     41 H           1.4124   -3.1355   -0.7137 H       1  UNL1        0.0602
     42 H           1.4054   -3.0483    1.0211 H       1  UNL1        0.0602
     43 H           2.3181   -2.8381    3.0729 H       1  UNL1        0.0625
     44 H           0.9249   -1.5153    4.6187 H       1  UNL1        0.0654
     45 H           0.6279    3.0986    3.5793 H       1  UNL1        0.0868
     46 H           2.2837    5.9016    6.1099 H       1  UNL1        0.1047
     47 H           2.2421    1.9717    7.3734 H       1  UNL1        0.0868
     48 H           3.0593    2.0494    3.4146 H       1  UNL1        0.0654
     49 H           4.2887    0.7768    1.7840 H       1  UNL1        0.0625
     50 H           6.1051   -1.3405    1.1754 H       1  UNL1        0.0639
     51 H           6.1950   -2.7207   -1.1373 H       1  UNL1        0.0639
     52 H           4.5866   -5.4450   -1.5470 H       1  UNL1        0.0625
     53 H           3.9086   -6.6331   -3.6032 H       1  UNL1        0.0618
     54 H           2.3374   -5.5682   -5.2031 H       1  UNL1        0.0618
     55 H           1.6215   -3.2307   -4.8622 H       1  UNL1        0.0632
     56 H           2.8543    0.0874   -0.2302 H       1  UNL1        0.0681
     57 H           1.6748    2.1731   -0.0844 H       1  UNL1        0.0641
     58 H          -0.2748    3.3519    0.1350 H       1  UNL1        0.1464
     59 H          -2.7071    2.2634    1.0231 H       1  UNL1        0.0484
     60 H          -2.7770    2.3471   -0.7619 H       1  UNL1        0.0484
     61 H          -2.3868    4.7759   -0.6777 H       1  UNL1        0.0573
     62 H          -2.3236    4.6995    1.0989 H       1  UNL1        0.0573
     63 H          -4.5055    3.9163   -0.5708 H       1  UNL1        0.2095
@<TRIPOS>UNITY_ATOM_ATTR
3 1
charge 1
@<TRIPOS>BOND
     1     1     2    1
     2     2     3   ar
     3     3     4   ar
     4     4     5    1
     5     5     6    1
     6     6     7   ar
     7     7     8    1
     8     8     9   ar
     9     9    10   ar
    10    10    11   ar
    11    11    12    1
    12    12    13    1
    13    13    14   ar
    14    14    15   ar
    15    15    16   ar
    16    16    17   ar
    17    17    18   ar
    18    13    18   ar
    19    11    19   ar
    20    19    20   ar
    21     8    20   ar
    22     7    21   ar
    23    21    22   ar
    24    22    23   ar
    25     6    23   ar
    26    23    24    1
    27    24    25   ar
    28    25    26   ar
    29    26    27   ar
    30    27    28   ar
    31    28    29   ar
    32    24    29   ar
    33    29    30    1
    34     4    31   ar
    35    31    32   ar
    36    32    33   ar
    37     2    33   ar
    38    33    34    1
    39    34    35    1
    40    35    36    1
    41    36    37    1
    42     1    38    1
    43     1    39    1
    44     3    40    1
    45     5    41    1
    46     5    42    1
    47     9    43    1
    48    10    44    1
    49    14    45    1
    50    16    46    1
    51    18    47    1
    52    19    48    1
    53    20    49    1
    54    21    50    1
    55    22    51    1
    56    25    52    1
    57    26    53    1
    58    27    54    1
    59    28    55    1
    60    31    56    1
    61    32    57    1
    62    34    58    1
    63    35    59    1
    64    35    60    1
    65    36    61    1
    66    36    62    1
    67    37    63    1
