REMARK  9 active torsions:
REMARK  status: ('A' for Active; 'I' for Inactive)
REMARK    1  A    between atoms: C_2  and  O_3 
REMARK    2  A    between atoms: O_3  and  C_4 
REMARK    3  A    between atoms: C_4  and  C_6 
REMARK    4  A    between atoms: C_10  and  C_11 
REMARK    5  A    between atoms: C_11  and  O_13 
REMARK    6  A    between atoms: O_13  and  C_14 
REMARK    7  A    between atoms: C_14  and  C_15 
REMARK       I    between atoms: C_15  and  N_17 
REMARK    8  A    between atoms: N_17  and  N_18 
REMARK       I    between atoms: N_18  and  C_19 
REMARK    9  A    between atoms: C_19  and  C_21 
ROOT
ATOM      1  O   UNL d   1       7.437  -5.664   3.930  0.00  0.00    -0.307 OA
ENDROOT
BRANCH   1   2
ATOM      2  C   UNL d   1       7.429  -4.312   3.679  0.00  0.00     0.311 C 
ATOM      3  O   UNL d   1       8.291  -3.568   4.147  0.00  0.00    -0.258 OA
BRANCH   2   4
ATOM      4  C   UNL d   1       6.315  -3.860   2.814  0.00  0.00     0.115 A 
ATOM      5  N   UNL d   1       5.315  -4.642   2.260  0.00  0.00    -0.354 N 
ATOM      6  C   UNL d   1       4.440  -3.887   1.483  0.00  0.00     0.022 A 
ATOM      7  H   UNL d   1       5.247  -5.644   2.386  0.00  0.00     0.166 HD
ATOM      8  C   UNL d   1       4.868  -2.565   1.503  0.00  0.00     0.070 A 
ATOM      9  C   UNL d   1       3.315  -4.537   0.749  0.00  0.00     0.069 C 
ATOM     10  C   UNL d   1       6.038  -2.557   2.367  0.00  0.00    -0.011 A 
ATOM     11  C   UNL d   1       6.793  -1.312   2.700  0.00  0.00     0.052 C 
BRANCH   8  12
ATOM     12  C   UNL d   1       4.341  -1.390   0.756  0.00  0.00     0.295 C 
ATOM     13  O   UNL d   1       5.089  -0.535   0.289  0.00  0.00    -0.259 OA
BRANCH  12  14
ATOM     14  O   UNL d   1       2.970  -1.301   0.656  0.00  0.00    -0.318 OA
BRANCH  14  15
ATOM     15  C   UNL d   1       2.507  -0.113  -0.034  0.00  0.00     0.174 C 
ATOM     16  C   UNL d   1       0.986  -0.067  -0.052  0.00  0.00     0.034 C 
ENDBRANCH  14  15
ENDBRANCH  12  14
ENDBRANCH   8  12
ENDBRANCH   2   4
ENDBRANCH   1   2
BRANCH   1  17
ATOM     17  C   UNL d   1       8.533  -6.133   4.788  0.00  0.00     0.283 C 
BRANCH  17  18
ATOM     18  C   UNL d   1       8.485  -7.673   5.033  0.00  0.00     0.260 C 
ATOM     19  O   UNL d   1       7.603  -8.380   4.536  0.00  0.00    -0.269 OA
ATOM     20  N   UNL d   1       9.481  -8.240   5.838  0.00  0.00    -0.265 N 
ATOM     21  H   UNL d   1      10.241  -7.730   6.287  0.00  0.00     0.190 HD
BRANCH  20  22
ATOM     22  N   UNL d   1       9.475  -9.669   6.042  0.00  0.00    -0.263 N 
ATOM     23  C   UNL d   1      10.409 -10.272   6.886  0.00  0.00     0.270 C 
ATOM     24  O   UNL d   1      11.290  -9.643   7.466  0.00  0.00    -0.266 OA
ATOM     25  H   UNL d   1       8.678 -10.168   5.648  0.00  0.00     0.190 HD
BRANCH  23  26
ATOM     26  C   UNL d   1      10.290 -11.760   7.096  0.00  0.00     0.033 A 
ATOM     27  C   UNL d   1      10.056 -12.635   6.026  0.00  0.00     0.019 A 
ATOM     28  C   UNL d   1       9.946 -14.020   6.245  0.00  0.00     0.025 A 
ATOM     29  C   UNL d   1      10.071 -14.540   7.532  0.00  0.00     0.034 A 
ATOM     30 CL   UNL d   1       9.885 -16.232   7.797  0.00  0.00    -0.084 Cl
ATOM     31  C   UNL d   1      10.344 -13.691   8.602  0.00  0.00     0.025 A 
ATOM     32  C   UNL d   1      10.466 -12.306   8.382  0.00  0.00     0.019 A 
ENDBRANCH  23  26
ENDBRANCH  20  22
ENDBRANCH  17  18
ENDBRANCH   1  17
TORSDOF 9
