@<TRIPOS>MOLECULE
*****
 39 40 0 0 0
SMALL
GASTEIGER

@<TRIPOS>ATOM
      1 N           1.1272   -0.1519    0.0080 N.am    1  UNL1       -0.3286
      2 C           2.4894   -0.0795   -0.0239 C.2     1  UNL1        0.2207
      3 O           3.0111    0.9717   -0.4106 O.2     1  UNL1       -0.2751
      4 C           3.2468   -1.3213    0.4525 C.3     1  UNL1        0.0746
      5 S           5.0004   -1.1936   -0.0703 S.3     1  UNL1       -0.1141
      6 C           5.8189   -2.4337    0.9473 C.ar    1  UNL1        0.0292
      7 C           5.4768   -3.7512    0.6122 C.ar    1  UNL1       -0.0465
      8 C           6.0266   -4.8354    1.2851 C.ar    1  UNL1       -0.0606
      9 C           6.9956   -4.6224    2.2543 C.ar    1  UNL1       -0.0600
     10 C           7.3864   -3.3166    2.5715 C.ar    1  UNL1       -0.0398
     11 C           6.8194   -2.1902    1.9290 C.ar    1  UNL1        0.0411
     12 N           7.2793   -0.9433    2.3272 N.pl3   1  UNL1       -0.3345
     13 C           6.8535    0.3181    1.7329 C.3     1  UNL1        0.0861
     14 C           7.4930    1.5083    2.4214 C.2     1  UNL1        0.2343
     15 O           8.1767    1.3672    3.4368 O.2     1  UNL1       -0.2738
     16 N           7.1899    2.7357    1.8355 N.am    1  UNL1       -0.2830
     17 C           7.8698    3.9192    2.2042 C.ar    1  UNL1        0.0520
     18 C           7.1374    5.1085    2.3628 C.ar    1  UNL1       -0.0377
     19 C           7.8012    6.3073    2.6644 C.ar    1  UNL1       -0.0415
     20 C           9.1819    6.3083    2.8551 C.ar    1  UNL1        0.0425
     21 CL         10.0003    7.7554    3.2937 Cl      1  UNL1       -0.0835
     22 C           9.9159    5.1421    2.6933 C.ar    1  UNL1       -0.0232
     23 C           9.2723    3.9566    2.3502 C.ar    1  UNL1        0.0635
     24 CL         10.3244    2.6382    1.9389 Cl      1  UNL1       -0.0816
     25 H           0.6195    0.6600   -0.3247 H       1  UNL1        0.1450
     26 H           0.6000   -0.9395    0.3580 H       1  UNL1        0.1450
     27 H           2.8220   -2.2058   -0.0304 H       1  UNL1        0.0474
     28 H           3.1289   -1.4098    1.5394 H       1  UNL1        0.0474
     29 H           4.7954   -3.9370   -0.2133 H       1  UNL1        0.0629
     30 H           5.7024   -5.8407    1.0362 H       1  UNL1        0.0618
     31 H           7.4594   -5.4725    2.7493 H       1  UNL1        0.0618
     32 H           8.1551   -3.1884    3.3343 H       1  UNL1        0.0636
     33 H           8.0437   -0.8653    2.9979 H       1  UNL1        0.1466
     34 H           5.7800    0.4459    1.8906 H       1  UNL1        0.0557
     35 H           7.1365    0.3528    0.6745 H       1  UNL1        0.0557
     36 H           6.3615    2.8123    1.2515 H       1  UNL1        0.1549
     37 H           6.0495    5.1202    2.3121 H       1  UNL1        0.0637
     38 H           7.2435    7.2373    2.7557 H       1  UNL1        0.0633
     39 H          10.9963    5.1502    2.7952 H       1  UNL1        0.0647
@<TRIPOS>BOND
     1     1     2   am
     2     2     3    2
     3     2     4    1
     4     4     5    1
     5     5     6    1
     6     6     7   ar
     7     7     8   ar
     8     8     9   ar
     9     9    10   ar
    10    10    11   ar
    11     6    11   ar
    12    11    12    1
    13    12    13    1
    14    13    14    1
    15    14    15    2
    16    14    16   am
    17    16    17    1
    18    17    18   ar
    19    18    19   ar
    20    19    20   ar
    21    20    21    1
    22    20    22   ar
    23    22    23   ar
    24    17    23   ar
    25    23    24    1
    26     1    25    1
    27     1    26    1
    28     4    27    1
    29     4    28    1
    30     7    29    1
    31     8    30    1
    32     9    31    1
    33    10    32    1
    34    12    33    1
    35    13    34    1
    36    13    35    1
    37    16    36    1
    38    18    37    1
    39    19    38    1
    40    22    39    1
