REMARK  11 active torsions:
REMARK  status: ('A' for Active; 'I' for Inactive)
REMARK    1  A    between atoms: O_2  and  C_3 
REMARK    2  A    between atoms: C_6  and  C_7 
REMARK    3  A    between atoms: C_7  and  C_8 
REMARK    4  A    between atoms: C_8  and  N_9 
REMARK       I    between atoms: N_9  and  C_10 
REMARK       I    between atoms: C_10  and  N_12 
REMARK    5  A    between atoms: N_12  and  C_13 
REMARK    6  A    between atoms: C_14  and  C_13 
REMARK    7  A    between atoms: C_14  and  C_16 
REMARK    8  A    between atoms: C_14  and  O_15 
REMARK    9  A    between atoms: C_16  and  O_17 
REMARK   10  A    between atoms: O_17  and  C_18 
REMARK   11  A    between atoms: C_21  and  N_22 
ROOT
ATOM      1  N   UNL d   1       9.209   3.686   9.702  0.00  0.00    -0.343 N 
ATOM      2  C   UNL d   1       8.276   3.886  10.689  0.00  0.00     0.316 C 
ATOM      3  O   UNL d   1       8.215   4.899  11.383  0.00  0.00    -0.247 OA
ATOM      4  N   UNL d   1       7.426   2.838  10.813  0.00  0.00    -0.341 N 
ATOM      5  H   UNL d   1       9.260   2.804   9.217  0.00  0.00     0.164 HD
ATOM      6  H   UNL d   1       7.538   2.046  10.198  0.00  0.00     0.164 HD
ENDROOT
BRANCH   4   7
ATOM      7  C   UNL d   1       6.425   2.723  11.864  0.00  0.00     0.158 C 
BRANCH   7   8
ATOM      8  C   UNL d   1       6.209   1.225  12.104  0.00  0.00     0.160 C 
BRANCH   8   9
ATOM      9  C   UNL d   1       5.695   0.860  13.491  0.00  0.00     0.209 C 
BRANCH   9  10
ATOM     10  O   UNL d   1       6.564   1.424  14.469  0.00  0.00    -0.349 OA
BRANCH  10  11
ATOM     11  C   UNL d   1       6.374   1.018  15.757  0.00  0.00     0.069 A 
ATOM     12  C   UNL d   1       6.674   1.970  16.736  0.00  0.00     0.039 A 
ATOM     13  C   UNL d   1       6.646   1.625  18.089  0.00  0.00     0.039 A 
ATOM     14  C   UNL d   1       6.245   0.336  18.459  0.00  0.00     0.103 A 
ATOM     15  C   UNL d   1       5.944  -0.622  17.483  0.00  0.00     0.039 A 
ATOM     16  C   UNL d   1       6.018  -0.277  16.132  0.00  0.00     0.039 A 
BRANCH  14  17
ATOM     17  N   UNL d   1       6.084  -0.000  19.878  0.00  0.00    -0.116 N 
ATOM     18  O   UNL d   1       6.335   0.881  20.712  0.00  0.00    -0.532 OA
ATOM     19  O   UNL d   1       5.680  -1.138  20.157  0.00  0.00    -0.532 OA
ENDBRANCH  14  17
ENDBRANCH  10  11
ENDBRANCH   9  10
ENDBRANCH   8   9
BRANCH   8  20
ATOM     20  O   UNL d   1       5.346   0.694  11.090  0.00  0.00    -0.392 OA
ATOM     21  H   UNL d   1       4.488   1.152  11.159  0.00  0.00     0.210 HD
ENDBRANCH   8  20
ENDBRANCH   7   8
ENDBRANCH   4   7
BRANCH   1  22
ATOM     22  C   UNL d   1      10.156   4.734   9.421  0.00  0.00     0.129 C 
BRANCH  22  23
ATOM     23  C   UNL d   1      11.159   4.450   8.297  0.00  0.00     0.058 C 
BRANCH  23  24
ATOM     24  C   UNL d   1      12.130   5.593   8.061  0.00  0.00    -0.057 A 
ATOM     25  C   UNL d   1      13.150   5.465   7.110  0.00  0.00     0.010 A 
ATOM     26  C   UNL d   1      14.126   6.463   6.976  0.00  0.00     0.037 A 
ATOM     27  C   UNL d   1      14.056   7.636   7.732  0.00  0.00     0.068 A 
ATOM     28  C   UNL d   1      13.021   7.790   8.643  0.00  0.00     0.037 A 
ATOM     29  C   UNL d   1      12.073   6.782   8.804  0.00  0.00     0.010 A 
BRANCH  27  30
ATOM     30  O   UNL d   1      14.977   8.604   7.441  0.00  0.00    -0.356 OA
ATOM     31  C   UNL d   1      15.354   9.449   8.524  0.00  0.00     0.210 C 
ENDBRANCH  27  30
ENDBRANCH  23  24
ENDBRANCH  22  23
ENDBRANCH   1  22
TORSDOF 11
