REMARK  7 active torsions:
REMARK  status: ('A' for Active; 'I' for Inactive)
REMARK    1  A    between atoms: O_2  and  C_3 
REMARK    2  A    between atoms: C_6  and  N_7 
REMARK    3  A    between atoms: N_10  and  C_11 
REMARK    4  A    between atoms: C_11  and  C_12 
REMARK    5  A    between atoms: C_12  and  N_13 
REMARK       I    between atoms: N_13  and  C_14 
REMARK    6  A    between atoms: C_14  and  C_16 
REMARK       I    between atoms: C_16  and  N_18 
REMARK    7  A    between atoms: N_18  and  C_19 
ROOT
ATOM      1  C   UNL d   1      13.690   3.634  -9.989  0.00  0.00     0.057 A 
ATOM      2  C   UNL d   1      14.608   4.656  -9.682  0.00  0.00     0.055 A 
ATOM      3  C   UNL d   1      15.963   4.514 -10.023  0.00  0.00     0.036 A 
ATOM      4 CL   UNL d   1      17.061   5.826  -9.810  0.00  0.00    -0.084 Cl
ATOM      5  C   UNL d   1      16.431   3.338 -10.602  0.00  0.00     0.025 A 
ATOM      6  C   UNL d   1      15.529   2.325 -10.918  0.00  0.00     0.027 A 
ATOM      7  C   UNL d   1      14.164   2.461 -10.620  0.00  0.00     0.071 A 
ATOM      8  C   UNL d   1      13.286   1.413 -11.049  0.00  0.00     0.102 C 
ATOM      9  N   UNL d   1      12.549   0.571 -11.389  0.00  0.00    -0.191 NA
ENDROOT
BRANCH   1  10
ATOM     10  N   UNL d   1      12.304   3.836  -9.727  0.00  0.00    -0.318 N 
ATOM     11  C   UNL d   1      11.483   2.835  -9.206  0.00  0.00     0.314 C 
ATOM     12  O   UNL d   1      11.867   1.765  -8.744  0.00  0.00    -0.262 OA
ATOM     13  H   UNL d   1      11.901   4.765  -9.838  0.00  0.00     0.169 HD
BRANCH  11  14
ATOM     14  C   UNL d   1       9.976   3.141  -9.143  0.00  0.00     0.309 C 
ATOM     15  N   UNL d   1       9.198   2.076  -8.712  0.00  0.00    -0.351 N 
ATOM     16  H   UNL d   1       9.671   1.206  -8.475  0.00  0.00     0.162 HD
ATOM     17  O   UNL d   1       9.564   4.254  -9.438  0.00  0.00    -0.262 OA
BRANCH  15  18
ATOM     18  C   UNL d   1       7.775   2.234  -8.508  0.00  0.00     0.153 C 
BRANCH  18  19
ATOM     19  C   UNL d   1       7.072   0.981  -7.961  0.00  0.00     0.292 C 
BRANCH  19  20
ATOM     20  N   UNL d   1       5.624   1.188  -7.717  0.00  0.00     0.093 N 
ATOM     21  C   UNL d   1       5.006  -0.056  -7.176  0.00  0.00     0.292 C 
ATOM     22  C   UNL d   1       5.518  -0.454  -5.761  0.00  0.00     0.153 C 
ATOM     23  N   UNL d   1       5.382   0.679  -4.830  0.00  0.00    -0.378 N 
ATOM     24  C   UNL d   1       5.917   1.954  -5.306  0.00  0.00     0.153 C 
ATOM     25  C   UNL d   1       5.375   2.268  -6.720  0.00  0.00     0.292 C 
BRANCH  23  26
ATOM     26  C   UNL d   1       4.659   0.556  -3.666  0.00  0.00     0.030 A 
ATOM     27  C   UNL d   1       5.027  -0.391  -2.703  0.00  0.00     0.032 A 
ATOM     28  C   UNL d   1       4.245  -0.631  -1.564  0.00  0.00     0.039 A 
ATOM     29  C   UNL d   1       3.104   0.128  -1.317  0.00  0.00     0.068 A 
ATOM     30  C   UNL d   1       2.749   1.114  -2.233  0.00  0.00     0.039 A 
ATOM     31  C   UNL d   1       3.523   1.327  -3.390  0.00  0.00     0.032 A 
BRANCH  29  32
ATOM     32  O   UNL d   1       2.480  -0.082  -0.118  0.00  0.00    -0.356 OA
ATOM     33  C   UNL d   1       1.058   0.013  -0.129  0.00  0.00     0.210 C 
ENDBRANCH  29  32
ENDBRANCH  23  26
ENDBRANCH  19  20
ENDBRANCH  18  19
ENDBRANCH  15  18
ENDBRANCH  11  14
ENDBRANCH   1  10
TORSDOF 7
