@<TRIPOS>MOLECULE
*****
 72 74 0 0 0
SMALL
GASTEIGER

@<TRIPOS>ATOM
      1 C           0.9809   -0.0488    0.0826 C.3     1  UNL1       -0.0626
      2 C           2.5081   -0.0368    0.0869 C.3     1  UNL1       -0.0436
      3 C           3.0091    1.3100    0.6086 C.3     1  UNL1       -0.0626
      4 C           3.0403   -1.2104    0.9246 C.3     1  UNL1       -0.0163
      5 C           4.5631   -1.2535    0.9250 C.3     1  UNL1        0.0898
      6 O           5.0018   -2.3989    1.6475 O.3     1  UNL1       -0.4919
      7 C           6.3566   -2.4559    1.8485 C.ar    1  UNL1        0.1212
      8 C           6.9025   -3.7400    1.8441 C.ar    1  UNL1       -0.0199
      9 C           8.2404   -3.9242    2.1665 C.ar    1  UNL1       -0.0576
     10 C           9.0380   -2.8116    2.4411 C.ar    1  UNL1       -0.0494
     11 C           8.5022   -1.5033    2.4529 C.ar    1  UNL1        0.0405
     12 C           9.4117   -0.3814    2.8555 C.2     1  UNL1        0.2496
     13 O          10.5731   -0.7225    3.0687 O.2     1  UNL1       -0.2698
     14 N           8.9362    0.9536    2.9599 N.am    1  UNL1       -0.2636
     15 C           9.6812    2.0858    3.3536 C.2     1  UNL1        0.1401
     16 S          11.2868    1.9814    3.8912 S.2     1  UNL1       -0.0183
     17 N           9.0554    3.3514    3.1237 N.am    1  UNL1       -0.2988
     18 C           9.9840    4.4802    2.8638 C.3     1  UNL1        0.0301
     19 C           9.3692    5.4131    1.8462 C.3     1  UNL1        0.0274
     20 N           8.1734    5.9896    2.3734 N.am    1  UNL1       -0.3123
     21 C           7.2992    5.2860    3.1454 C.2     1  UNL1        0.2341
     22 O           6.2300    5.8486    3.3691 O.2     1  UNL1       -0.2738
     23 C           7.7523    3.8741    3.7457 C.3     1  UNL1        0.1113
     24 C           6.5738    2.9058    3.6670 C.3     1  UNL1        0.0719
     25 C           5.3270    3.4274    4.3454 C.2     1  UNL1        0.3094
     26 O           5.2980    4.3240    5.1829 O.2     1  UNL1       -0.2508
     27 O           4.2370    2.6990    3.9768 O.3     1  UNL1       -0.4646
     28 C           3.0264    3.2150    4.5555 C.3     1  UNL1        0.0928
     29 C           1.9348    2.1867    4.3885 C.3     1  UNL1       -0.0146
     30 C           0.5810    2.6655    4.9058 C.3     1  UNL1       -0.0246
     31 C          -0.5028    1.6261    4.7258 C.ar    1  UNL1       -0.0472
     32 C          -1.8462    2.0140    4.6561 C.ar    1  UNL1       -0.0586
     33 C          -2.8549    1.0471    4.6426 C.ar    1  UNL1       -0.0615
     34 C          -2.5319   -0.3096    4.6199 C.ar    1  UNL1       -0.0617
     35 C          -1.2028   -0.7061    4.6526 C.ar    1  UNL1       -0.0615
     36 C          -0.2019    0.2543    4.7210 C.ar    1  UNL1       -0.0586
     37 C           7.1527   -1.3403    2.1537 C.ar    1  UNL1       -0.0078
     38 H           0.5905    0.7703   -0.5301 H       1  UNL1        0.0232
     39 H           0.5817    0.0666    1.0964 H       1  UNL1        0.0232
     40 H           0.5996   -0.9889   -0.3286 H       1  UNL1        0.0232
     41 H           2.8587   -0.1555   -0.9458 H       1  UNL1        0.0297
     42 H           2.7043    1.4430    1.6438 H       1  UNL1        0.0232
     43 H           2.6067    2.1407    0.0230 H       1  UNL1        0.0232
     44 H           4.0986    1.3927    0.5771 H       1  UNL1        0.0232
     45 H           2.6506   -2.1618    0.5423 H       1  UNL1        0.0300
     46 H           2.6799   -1.1367    1.9601 H       1  UNL1        0.0300
     47 H           4.9196   -0.3389    1.3989 H       1  UNL1        0.0696
     48 H           4.9430   -1.3103   -0.1012 H       1  UNL1        0.0696
     49 H           6.2812   -4.5972    1.5946 H       1  UNL1        0.0654
     50 H           8.6576   -4.9271    2.2274 H       1  UNL1        0.0619
     51 H          10.0913   -2.9806    2.6691 H       1  UNL1        0.0625
     52 H           8.0054    1.1296    2.6322 H       1  UNL1        0.1568
     53 H          10.9357    4.1461    2.4489 H       1  UNL1        0.0480
     54 H          10.1753    4.9935    3.8184 H       1  UNL1        0.0480
     55 H           9.1018    4.8605    0.9389 H       1  UNL1        0.0477
     56 H          10.0494    6.2272    1.5892 H       1  UNL1        0.0477
     57 H           7.8074    6.8614    2.0081 H       1  UNL1        0.1488
     58 H           7.9893    4.0684    4.8036 H       1  UNL1        0.0602
     59 H           6.8217    1.9742    4.1832 H       1  UNL1        0.0401
     60 H           6.3620    2.6966    2.6124 H       1  UNL1        0.0401
     61 H           2.7639    4.1403    4.0352 H       1  UNL1        0.0697
     62 H           3.1576    3.4072    5.6275 H       1  UNL1        0.0697
     63 H           2.2693    1.2843    4.9119 H       1  UNL1        0.0301
     64 H           1.8285    1.9121    3.3393 H       1  UNL1        0.0301
     65 H           0.3016    3.5902    4.3833 H       1  UNL1        0.0314
     66 H           0.6522    2.9032    5.9745 H       1  UNL1        0.0314
     67 H          -2.1202    3.0668    4.6252 H       1  UNL1        0.0620
     68 H          -3.8979    1.3502    4.6663 H       1  UNL1        0.0618
     69 H          -3.3143   -1.0607    4.5812 H       1  UNL1        0.0618
     70 H          -0.9313   -1.7575    4.6511 H       1  UNL1        0.0618
     71 H           0.8199   -0.1055    4.7773 H       1  UNL1        0.0620
     72 H           6.7125   -0.3584    2.1983 H       1  UNL1        0.0662
@<TRIPOS>BOND
     1     1     2    1
     2     2     3    1
     3     2     4    1
     4     4     5    1
     5     5     6    1
     6     6     7    1
     7     7     8   ar
     8     8     9   ar
     9     9    10   ar
    10    10    11   ar
    11    11    12    1
    12    12    13    2
    13    12    14   am
    14    14    15    1
    15    15    16    2
    16    15    17    1
    17    17    18    1
    18    18    19    1
    19    19    20    1
    20    20    21   am
    21    21    22    2
    22    21    23    1
    23    17    23    1
    24    23    24    1
    25    24    25    1
    26    25    26    2
    27    25    27    1
    28    27    28    1
    29    28    29    1
    30    29    30    1
    31    30    31    1
    32    31    32   ar
    33    32    33   ar
    34    33    34   ar
    35    34    35   ar
    36    35    36   ar
    37    31    36   ar
    38    11    37   ar
    39     7    37   ar
    40     1    38    1
    41     1    39    1
    42     1    40    1
    43     2    41    1
    44     3    42    1
    45     3    43    1
    46     3    44    1
    47     4    45    1
    48     4    46    1
    49     5    47    1
    50     5    48    1
    51     8    49    1
    52     9    50    1
    53    10    51    1
    54    14    52    1
    55    18    53    1
    56    18    54    1
    57    19    55    1
    58    19    56    1
    59    20    57    1
    60    23    58    1
    61    24    59    1
    62    24    60    1
    63    28    61    1
    64    28    62    1
    65    29    63    1
    66    29    64    1
    67    30    65    1
    68    30    66    1
    69    32    67    1
    70    33    68    1
    71    34    69    1
    72    35    70    1
    73    36    71    1
    74    37    72    1
