@<TRIPOS>MOLECULE
*****
 45 45 0 0 0
SMALL
GASTEIGER

@<TRIPOS>ATOM
      1 C           1.0735    0.1457   -0.0606 C.3     1  UNL1       -0.0495
      2 C           2.5997    0.1826   -0.0725 C.3     1  UNL1        0.0103
      3 N           3.1685    1.4693   -0.4875 N.am    1  UNL1       -0.2985
      4 C           4.5378    1.6690   -0.5523 C.2     1  UNL1        0.3159
      5 O           5.3551    0.7954   -0.2703 O.2     1  UNL1       -0.2513
      6 N           4.9264    2.9402   -0.9613 N.am    1  UNL1       -0.2182
      7 N           6.3310    3.2617   -1.0668 N.am    1  UNL1       -0.2319
      8 C           6.7342    4.5331   -1.4778 C.2     1  UNL1        0.2463
      9 O           5.9177    5.4168   -1.7575 O.2     1  UNL1       -0.2726
     10 C           8.2730    4.7909   -1.5672 C.3     1  UNL1        0.0899
     11 N           8.6063    6.1569   -2.0130 N.am    1  UNL1       -0.3027
     12 C           9.9046    6.5947   -2.2274 C.2     1  UNL1        0.2445
     13 O          10.8940    5.8792   -2.0625 O.2     1  UNL1       -0.2702
     14 C          10.0869    8.0209   -2.6460 C.ar    1  UNL1        0.0369
     15 C          11.0751    8.4221   -3.5621 C.ar    1  UNL1       -0.0462
     16 C          11.2940    9.7926   -3.8292 C.ar    1  UNL1       -0.0192
     17 C          10.4749   10.7679   -3.2514 C.ar    1  UNL1        0.1209
     18 O          10.7349   12.0778   -3.5810 O.3     1  UNL1       -0.4894
     19 C           9.8626   13.0915   -3.0422 C.3     1  UNL1        0.0946
     20 C          10.0936   13.2864   -1.5400 C.3     1  UNL1       -0.0281
     21 C          10.1645   14.4331   -3.7217 C.3     1  UNL1       -0.0281
     22 C           9.4725   10.3457   -2.3763 C.ar    1  UNL1       -0.0192
     23 C           9.3098    9.0008   -2.0373 C.ar    1  UNL1       -0.0462
     24 H           0.7124   -0.8413    0.2582 H       1  UNL1        0.0245
     25 H           0.6593    0.3416   -1.0548 H       1  UNL1        0.0245
     26 H           0.6593    0.8861    0.6312 H       1  UNL1        0.0245
     27 H           2.9736   -0.5943   -0.7494 H       1  UNL1        0.0460
     28 H           2.9735   -0.0519    0.9309 H       1  UNL1        0.0460
     29 H           2.5366    2.2172   -0.7304 H       1  UNL1        0.1503
     30 H           4.2753    3.6800   -1.2036 H       1  UNL1        0.1744
     31 H           6.9712    2.5057   -0.8246 H       1  UNL1        0.1729
     32 H           8.7275    4.0915   -2.2756 H       1  UNL1        0.0558
     33 H           8.7298    4.6481   -0.5820 H       1  UNL1        0.0558
     34 H           7.8228    6.7643   -2.2329 H       1  UNL1        0.1495
     35 H          11.6830    7.6785   -4.0742 H       1  UNL1        0.0626
     36 H          12.1091   10.0936   -4.4873 H       1  UNL1        0.0654
     37 H           8.8182   12.8407   -3.2728 H       1  UNL1        0.0727
     38 H          11.1366   13.5543   -1.3503 H       1  UNL1        0.0265
     39 H           9.9212   12.3885   -0.9462 H       1  UNL1        0.0265
     40 H           9.4323   14.0612   -1.1424 H       1  UNL1        0.0265
     41 H          11.2063   14.7290   -3.5551 H       1  UNL1        0.0265
     42 H           9.5191   15.2244   -3.3197 H       1  UNL1        0.0265
     43 H          10.0126   14.3852   -4.8040 H       1  UNL1        0.0265
     44 H           8.7959   11.0392   -1.8952 H       1  UNL1        0.0654
     45 H           8.5862    8.7441   -1.2706 H       1  UNL1        0.0626
@<TRIPOS>BOND
     1     1     2    1
     2     2     3    1
     3     3     4   am
     4     4     5    2
     5     4     6   am
     6     6     7    1
     7     7     8   am
     8     8     9    2
     9     8    10    1
    10    10    11    1
    11    11    12   am
    12    12    13    2
    13    12    14    1
    14    14    15   ar
    15    15    16   ar
    16    16    17   ar
    17    17    18    1
    18    18    19    1
    19    19    20    1
    20    19    21    1
    21    17    22   ar
    22    22    23   ar
    23    14    23   ar
    24     1    24    1
    25     1    25    1
    26     1    26    1
    27     2    27    1
    28     2    28    1
    29     3    29    1
    30     6    30    1
    31     7    31    1
    32    10    32    1
    33    10    33    1
    34    11    34    1
    35    15    35    1
    36    16    36    1
    37    19    37    1
    38    20    38    1
    39    20    39    1
    40    20    40    1
    41    21    41    1
    42    21    42    1
    43    21    43    1
    44    22    44    1
    45    23    45    1
