@<TRIPOS>MOLECULE
*****
 70 73 0 0 0
SMALL
GASTEIGER

@<TRIPOS>ATOM
      1 CG1        -1.2210    2.9145   -5.3843 C.3     1  VAL1       -0.0605
      2 CB         -1.7063    4.2676   -5.8731 C.3     1  VAL1       -0.0197
      3 CG2        -0.3743    4.9495   -6.0542 C.3     1  VAL1       -0.0605
      4 CA         -2.7637    4.9857   -4.9494 C.3     1  VAL1        0.1017
      5 N          -3.6416    3.9941   -4.3360 N.am    1  VAL1       -0.3020
      6 C          -4.5282    3.3600   -5.1626 C.2     0  UNK0        0.2371
      7 O          -4.5147    3.5510   -6.3791 O.2     0  UNK0       -0.2735
      8 C          -5.3943    2.3100   -4.5061 C.3     0  UNK0        0.1220
      9 C          -6.2748    1.7270   -5.6087 C.3     0  UNK0        0.0040
     10 C          -5.8766    0.3818   -6.0548 C.ar    0  UNK0       -0.0199
     11 C          -4.8086   -0.3941   -5.6684 C.ar    0  UNK0        0.0060
     12 N          -4.9254   -1.5910   -6.3097 N.ar    0  UNK0       -0.3604
     13 C          -6.0038   -1.5702   -7.1629 C.ar    0  UNK0        0.0467
     14 C          -6.4786   -2.5281   -8.0547 C.ar    0  UNK0       -0.0378
     15 C          -7.5967   -2.1891   -8.8286 C.ar    0  UNK0       -0.0598
     16 C          -8.2365   -0.9581   -8.6943 C.ar    0  UNK0       -0.0611
     17 C          -7.7663   -0.0226   -7.7784 C.ar    0  UNK0       -0.0523
     18 C          -6.6215   -0.3363   -7.0198 C.ar    0  UNK0        0.0029
     19 N          -6.1508    2.8153   -3.3640 N.ar    0  UNK0       -0.2482
     20 C          -5.5959    2.6869   -2.0979 C.ar    0  UNK0        0.3305
     21 O          -4.4758    2.2294   -1.8727 O.2     0  UNK0       -0.2464
     22 N          -6.3713    3.0971   -1.0476 N.ar    0  UNK0       -0.3070
     23 C          -7.6216    3.6873   -1.2061 C.ar    0  UNK0        0.0556
     24 C          -8.3101    4.2034   -0.1197 C.ar    0  UNK0       -0.0375
     25 C          -9.4481    4.9813   -0.3525 C.ar    0  UNK0       -0.0598
     26 C         -10.0429    5.0151   -1.6151 C.ar    0  UNK0       -0.0609
     27 C          -9.4196    4.3880   -2.6779 C.ar    0  UNK0       -0.0474
     28 C          -8.1599    3.8287   -2.4753 C.ar    0  UNK0        0.0630
     29 C          -7.3536    3.4497   -3.6186 C.ar    0  UNK0        0.2650
     30 O          -7.8179    3.7058   -4.7409 O.2     0  UNK0       -0.2668
     31 C          -3.6881    6.0847   -5.6316 C.2     1  VAL1        0.2342
     32 O          -4.9261    6.1018   -5.5095 O.2     1  VAL1       -0.2738
     33 N          -3.1840    7.0951   -6.3829 N.am    2  THR2       -0.3033
     34 CA         -1.8165    7.6930   -6.4722 C.3     2  THR2        0.0882
     35 C          -0.8250    7.5819   -5.2436 C.2     2  THR2        0.0644
     36 O           0.3830    7.8595   -5.4888 O.co2   2  THR2       -0.5478
     37 OXT        -1.3078    7.2053   -4.1411 O.co2   2  THR2       -0.5478
     38 CB         -1.3385    7.5560   -7.9653 C.3     2  THR2        0.0759
     39 CG2         0.1229    7.2094   -8.2825 C.3     2  THR2       -0.0368
     40 OG1        -1.5955    8.8110   -8.6248 O.3     2  THR2       -0.3899
     41 HG11       -0.4466    2.5362   -6.0673 H       1  VAL1        0.0233
     42 HG12       -2.0117    2.1738   -5.3511 H       1  VAL1        0.0233
     43 HG13       -0.7536    3.0347   -4.4004 H       1  VAL1        0.0233
     44 HB         -2.1446    4.1754   -6.8763 H       1  VAL1        0.0318
     45 HG21        0.1375    5.1906   -5.1203 H       1  VAL1        0.0233
     46 HG22       -0.6206    5.8120   -6.6045 H       1  VAL1        0.0233
     47 HG23        0.3405    4.4223   -6.6979 H       1  VAL1        0.0233
     48 HA         -2.3636    5.4266   -4.0465 H       1  VAL1        0.0597
     49 H          -3.2942    3.5218   -3.5067 H       1  VAL1        0.1495
     50 H          -4.6916    1.5720   -4.1085 H       0  UNK0        0.0630
     51 H          -7.3100    1.6085   -5.2793 H       0  UNK0        0.0339
     52 H          -6.3297    2.3746   -6.4953 H       0  UNK0        0.0339
     53 H          -3.9886   -0.2058   -4.9870 H       0  UNK0        0.0810
     54 H          -4.2883   -2.3627   -6.1900 H       0  UNK0        0.1653
     55 H          -5.9863   -3.4854   -8.1613 H       0  UNK0        0.0638
     56 H          -7.9688   -2.9001   -9.5590 H       0  UNK0        0.0618
     57 H          -9.0973   -0.7116   -9.3092 H       0  UNK0        0.0618
     58 H          -8.2544    0.9447   -7.6720 H       0  UNK0        0.0624
     59 H          -5.9412    3.0289   -0.1342 H       0  UNK0        0.1704
     60 H          -7.9497    4.0601    0.8931 H       0  UNK0        0.0638
     61 H          -9.8626    5.5837    0.4494 H       0  UNK0        0.0618
     62 H         -10.9704    5.5522   -1.7847 H       0  UNK0        0.0618
     63 H          -9.8625    4.3956   -3.6721 H       0  UNK0        0.0626
     64 H          -3.9216    7.6068   -6.8527 H       2  THR2        0.1495
     65 HA         -2.0732    8.7510   -6.3329 H       2  THR2        0.0586
     66 HB         -1.9658    6.8163   -8.4875 H       2  THR2        0.0613
     67 HG21        0.8038    7.8773   -7.7563 H       2  THR2        0.0255
     68 HG22        0.3356    7.3200   -9.3479 H       2  THR2        0.0255
     69 HG23        0.4112    6.1803   -8.0670 H       2  THR2        0.0255
     70 HG1        -1.0307    9.4438   -8.1434 H       2  THR2        0.2099
@<TRIPOS>UNITY_ATOM_ATTR
37 1
charge -1
@<TRIPOS>BOND
     1     1     2    1
     2     2     3    1
     3     5     6   am
     4     6     7    2
     5     9    10    1
     6    10    11   ar
     7    11    12   ar
     8    12    13   ar
     9    13    14   ar
    10    14    15   ar
    11    15    16   ar
    12    16    17   ar
    13    17    18   ar
    14    10    18   ar
    15    13    18   ar
    16     8    19    1
    17    19    20   ar
    18    20    21    2
    19    20    22   ar
    20    22    23   ar
    21    23    24   ar
    22    24    25   ar
    23    25    26   ar
    24    26    27   ar
    25    27    28   ar
    26    23    28   ar
    27    28    29   ar
    28    19    29   ar
    29    29    30    2
    30     4    31    1
    31    31    32    2
    32    31    33   am
    33    35    36   ar
    34    35    37   ar
    35    38    40    1
    36     8     9    1
    37     8     6    1
    38     4     5    1
    39     4     2    1
    40    34    35    1
    41    34    33    1
    42    38    39    1
    43    38    34    1
    44     1    41    1
    45     1    42    1
    46     1    43    1
    47     2    44    1
    48     3    45    1
    49     3    46    1
    50     3    47    1
    51     4    48    1
    52     5    49    1
    53     8    50    1
    54     9    51    1
    55     9    52    1
    56    11    53    1
    57    12    54    1
    58    14    55    1
    59    15    56    1
    60    16    57    1
    61    17    58    1
    62    22    59    1
    63    24    60    1
    64    25    61    1
    65    26    62    1
    66    27    63    1
    67    33    64    1
    68    34    65    1
    69    38    66    1
    70    39    67    1
    71    39    68    1
    72    39    69    1
    73    40    70    1
