REMARK  5 active torsions:
REMARK  status: ('A' for Active; 'I' for Inactive)
REMARK    1  A    between atoms: O_2  and  C_3 
REMARK    2  A    between atoms: C_10  and  N_11 
REMARK       I    between atoms: N_11  and  C_12 
REMARK    3  A    between atoms: C_12  and  C_14 
REMARK    4  A    between atoms: C_17  and  C_18 
REMARK    5  A    between atoms: C_18  and  N_19 
ROOT
ATOM      1  N   UNL d   1       1.720  -2.278  -1.916  0.00  0.00    -0.320 N 
ATOM      2  C   UNL d   1       1.239  -3.277  -2.739  0.00  0.00     0.256 C 
ATOM      3  O   UNL d   1       1.667  -4.427  -2.842  0.00  0.00    -0.267 OA
ATOM      4  H   UNL d   1       1.298  -1.369  -2.004  0.00  0.00     0.169 HD
ENDROOT
BRANCH   2   5
ATOM      5  C   UNL d   1       0.073  -2.961  -3.591  0.00  0.00     0.032 A 
ATOM      6  C   UNL d   1      -0.847  -3.991  -3.826  0.00  0.00     0.018 A 
ATOM      7  C   UNL d   1      -1.840  -3.850  -4.798  0.00  0.00     0.015 A 
ATOM      8  C   UNL d   1      -1.999  -2.638  -5.483  0.00  0.00     0.001 A 
ATOM      9  C   UNL d   1      -1.070  -1.608  -5.227  0.00  0.00     0.015 A 
ATOM     10  C   UNL d   1      -0.038  -1.763  -4.290  0.00  0.00     0.018 A 
BRANCH   8  11
ATOM     11  C   UNL d   1      -3.155  -2.427  -6.421  0.00  0.00     0.104 C 
ATOM     12  S   UNL d   1      -3.500  -1.006  -7.240  0.00  0.00    -0.060 SA
BRANCH  11  13
ATOM     13  N   UNL d   1      -4.050  -3.456  -6.598  0.00  0.00    -0.390 N 
ATOM     14  H   UNL d   1      -4.013  -4.361  -6.154  0.00  0.00     0.157 HD
ATOM     15  H   UNL d   1      -4.856  -3.285  -7.191  0.00  0.00     0.157 HD
ENDBRANCH  11  13
ENDBRANCH   8  11
ENDBRANCH   2   5
BRANCH   1  16
ATOM     16  C   UNL d   1       2.759  -2.405  -0.955  0.00  0.00     0.069 A 
ATOM     17  C   UNL d   1       3.532  -3.577  -0.910  0.00  0.00     0.041 A 
ATOM     18  C   UNL d   1       4.626  -3.757  -0.051  0.00  0.00    -0.038 A 
ATOM     19  C   UNL d   1       4.952  -2.714   0.810  0.00  0.00     0.042 A 
ATOM     20  C   UNL d   1       5.361  -5.066  -0.157  0.00  0.00     0.050 C 
ATOM     21  C   UNL d   1       4.197  -1.528   0.797  0.00  0.00     0.063 A 
ATOM     22 CL   UNL d   1       6.275  -2.838   1.914  0.00  0.00    -0.084 Cl
ATOM     23  C   UNL d   1       3.089  -1.368  -0.064  0.00  0.00     0.096 A 
BRANCH  23  24
ATOM     24  O   UNL d   1       2.499  -0.126  -0.032  0.00  0.00    -0.354 OA
ATOM     25  C   UNL d   1       1.083  -0.075   0.141  0.00  0.00     0.210 C 
ENDBRANCH  23  24
ENDBRANCH   1  16
TORSDOF 5
