@<TRIPOS>MOLECULE
*****
 57 58 0 0 0
SMALL
GASTEIGER

@<TRIPOS>ATOM
      1 C           1.0479   -0.0378    0.0768 C.3     1  UNL1       -0.0653
      2 C           2.5712   -0.0373    0.0776 C.3     1  UNL1       -0.0555
      3 C           3.1099    0.8623    1.1835 C.3     1  UNL1       -0.0450
      4 C           4.6467    0.9147    1.2365 C.3     1  UNL1        0.0243
      5 C           5.0797    1.8464    2.3652 C.2     1  UNL1        0.2172
      6 O           4.2396    2.4053    3.0703 O.2     1  UNL1       -0.2755
      7 N           6.4493    2.0339    2.5123 N.am    1  UNL1       -0.2855
      8 C           7.0137    2.7429    3.6094 C.ar    1  UNL1        0.0334
      9 C           8.2133    3.4477    3.4884 C.ar    1  UNL1       -0.0398
     10 C           8.8095    4.0489    4.6285 C.ar    1  UNL1       -0.0478
     11 C           8.2027    3.9951    5.9024 C.ar    1  UNL1        0.0383
     12 C           8.8290    4.7258    7.0855 C.2     1  UNL1        0.2601
     13 O           9.8833    5.3537    6.9405 O.2     1  UNL1       -0.2687
     14 N           8.1681    4.6790    8.3071 N.am    1  UNL1       -0.2311
     15 N           8.6386    5.3685    9.4980 N.am    1  UNL1       -0.2453
     16 C           7.8901    5.2357   10.6853 C.2     1  UNL1        0.1533
     17 S           6.4684    4.3198   10.6681 S.2     1  UNL1       -0.0170
     18 N           8.4085    5.9032   11.8204 N.am    1  UNL1       -0.2627
     19 C           7.8645    5.8738   13.1282 C.2     1  UNL1        0.2497
     20 O           6.8539    5.2484   13.4575 O.2     1  UNL1       -0.2698
     21 C           8.4636    6.6683   14.2418 C.ar    1  UNL1        0.0405
     22 C           8.3329    6.1983   15.5653 C.ar    1  UNL1       -0.0494
     23 C           8.5711    7.0422   16.6563 C.ar    1  UNL1       -0.0576
     24 C           8.9997    8.3492   16.4346 C.ar    1  UNL1       -0.0199
     25 C           9.1505    8.8212   15.1261 C.ar    1  UNL1        0.1212
     26 O           9.5100   10.1415   15.0145 O.3     1  UNL1       -0.4922
     27 C           9.5690   10.6407   13.6778 C.3     1  UNL1        0.0868
     28 C           9.9538   12.1022   13.7000 C.3     1  UNL1       -0.0307
     29 C           8.8841    7.9779   14.0344 C.ar    1  UNL1       -0.0078
     30 C           7.0042    3.2819    6.0016 C.ar    1  UNL1       -0.0478
     31 C           6.4194    2.6825    4.8721 C.ar    1  UNL1       -0.0398
     32 H           0.6664   -0.6842   -0.7191 H       1  UNL1        0.0230
     33 H           0.6550    0.9714   -0.0868 H       1  UNL1        0.0230
     34 H           0.6547   -0.4045    1.0310 H       1  UNL1        0.0230
     35 H           2.9325    0.3114   -0.8958 H       1  UNL1        0.0263
     36 H           2.9328   -1.0614    0.2195 H       1  UNL1        0.0263
     37 H           2.7220    0.5139    2.1506 H       1  UNL1        0.0270
     38 H           2.7173    1.8783    1.0417 H       1  UNL1        0.0270
     39 H           5.0405    1.2826    0.2832 H       1  UNL1        0.0358
     40 H           5.0448   -0.0901    1.4186 H       1  UNL1        0.0358
     41 H           7.0770    1.7020    1.7898 H       1  UNL1        0.1548
     42 H           8.6719    3.6007    2.5123 H       1  UNL1        0.0636
     43 H           9.7619    4.5650    4.5072 H       1  UNL1        0.0626
     44 H           7.2873    4.1864    8.4436 H       1  UNL1        0.1731
     45 H           9.5027    5.8929    9.3752 H       1  UNL1        0.1718
     46 H           9.2686    6.4192   11.6992 H       1  UNL1        0.1569
     47 H           7.9856    5.1828   15.7546 H       1  UNL1        0.0625
     48 H           8.3782    6.6975   17.6715 H       1  UNL1        0.0619
     49 H           9.1882    9.0055   17.2834 H       1  UNL1        0.0654
     50 H           8.5891   10.5446   13.1933 H       1  UNL1        0.0694
     51 H          10.3276   10.0876   13.1114 H       1  UNL1        0.0694
     52 H           9.2091   12.6878   14.2469 H       1  UNL1        0.0262
     53 H          10.0283   12.4874   12.6787 H       1  UNL1        0.0262
     54 H          10.9151   12.2372   14.2037 H       1  UNL1        0.0262
     55 H           8.9162    8.3530   13.0218 H       1  UNL1        0.0662
     56 H           6.4817    3.1451    6.9404 H       1  UNL1        0.0626
     57 H           5.4946    2.1276    5.0145 H       1  UNL1        0.0636
@<TRIPOS>BOND
     1     1     2    1
     2     2     3    1
     3     3     4    1
     4     4     5    1
     5     5     6    2
     6     5     7   am
     7     7     8    1
     8     8     9   ar
     9     9    10   ar
    10    10    11   ar
    11    11    12    1
    12    12    13    2
    13    12    14   am
    14    14    15    1
    15    15    16    1
    16    16    17    2
    17    16    18    1
    18    18    19   am
    19    19    20    2
    20    19    21    1
    21    21    22   ar
    22    22    23   ar
    23    23    24   ar
    24    24    25   ar
    25    25    26    1
    26    26    27    1
    27    27    28    1
    28    25    29   ar
    29    21    29   ar
    30    11    30   ar
    31    30    31   ar
    32     8    31   ar
    33     1    32    1
    34     1    33    1
    35     1    34    1
    36     2    35    1
    37     2    36    1
    38     3    37    1
    39     3    38    1
    40     4    39    1
    41     4    40    1
    42     7    41    1
    43     9    42    1
    44    10    43    1
    45    14    44    1
    46    15    45    1
    47    18    46    1
    48    22    47    1
    49    23    48    1
    50    24    49    1
    51    27    50    1
    52    27    51    1
    53    28    52    1
    54    28    53    1
    55    28    54    1
    56    29    55    1
    57    30    56    1
    58    31    57    1
