REMARK  10 active torsions:
REMARK  status: ('A' for Active; 'I' for Inactive)
REMARK    1  A    between atoms: C_8  and  N_9 
REMARK       I    between atoms: N_9  and  C_10 
REMARK    2  A    between atoms: C_10  and  C_12 
REMARK    3  A    between atoms: C_12  and  O_13 
REMARK    4  A    between atoms: O_13  and  C_14 
REMARK    5  A    between atoms: C_19  and  C_20 
REMARK    6  A    between atoms: N_21  and  N_22 
REMARK       I    between atoms: N_22  and  C_23 
REMARK    7  A    between atoms: C_23  and  C_25 
REMARK       I    between atoms: C_25  and  N_27 
REMARK    8  A    between atoms: N_27  and  C_28 
REMARK    9  A    between atoms: C_28  and  C_29 
REMARK   10  A    between atoms: C_29  and  C_30 
ROOT
ATOM      1  C   UNL d   1      -1.787   7.274  -0.049  0.00  0.00     0.081 A 
ATOM      2  C   UNL d   1      -1.061   8.231  -0.796  0.00  0.00     0.037 A 
ATOM      3  C   UNL d   1      -1.312   9.589  -0.657  0.00  0.00     0.003 A 
ATOM      4  C   UNL d   1      -2.329   9.988   0.201  0.00  0.00     0.001 A 
ATOM      5  C   UNL d   1      -3.016   9.039   0.989  0.00  0.00     0.016 A 
ATOM      6  C   UNL d   1      -2.716   7.667   0.920  0.00  0.00     0.016 A 
ENDROOT
BRANCH   6   7
ATOM      7  C   UNL d   1      -3.462   6.707   1.828  0.00  0.00     0.153 C 
ATOM      8  N   UNL d   1      -3.025   5.508   2.090  0.00  0.00    -0.183 NA
BRANCH   8   9
ATOM      9  N   UNL d   1      -3.857   4.524   2.615  0.00  0.00    -0.239 N 
ATOM     10  C   UNL d   1      -3.414   3.179   2.540  0.00  0.00     0.329 C 
ATOM     11  O   UNL d   1      -2.348   2.794   2.130  0.00  0.00    -0.261 OA
ATOM     12  H   UNL d   1      -4.798   4.738   2.922  0.00  0.00     0.192 HD
BRANCH  10  13
ATOM     13  C   UNL d   1      -4.396   2.084   3.008  0.00  0.00     0.311 C 
ATOM     14  O   UNL d   1      -5.396   2.398   3.635  0.00  0.00    -0.262 OA
ATOM     15  N   UNL d   1      -4.026   0.763   2.693  0.00  0.00    -0.353 N 
ATOM     16  H   UNL d   1      -3.107   0.623   2.276  0.00  0.00     0.162 HD
BRANCH  15  17
ATOM     17  C   UNL d   1      -4.660  -0.331   3.409  0.00  0.00     0.128 C 
BRANCH  17  18
ATOM     18  C   UNL d   1      -4.151  -1.751   3.111  0.00  0.00     0.058 C 
BRANCH  18  19
ATOM     19  C   UNL d   1      -4.844  -2.842   3.914  0.00  0.00    -0.057 A 
ATOM     20  C   UNL d   1      -5.675  -2.564   5.012  0.00  0.00     0.007 A 
ATOM     21  C   UNL d   1      -6.117  -3.584   5.855  0.00  0.00     0.001 A 
ATOM     22  C   UNL d   1      -5.818  -4.909   5.559  0.00  0.00     0.000 A 
ATOM     23  C   UNL d   1      -5.052  -5.211   4.436  0.00  0.00     0.001 A 
ATOM     24  C   UNL d   1      -4.561  -4.186   3.623  0.00  0.00     0.007 A 
ENDBRANCH  18  19
ENDBRANCH  17  18
ENDBRANCH  15  17
ENDBRANCH  10  13
ENDBRANCH   8   9
ENDBRANCH   6   7
BRANCH   1  25
ATOM     25  O   UNL d   1      -1.421   6.013  -0.349  0.00  0.00    -0.341 OA
BRANCH  25  26
ATOM     26  C   UNL d   1      -2.374   4.956  -0.563  0.00  0.00     0.278 C 
BRANCH  26  27
ATOM     27  C   UNL d   1      -1.508   3.731  -0.375  0.00  0.00     0.246 C 
ATOM     28  N   UNL d   1      -2.118   2.469  -0.451  0.00  0.00    -0.325 N 
ATOM     29  H   UNL d   1      -3.126   2.486  -0.361  0.00  0.00     0.169 HD
ATOM     30  O   UNL d   1      -0.334   3.983  -0.122  0.00  0.00    -0.271 OA
BRANCH  28  31
ATOM     31  C   UNL d   1      -1.517   1.163  -0.242  0.00  0.00     0.042 A 
ATOM     32  C   UNL d   1      -2.384   0.042  -0.164  0.00  0.00     0.030 A 
ATOM     33  C   UNL d   1      -1.881  -1.267  -0.030  0.00  0.00     0.004 A 
ATOM     34  C   UNL d   1      -0.511  -1.487   0.016  0.00  0.00     0.024 A 
ATOM     35  C   UNL d   1       0.356  -0.408  -0.011  0.00  0.00     0.042 A 
ATOM     36  C   UNL d   1      -0.127   0.908  -0.109  0.00  0.00    -0.013 A 
ATOM     37 CL   UNL d   1       2.052  -0.767   0.043  0.00  0.00    -0.084 Cl
ATOM     38  C   UNL d   1       0.882   1.999  -0.020  0.00  0.00     0.052 C 
ENDBRANCH  28  31
ENDBRANCH  26  27
ENDBRANCH  25  26
ENDBRANCH   1  25
TORSDOF 10
