REMARK  6 active torsions:
REMARK  status: ('A' for Active; 'I' for Inactive)
REMARK    1  A    between atoms: C_5  and  C_6 
REMARK       I    between atoms: C_6  and  N_8 
REMARK    2  A    between atoms: N_8  and  N_9 
REMARK       I    between atoms: N_9  and  C_10 
REMARK    3  A    between atoms: C_10  and  C_12 
REMARK    4  A    between atoms: C_12  and  C_13 
REMARK    5  A    between atoms: C_13  and  N_14 
REMARK       I    between atoms: N_14  and  C_15 
REMARK    6  A    between atoms: C_15  and  C_17 
ROOT
ATOM      1  N   UNL d   1      -5.489   1.294  -0.080  0.00  0.00    -0.267 N 
ATOM      2  C   UNL d   1      -6.117   2.528  -0.076  0.00  0.00     0.237 C 
ATOM      3  O   UNL d   1      -5.468   3.577  -0.074  0.00  0.00    -0.272 OA
ATOM      4  H   UNL d   1      -5.966   0.395  -0.093  0.00  0.00     0.190 HD
ENDROOT
BRANCH   2   5
ATOM      5  C   UNL d   1      -7.647   2.502  -0.090  0.00  0.00     0.124 C 
BRANCH   5   6
ATOM      6  C   UNL d   1      -8.196   3.934  -0.075  0.00  0.00     0.132 C 
BRANCH   6   7
ATOM      7  N   UNL d   1      -9.645   4.032  -0.318  0.00  0.00    -0.356 N 
ATOM      8  C   UNL d   1     -10.351   5.233  -0.276  0.00  0.00     0.251 C 
ATOM      9  O   UNL d   1     -11.377   5.311   0.402  0.00  0.00    -0.268 OA
ATOM     10  H   UNL d   1     -10.201   3.307   0.122  0.00  0.00     0.162 HD
BRANCH   8  11
ATOM     11  C   UNL d   1      -9.933   6.384  -1.139  0.00  0.00     0.032 A 
ATOM     12  C   UNL d   1     -10.625   7.606  -1.105  0.00  0.00     0.018 A 
ATOM     13  C   UNL d   1     -10.262   8.649  -1.976  0.00  0.00     0.025 A 
ATOM     14  C   UNL d   1      -9.190   8.488  -2.854  0.00  0.00     0.034 A 
ATOM     15 CL   UNL d   1      -8.734   9.743  -3.935  0.00  0.00    -0.084 Cl
ATOM     16  C   UNL d   1      -8.507   7.284  -2.900  0.00  0.00     0.025 A 
ATOM     17  C   UNL d   1      -8.923   6.233  -2.092  0.00  0.00     0.018 A 
ENDBRANCH   8  11
ENDBRANCH   6   7
ENDBRANCH   5   6
ENDBRANCH   2   5
BRANCH   1  18
ATOM     18  N   UNL d   1      -4.068   1.261  -0.059  0.00  0.00    -0.263 N 
ATOM     19  C   UNL d   1      -3.397   0.043  -0.041  0.00  0.00     0.270 C 
ATOM     20  O   UNL d   1      -4.008  -1.028  -0.053  0.00  0.00    -0.266 OA
ATOM     21  H   UNL d   1      -3.617   2.172  -0.050  0.00  0.00     0.190 HD
BRANCH  19  22
ATOM     22  C   UNL d   1      -1.885   0.059  -0.012  0.00  0.00     0.033 A 
ATOM     23  C   UNL d   1      -1.181  -1.161  -0.003  0.00  0.00     0.017 A 
ATOM     24  C   UNL d   1       0.226  -1.191   0.004  0.00  0.00     0.007 A 
ATOM     25  C   UNL d   1       0.961  -0.002   0.002  0.00  0.00    -0.062 A 
ATOM     26  C   UNL d   1       2.464  -0.004  -0.013  0.00  0.00     0.048 C 
ATOM     27  C   UNL d   1       0.266   1.211   0.005  0.00  0.00     0.007 A 
ATOM     28  C   UNL d   1      -1.138   1.243  -0.001  0.00  0.00     0.017 A 
ENDBRANCH  19  22
ENDBRANCH   1  18
TORSDOF 6
