REMARK  5 active torsions:
REMARK  status: ('A' for Active; 'I' for Inactive)
REMARK    1  A    between atoms: C_2  and  C_3 
REMARK       I    between atoms: C_2  and  N_14 
REMARK    2  A    between atoms: C_3  and  C_4 
REMARK    3  A    between atoms: C_4  and  C_5 
REMARK    4  A    between atoms: N_14  and  N_15 
REMARK    5  A    between atoms: C_16  and  C_17 
ROOT
ATOM      1  O   UNL d   1       1.134   0.151  -0.004  0.00  0.00    -0.272 OA
ATOM      2  C   UNL d   1       2.366   0.079  -0.050  0.00  0.00     0.237 C 
ATOM      3  N   UNL d   1       3.138   1.070   0.519  0.00  0.00    -0.247 N 
ATOM      4  H   UNL d   1       2.640   1.834   0.963  0.00  0.00     0.192 HD
ENDROOT
BRANCH   2   5
ATOM      5  C   UNL d   1       3.109  -1.067  -0.709  0.00  0.00     0.109 C 
BRANCH   5   6
ATOM      6  C   UNL d   1       2.145  -2.087  -1.307  0.00  0.00     0.050 C 
BRANCH   6   7
ATOM      7  C   UNL d   1       2.831  -3.257  -1.945  0.00  0.00    -0.030 A 
ATOM      8  C   UNL d   1       3.852  -3.239  -2.876  0.00  0.00     0.096 A 
ATOM      9  N   UNL d   1       4.157  -4.534  -3.209  0.00  0.00    -0.365 N 
ATOM     10  C   UNL d   1       3.315  -5.404  -2.555  0.00  0.00     0.042 A 
ATOM     11  H   UNL d   1       4.872  -4.811  -3.868  0.00  0.00     0.165 HD
ATOM     12  C   UNL d   1       3.208  -6.799  -2.625  0.00  0.00     0.030 A 
ATOM     13  C   UNL d   1       2.489  -4.630  -1.741  0.00  0.00    -0.002 A 
ATOM     14  C   UNL d   1       2.213  -7.411  -1.852  0.00  0.00     0.002 A 
ATOM     15  C   UNL d   1       1.384  -6.663  -1.021  0.00  0.00     0.001 A 
ATOM     16  C   UNL d   1       1.520  -5.276  -0.949  0.00  0.00     0.014 A 
ENDBRANCH   6   7
ENDBRANCH   5   6
ENDBRANCH   2   5
BRANCH   3  17
ATOM     17  N   UNL d   1       4.500   1.048   0.475  0.00  0.00    -0.184 NA
ATOM     18  C   UNL d   1       5.114   1.996   1.110  0.00  0.00     0.150 C 
BRANCH  18  19
ATOM     19  C   UNL d   1       6.592   2.078   1.101  0.00  0.00    -0.017 A 
ATOM     20  C   UNL d   1       7.291   2.510   2.233  0.00  0.00     0.013 A 
ATOM     21  C   UNL d   1       8.681   2.665   2.170  0.00  0.00     0.001 A 
ATOM     22  C   UNL d   1       9.371   2.348   0.998  0.00  0.00     0.000 A 
ATOM     23  C   UNL d   1       8.671   1.905  -0.123  0.00  0.00     0.001 A 
ATOM     24  C   UNL d   1       7.283   1.771  -0.074  0.00  0.00     0.013 A 
ENDBRANCH  18  19
ENDBRANCH   3  17
TORSDOF 5
