REMARK  9 active torsions:
REMARK  status: ('A' for Active; 'I' for Inactive)
REMARK    1  A    between atoms: C_2  and  C_3 
REMARK       I    between atoms: C_2  and  N_17 
REMARK    2  A    between atoms: C_3  and  S_4 
REMARK    3  A    between atoms: S_4  and  C_5 
REMARK    4  A    between atoms: C_8  and  N_9 
REMARK    5  A    between atoms: N_9  and  C_10 
REMARK    6  A    between atoms: C_10  and  C_11 
REMARK    7  A    between atoms: N_17  and  C_18 
REMARK    8  A    between atoms: C_21  and  N_22 
REMARK    9  A    between atoms: N_23  and  C_24 
ROOT
ATOM      1  O   UNL d   1       1.008  -0.005  -0.095  0.00  0.00    -0.272 OA
ATOM      2  C   UNL d   1       2.237  -0.089   0.058  0.00  0.00     0.231 C 
ATOM      3  N   UNL d   1       3.025   0.739  -0.717  0.00  0.00    -0.327 N 
ATOM      4  H   UNL d   1       2.496   1.435  -1.235  0.00  0.00     0.169 HD
ENDROOT
BRANCH   2   5
ATOM      5  C   UNL d   1       2.900  -0.992   1.118  0.00  0.00     0.184 C 
BRANCH   5   6
ATOM      6  S   UNL d   1       1.673  -1.832   2.161  0.00  0.00    -0.092 SA
BRANCH   6   7
ATOM      7  C   UNL d   1       2.631  -2.930   3.136  0.00  0.00     0.160 A 
ATOM      8  N   UNL d   1       3.499  -2.531   4.038  0.00  0.00    -0.133 NA
ATOM      9  N   UNL d   1       3.949  -3.588   4.823  0.00  0.00    -0.123 NA
ATOM     10  C   UNL d   1       3.431  -4.753   4.479  0.00  0.00     0.191 A 
ATOM     11  S   UNL d   1       2.361  -4.625   3.132  0.00  0.00    -0.022 SA
BRANCH  10  12
ATOM     12  N   UNL d   1       3.723  -5.905   5.125  0.00  0.00    -0.361 N 
ATOM     13  H   UNL d   1       4.364  -5.849   5.907  0.00  0.00     0.162 HD
BRANCH  12  14
ATOM     14  C   UNL d   1       3.206  -7.221   4.784  0.00  0.00     0.186 C 
BRANCH  14  15
ATOM     15  C   UNL d   1       3.667  -8.313   5.702  0.00  0.00     0.070 A 
ATOM     16  C   UNL d   1       4.400  -8.306   6.873  0.00  0.00     0.036 A 
ATOM     17  C   UNL d   1       4.459  -9.641   7.327  0.00  0.00     0.027 A 
ATOM     18  C   UNL d   1       3.782 -10.392   6.396  0.00  0.00     0.142 A 
ATOM     19  O   UNL d   1       3.299  -9.597   5.401  0.00  0.00    -0.325 OA
ENDBRANCH  14  15
ENDBRANCH  12  14
ENDBRANCH  10  12
ENDBRANCH   6   7
ENDBRANCH   5   6
ENDBRANCH   2   5
BRANCH   3  20
ATOM     20  C   UNL d   1       4.422   0.738  -0.863  0.00  0.00     0.034 A 
ATOM     21  C   UNL d   1       5.117   1.934  -1.050  0.00  0.00     0.032 A 
ATOM     22  C   UNL d   1       6.520   1.919  -1.202  0.00  0.00     0.036 A 
ATOM     23  C   UNL d   1       7.258   0.724  -1.139  0.00  0.00     0.079 A 
ATOM     24  C   UNL d   1       6.529  -0.463  -1.004  0.00  0.00     0.036 A 
ATOM     25  C   UNL d   1       5.136  -0.454  -0.901  0.00  0.00     0.032 A 
BRANCH  23  26
ATOM     26  N   UNL d   1       8.680   0.782  -1.196  0.00  0.00    -0.150 NA
ATOM     27  N   UNL d   1       9.215  -0.348  -1.119  0.00  0.00    -0.150 NA
BRANCH  27  28
ATOM     28  C   UNL d   1      10.627  -0.318  -1.032  0.00  0.00     0.079 A 
ATOM     29  C   UNL d   1      11.361  -1.319  -1.687  0.00  0.00     0.033 A 
ATOM     30  C   UNL d   1      12.748  -1.431  -1.523  0.00  0.00     0.002 A 
ATOM     31  C   UNL d   1      13.433  -0.504  -0.743  0.00  0.00     0.000 A 
ATOM     32  C   UNL d   1      12.725   0.503  -0.091  0.00  0.00     0.002 A 
ATOM     33  C   UNL d   1      11.331   0.585  -0.222  0.00  0.00     0.033 A 
ENDBRANCH  27  28
ENDBRANCH  23  26
ENDBRANCH   3  20
TORSDOF 9
