@<TRIPOS>MOLECULE
*****
 36 37 0 0 0
SMALL
GASTEIGER

@<TRIPOS>ATOM
      1 C           2.4432   -0.3573    0.4718 C.3     1  UNL1       -0.0380
      2 C           0.9881   -0.1118    0.1926 C.ar    1  UNL1       -0.0292
      3 C           0.2243   -1.2767    0.0821 C.ar    1  UNL1       -0.0564
      4 C          -1.1564   -1.2322   -0.0052 C.ar    1  UNL1       -0.0493
      5 C          -1.8221   -0.0092   -0.0076 C.ar    1  UNL1        0.0383
      6 C          -3.3213    0.0402   -0.0465 C.2     1  UNL1        0.2416
      7 N          -4.0064   -1.1564   -0.0634 N.am    1  UNL1       -0.3253
      8 O          -3.9268    1.0926   -0.0604 O.2     1  UNL1       -0.2704
      9 C          -1.0617    1.1836    0.0080 C.ar    1  UNL1       -0.0281
     10 C           0.3558    1.1449    0.0512 C.ar    1  UNL1        0.0373
     11 N           1.0572    2.3839   -0.0609 N.am    1  UNL1       -0.2813
     12 C           2.4262    2.5938   -0.1811 C.2     1  UNL1        0.2483
     13 O           3.0001    3.3835    0.5658 O.2     1  UNL1       -0.2699
     14 C           3.2078    1.8722   -1.2527 C.ar    1  UNL1        0.0370
     15 C           4.6020    1.7292   -1.0973 C.ar    1  UNL1       -0.0491
     16 C           5.3079    0.7945   -1.8742 C.ar    1  UNL1       -0.0494
     17 C           4.6311   -0.0364   -2.7847 C.ar    1  UNL1        0.0549
     18 C           5.3799   -1.0219   -3.6469 C.3     1  UNL1        0.4174
     19 F           6.2130   -0.3862   -4.5144 F       1  UNL1       -0.1659
     20 F           6.1542   -1.8883   -2.9396 F       1  UNL1       -0.1659
     21 F           4.5621   -1.7960   -4.4157 F       1  UNL1       -0.1659
     22 C           3.2433    0.0937   -2.9177 C.ar    1  UNL1       -0.0494
     23 C           2.5511    1.0939   -2.2263 C.ar    1  UNL1       -0.0491
     24 H           2.6773   -1.4078    0.6520 H       1  UNL1        0.0278
     25 H           2.8248    0.2649    1.2823 H       1  UNL1        0.0278
     26 H           3.0350   -0.2091   -0.4051 H       1  UNL1        0.0278
     27 H           0.7181   -2.2456    0.0830 H       1  UNL1        0.0621
     28 H          -1.6690   -2.1837   -0.0422 H       1  UNL1        0.0625
     29 H          -3.5963   -2.0748   -0.0462 H       1  UNL1        0.1453
     30 H          -5.0172   -1.1144   -0.0806 H       1  UNL1        0.1453
     31 H          -1.5927    2.1361   -0.0330 H       1  UNL1        0.0644
     32 H           0.5444    3.2210    0.2002 H       1  UNL1        0.1551
     33 H           5.1285    2.2599   -0.3033 H       1  UNL1        0.0625
     34 H           6.3822    0.6753   -1.7291 H       1  UNL1        0.0623
     35 H           2.6754   -0.6438   -3.4863 H       1  UNL1        0.0623
     36 H           1.4669    1.0838   -2.2945 H       1  UNL1        0.0625
@<TRIPOS>BOND
     1     1     2    1
     2     2     3   ar
     3     3     4   ar
     4     4     5   ar
     5     5     6    1
     6     6     7   am
     7     6     8    2
     8     5     9   ar
     9     9    10   ar
    10     2    10   ar
    11    10    11    1
    12    11    12   am
    13    12    13    2
    14    12    14    1
    15    14    15   ar
    16    15    16   ar
    17    16    17   ar
    18    17    18    1
    19    18    19    1
    20    18    20    1
    21    18    21    1
    22    17    22   ar
    23    22    23   ar
    24    14    23   ar
    25     1    24    1
    26     1    25    1
    27     1    26    1
    28     3    27    1
    29     4    28    1
    30     7    29    1
    31     7    30    1
    32     9    31    1
    33    11    32    1
    34    15    33    1
    35    16    34    1
    36    22    35    1
    37    23    36    1
