REMARK  6 active torsions:
REMARK  status: ('A' for Active; 'I' for Inactive)
REMARK    1  A    between atoms: O_2  and  C_3 
REMARK    2  A    between atoms: C_10  and  C_11 
REMARK       I    between atoms: C_11  and  N_13 
REMARK    3  A    between atoms: N_13  and  C_14 
REMARK    4  A    between atoms: C_14  and  N_16 
REMARK    5  A    between atoms: N_16  and  C_17 
REMARK    6  A    between atoms: C_20  and  N_21 
ROOT
ATOM      1  N   UNL d   1       3.951   4.046   1.317  0.00  0.00    -0.333 N 
ATOM      2  H   UNL d   1       3.034   3.897   0.912  0.00  0.00     0.168 HD
ENDROOT
BRANCH   1   3
ATOM      3  C   UNL d   1       4.589   2.929   1.931  0.00  0.00     0.179 C 
ATOM      4  S   UNL d   1       5.744   3.102   3.160  0.00  0.00    -0.040 SA
BRANCH   3   5
ATOM      5  N   UNL d   1       4.145   1.661   1.470  0.00  0.00    -0.299 N 
ATOM      6  C   UNL d   1       4.647   0.412   1.899  0.00  0.00     0.260 C 
ATOM      7  O   UNL d   1       5.601   0.293   2.676  0.00  0.00    -0.267 OA
ATOM      8  H   UNL d   1       3.402   1.609   0.782  0.00  0.00     0.171 HD
BRANCH   6   9
ATOM      9  C   UNL d   1       4.083  -0.892   1.424  0.00  0.00     0.067 A 
ATOM     10  C   UNL d   1       4.735  -2.056   1.925  0.00  0.00     0.039 A 
ATOM     11  C   UNL d   1       4.339  -3.330   1.540  0.00  0.00     0.012 A 
ATOM     12  C   UNL d   1       3.304  -3.474   0.633  0.00  0.00     0.028 A 
ATOM     13 BR   UNL d   1       5.217  -4.862   2.215  0.00  0.00    -0.051 Br
ATOM     14  C   UNL d   1       2.646  -2.343   0.106  0.00  0.00    -0.026 A 
ATOM     15  C   UNL d   1       2.998  -1.044   0.545  0.00  0.00     0.089 A 
ATOM     16  C   UNL d   1       1.604  -2.619  -0.938  0.00  0.00     0.051 C 
BRANCH  15  17
ATOM     17  O   UNL d   1       2.401   0.086   0.042  0.00  0.00    -0.354 OA
ATOM     18  C   UNL d   1       0.986   0.163   0.246  0.00  0.00     0.210 C 
ENDBRANCH  15  17
ENDBRANCH   6   9
ENDBRANCH   3   5
ENDBRANCH   1   3
BRANCH   1  19
ATOM     19  C   UNL d   1       4.274   5.413   1.672  0.00  0.00     0.036 A 
ATOM     20  C   UNL d   1       5.600   5.851   1.691  0.00  0.00     0.032 A 
ATOM     21  C   UNL d   1       5.965   7.109   2.198  0.00  0.00     0.033 A 
ATOM     22  C   UNL d   1       5.021   8.029   2.674  0.00  0.00     0.052 A 
ATOM     23  C   UNL d   1       3.675   7.601   2.601  0.00  0.00     0.062 A 
ATOM     24 CL   UNL d   1       2.381   8.644   3.095  0.00  0.00    -0.082 Cl
ATOM     25  C   UNL d   1       3.300   6.329   2.074  0.00  0.00     0.055 A 
BRANCH  22  26
ATOM     26  N   UNL d   1       5.472   9.279   3.083  0.00  0.00    -0.376 N 
ATOM     27  C   UNL d   1       5.189   9.922   4.374  0.00  0.00     0.150 C 
ATOM     28  C   UNL d   1       4.438  11.261   4.172  0.00  0.00     0.254 C 
ATOM     29  N   UNL d   1       5.170  12.161   3.163  0.00  0.00    -0.072 N 
ATOM     30  C   UNL d   1       4.413  13.433   2.910  0.00  0.00     0.269 C 
ATOM     31  C   UNL d   1       5.446  11.410   1.857  0.00  0.00     0.254 C 
ATOM     32  H   UNL d   1       6.078  12.409   3.576  0.00  0.00     0.279 HD
ATOM     33  C   UNL d   1       6.216  10.099   2.120  0.00  0.00     0.150 C 
ENDBRANCH  22  26
ENDBRANCH   1  19
TORSDOF 6
