REMARK  6 active torsions:
REMARK  status: ('A' for Active; 'I' for Inactive)
REMARK       I    between atoms: C_2  and  N_3 
REMARK    1  A    between atoms: C_2  and  C_14 
REMARK    2  A    between atoms: C_4  and  N_3 
REMARK    3  A    between atoms: C_17  and  C_18 
REMARK    4  A    between atoms: C_18  and  N_19 
REMARK    5  A    between atoms: N_19  and  C_20 
REMARK    6  A    between atoms: C_21  and  O_22 
ROOT
ATOM      1  C   UNL d   1      -1.228  -0.932   1.088  0.00  0.00     0.032 A 
ATOM      2  C   UNL d   1      -2.116  -0.164   1.845  0.00  0.00     0.017 A 
ATOM      3  C   UNL d   1      -3.468  -0.524   1.900  0.00  0.00     0.010 A 
ATOM      4  C   UNL d   1      -3.966  -1.592   1.124  0.00  0.00    -0.041 A 
ATOM      5  C   UNL d   1      -3.057  -2.326   0.352  0.00  0.00     0.010 A 
ATOM      6  C   UNL d   1      -1.704  -1.997   0.330  0.00  0.00     0.017 A 
ENDROOT
BRANCH   4   7
ATOM      7  C   UNL d   1      -5.458  -1.842   1.120  0.00  0.00     0.158 C 
BRANCH   7   8
ATOM      8  N   UNL d   1      -5.922  -2.741   0.048  0.00  0.00    -0.381 N 
ATOM      9  H   UNL d   1      -5.205  -3.432  -0.172  0.00  0.00     0.160 HD
BRANCH   8  10
ATOM     10  C   UNL d   1      -7.172  -3.123  -0.128  0.00  0.00     0.097 A 
ATOM     11  C   UNL d   1      -7.826  -4.325  -0.264  0.00  0.00     0.147 A 
ATOM     12  C   UNL d   1      -9.114  -3.630  -0.476  0.00  0.00     0.236 A 
ATOM     13  O   UNL d   1     -10.267  -3.901  -0.733  0.00  0.00    -0.283 OA
ATOM     14  C   UNL d   1      -8.435  -2.335  -0.337  0.00  0.00     0.113 A 
ATOM     15  N   UNL d   1      -8.810  -1.093  -0.423  0.00  0.00    -0.372 N 
ATOM     16  C   UNL d   1     -10.244  -0.565  -0.527  0.00  0.00     0.149 C 
ATOM     17  C   UNL d   1      -7.796   0.033  -0.306  0.00  0.00     0.149 C 
ATOM     18  C   UNL d   1     -10.304   0.596  -1.538  0.00  0.00     0.187 C 
ATOM     19  O   UNL d   1      -9.370   1.621  -1.187  0.00  0.00    -0.388 OA
ATOM     20  C   UNL d   1      -8.045   1.135  -1.319  0.00  0.00     0.187 C 
BRANCH  11  21
ATOM     21  O   UNL d   1      -7.495  -5.569  -0.230  0.00  0.00    -0.355 OA
ATOM     22  H   UNL d   1      -6.556  -5.715  -0.002  0.00  0.00     0.218 HD
ENDBRANCH  11  21
ENDBRANCH   8  10
ENDBRANCH   7   8
ENDBRANCH   4   7
BRANCH   1  23
ATOM     23  C   UNL d   1       0.230  -0.675   1.077  0.00  0.00     0.252 C 
ATOM     24  O   UNL d   1       0.856  -0.764   0.031  0.00  0.00    -0.268 OA
ATOM     25  N   UNL d   1       0.783  -0.412   2.303  0.00  0.00    -0.348 N 
ATOM     26  H   UNL d   1       0.249  -0.570   3.147  0.00  0.00     0.163 HD
BRANCH  25  27
ATOM     27  C   UNL d   1       2.199  -0.129   2.483  0.00  0.00     0.118 C 
ATOM     28  C   UNL d   1       2.292   1.252   3.132  0.00  0.00     0.030 C 
ATOM     29  C   UNL d   1       3.687   1.501   3.676  0.00  0.00     0.007 C 
ATOM     30  C   UNL d   1       4.034   0.483   4.766  0.00  0.00     0.039 C 
ATOM     31  C   UNL d   1       3.749  -0.942   4.349  0.00  0.00    -0.050 A 
ATOM     32  C   UNL d   1       4.350  -2.006   5.045  0.00  0.00     0.007 A 
ATOM     33  C   UNL d   1       2.869  -1.227   3.287  0.00  0.00    -0.029 A 
ATOM     34  C   UNL d   1       4.120  -3.330   4.662  0.00  0.00     0.001 A 
ATOM     35  C   UNL d   1       3.284  -3.610   3.588  0.00  0.00     0.001 A 
ATOM     36  C   UNL d   1       2.668  -2.566   2.906  0.00  0.00     0.010 A 
ENDBRANCH  25  27
ENDBRANCH   1  23
TORSDOF 6
