@<TRIPOS>MOLECULE
*****
 42 45 0 0 0
SMALL
GASTEIGER

@<TRIPOS>ATOM
      1 O           1.1619    0.3172   -0.0336 O.2     1  UNL1       -0.2744
      2 C           2.3775    0.1272   -0.0455 C.2     1  UNL1        0.2307
      3 C           3.0295   -1.2566   -0.1513 C.3     1  UNL1        0.0780
      4 S           1.8969   -2.6529   -0.2503 S.3     1  UNL1       -0.0763
      5 C           2.8422   -4.1257   -0.3291 C.ar    1  UNL1        0.1964
      6 N           2.2661   -5.3127   -0.2494 N.ar    1  UNL1       -0.1218
      7 N           3.2280   -6.2879   -0.3849 N.ar    1  UNL1       -0.1286
      8 C           4.3827   -5.6853   -0.5523 C.ar    1  UNL1        0.1617
      9 C           5.7021   -6.1910   -0.7513 C.ar    1  UNL1       -0.0170
     10 C           6.7305   -5.3347   -0.9026 C.ar    1  UNL1       -0.0569
     11 C           6.5239   -3.9031   -0.8576 C.ar    1  UNL1       -0.0450
     12 C           5.2846   -3.4283   -0.6683 C.ar    1  UNL1        0.0137
     13 N           4.2047   -4.2978   -0.5197 N.ar    1  UNL1       -0.2776
     14 N           3.2296    1.2383    0.0180 N.am    1  UNL1       -0.2392
     15 C           4.6105    1.2288   -0.0106 C.2     1  UNL1        0.3102
     16 O           5.2384    0.1683   -0.0720 O.2     1  UNL1       -0.2521
     17 N           5.2401    2.4666    0.0651 N.am    1  UNL1       -0.2690
     18 C           6.6711    2.5474    0.0634 C.ar    1  UNL1        0.0385
     19 C           7.3598    3.3881    0.9483 C.ar    1  UNL1       -0.0367
     20 C           8.7712    3.3884    0.9749 C.ar    1  UNL1       -0.0145
     21 C           9.4989    2.5973    0.0836 C.ar    1  UNL1        0.1622
     22 C           8.8173    1.7797   -0.8136 C.ar    1  UNL1        0.1638
     23 C           7.4206    1.7617   -0.8240 C.ar    1  UNL1        0.0050
     24 O           9.4435    0.9726   -1.7282 O.3     1  UNL1       -0.4849
     25 C          10.8266    0.7877   -1.4141 C.3     1  UNL1        0.1237
     26 C          11.4813    2.1026   -1.0254 C.3     1  UNL1        0.1237
     27 O          10.8680    2.6637    0.1447 O.3     1  UNL1       -0.4849
     28 H           3.6584   -1.4021    0.7319 H       1  UNL1        0.0475
     29 H           3.5902   -1.2393   -1.0882 H       1  UNL1        0.0475
     30 H           5.8569   -7.2643   -0.7800 H       1  UNL1        0.0655
     31 H           7.7444   -5.6899   -1.0586 H       1  UNL1        0.0619
     32 H           7.3665   -3.2287   -0.9700 H       1  UNL1        0.0632
     33 H           5.1341   -2.3693   -0.6243 H       1  UNL1        0.0814
     34 H           2.7288    2.1144    0.0566 H       1  UNL1        0.1591
     35 H           4.7332    3.2661    0.4234 H       1  UNL1        0.1564
     36 H           6.8344    4.0027    1.6746 H       1  UNL1        0.0637
     37 H           9.3081    4.0050    1.6937 H       1  UNL1        0.0656
     38 H           6.9228    1.1233   -1.5477 H       1  UNL1        0.0674
     39 H          11.3137    0.3749   -2.3040 H       1  UNL1        0.0731
     40 H          10.9065    0.0473   -0.6092 H       1  UNL1        0.0731
     41 H          11.4173    2.8357   -1.8390 H       1  UNL1        0.0731
     42 H          12.5416    1.9360   -0.8048 H       1  UNL1        0.0731
@<TRIPOS>BOND
     1     1     2    2
     2     2     3    1
     3     3     4    1
     4     4     5    1
     5     5     6   ar
     6     6     7   ar
     7     7     8   ar
     8     8     9   ar
     9     9    10   ar
    10    10    11   ar
    11    11    12   ar
    12    12    13   ar
    13     5    13   ar
    14     8    13   ar
    15     2    14   am
    16    14    15   am
    17    15    16    2
    18    15    17   am
    19    17    18    1
    20    18    19   ar
    21    19    20   ar
    22    20    21   ar
    23    21    22   ar
    24    22    23   ar
    25    18    23   ar
    26    22    24    1
    27    24    25    1
    28    25    26    1
    29    26    27    1
    30    21    27    1
    31     3    28    1
    32     3    29    1
    33     9    30    1
    34    10    31    1
    35    11    32    1
    36    12    33    1
    37    14    34    1
    38    17    35    1
    39    19    36    1
    40    20    37    1
    41    23    38    1
    42    25    39    1
    43    25    40    1
    44    26    41    1
    45    26    42    1
