@<TRIPOS>MOLECULE
*****
 54 55 0 0 0
SMALL
GASTEIGER

@<TRIPOS>ATOM
      1 C          14.0559   13.9557    1.3532 C.2     1  UNL1       -0.1023
      2 C          13.8461   12.6371    1.4190 C.2     1  UNL1       -0.0867
      3 C          12.4672   12.0386    1.3787 C.3     1  UNL1       -0.0063
      4 C          12.5213   10.5352    1.3817 C.ar    1  UNL1       -0.0016
      5 C          12.2214    9.7826    2.5470 C.ar    1  UNL1       -0.0462
      6 C          12.3538    8.3858    2.5312 C.ar    1  UNL1       -0.0050
      7 C          12.0134    7.5927    3.7644 C.2     1  UNL1        0.0528
      8 N          12.0363    6.3066    4.0185 N.2     1  UNL1       -0.1877
      9 N          12.4121    5.4217    3.0692 N.am    1  UNL1       -0.2070
     10 C          12.4610    4.0585    3.1863 C.2     1  UNL1        0.2323
     11 O          12.1868    3.4127    4.1960 O.2     1  UNL1       -0.2741
     12 C          12.9346    3.4204    1.8708 C.3     1  UNL1        0.0282
     13 C          13.0171    1.9100    2.0407 C.3     1  UNL1       -0.0144
     14 C          13.6745    1.1688    0.8723 C.3     1  UNL1        0.0806
     15 O          12.9797   -0.0714    0.7129 O.3     1  UNL1       -0.3872
     16 C          15.1531    0.9313    1.1230 C.ar    1  UNL1       -0.0189
     17 C          16.0243    2.0173    1.2937 C.ar    1  UNL1       -0.0527
     18 C          17.3719    1.8277    1.5903 C.ar    1  UNL1       -0.0196
     19 C          17.8861    0.5409    1.6994 C.ar    1  UNL1        0.1205
     20 O          19.1838    0.2287    1.9840 O.3     1  UNL1       -0.4922
     21 C          20.0574    1.3332    2.2046 C.3     1  UNL1        0.0868
     22 C          21.4337    0.7782    2.4981 C.3     1  UNL1       -0.0307
     23 C          17.0432   -0.5501    1.5016 C.ar    1  UNL1       -0.0196
     24 C          15.6914   -0.3594    1.2145 C.ar    1  UNL1       -0.0527
     25 C          12.8158    7.8173    1.3395 C.ar    1  UNL1       -0.0496
     26 C          13.0938    8.5344    0.1933 C.ar    1  UNL1       -0.0193
     27 C          12.9403    9.8896    0.2126 C.ar    1  UNL1        0.1203
     28 O          13.2287   10.5955   -0.9148 O.3     1  UNL1       -0.5065
     29 H          15.0621   14.3589    1.3565 H       1  UNL1        0.0532
     30 H          13.2213   14.6445    1.2821 H       1  UNL1        0.0532
     31 H          14.7035   11.9656    1.4560 H       1  UNL1        0.0570
     32 H          11.9434   12.3568    0.4672 H       1  UNL1        0.0357
     33 H          11.8758   12.3936    2.2281 H       1  UNL1        0.0357
     34 H          11.9019   10.3096    3.4476 H       1  UNL1        0.0628
     35 H          11.6755    8.2069    4.6238 H       1  UNL1        0.0851
     36 H          12.5841    5.7278    2.1515 H       1  UNL1        0.1772
     37 H          13.8984    3.8610    1.5967 H       1  UNL1        0.0360
     38 H          12.2490    3.6659    1.0472 H       1  UNL1        0.0360
     39 H          11.9949    1.5427    2.1931 H       1  UNL1        0.0298
     40 H          13.5584    1.6849    2.9689 H       1  UNL1        0.0298
     41 H          13.5543    1.7106   -0.0723 H       1  UNL1        0.0643
     42 H          13.0660   -0.5535    1.5546 H       1  UNL1        0.2102
     43 H          15.6811    3.0404    1.2088 H       1  UNL1        0.0622
     44 H          17.9855    2.7110    1.7289 H       1  UNL1        0.0654
     45 H          19.7160    1.9247    3.0628 H       1  UNL1        0.0694
     46 H          20.1090    1.9632    1.3084 H       1  UNL1        0.0694
     47 H          21.4034    0.1316    3.3808 H       1  UNL1        0.0262
     48 H          22.1471    1.5878    2.6710 H       1  UNL1        0.0262
     49 H          21.7825    0.1650    1.6611 H       1  UNL1        0.0262
     50 H          17.4371   -1.5604    1.5716 H       1  UNL1        0.0654
     51 H          15.0715   -1.2398    1.0653 H       1  UNL1        0.0622
     52 H          13.0343    6.7946    1.1479 H       1  UNL1        0.0625
     53 H          13.4408    7.9874   -0.6759 H       1  UNL1        0.0654
     54 H          13.5063    9.9750   -1.6099 H       1  UNL1        0.2921
@<TRIPOS>BOND
     1     1     2    2
     2     2     3    1
     3     3     4    1
     4     4     5   ar
     5     5     6   ar
     6     6     7    1
     7     7     8    2
     8     8     9    1
     9     9    10   am
    10    10    11    2
    11    10    12    1
    12    12    13    1
    13    14    16    1
    14    16    17   ar
    15    17    18   ar
    16    18    19   ar
    17    19    20    1
    18    20    21    1
    19    21    22    1
    20    19    23   ar
    21    23    24   ar
    22    16    24   ar
    23     6    25   ar
    24    25    26   ar
    25    26    27   ar
    26     4    27   ar
    27    27    28    1
    28    14    15    1
    29    14    13    1
    30     1    29    1
    31     1    30    1
    32     2    31    1
    33     3    32    1
    34     3    33    1
    35     5    34    1
    36     7    35    1
    37     9    36    1
    38    12    37    1
    39    12    38    1
    40    13    39    1
    41    13    40    1
    42    14    41    1
    43    15    42    1
    44    17    43    1
    45    18    44    1
    46    21    45    1
    47    21    46    1
    48    22    47    1
    49    22    48    1
    50    22    49    1
    51    23    50    1
    52    24    51    1
    53    25    52    1
    54    26    53    1
    55    28    54    1
