REMARK  5 active torsions:
REMARK  status: ('A' for Active; 'I' for Inactive)
REMARK       I    between atoms: N_2  and  C_3 
REMARK    1  A    between atoms: C_3  and  C_5 
REMARK    2  A    between atoms: C_10  and  N_11 
REMARK    3  A    between atoms: N_11  and  C_12 
REMARK    4  A    between atoms: C_12  and  C_13 
REMARK    5  A    between atoms: C_17  and  O_18 
ROOT
ATOM      1  C   UNL d   1       2.869   2.446   0.673  0.00  0.00     0.034 A 
ATOM      2  C   UNL d   1       3.546   3.650   0.491  0.00  0.00     0.017 A 
ATOM      3  C   UNL d   1       3.187   4.767   1.258  0.00  0.00     0.010 A 
ATOM      4  C   UNL d   1       2.128   4.700   2.187  0.00  0.00    -0.036 A 
ATOM      5  C   UNL d   1       1.760   5.916   2.991  0.00  0.00     0.050 C 
ATOM      6  C   UNL d   1       1.456   3.485   2.387  0.00  0.00     0.035 A 
ATOM      7  C   UNL d   1       1.893   2.387   1.660  0.00  0.00     0.046 A 
ENDROOT
BRANCH   6   8
ATOM      8  N   UNL d   1       0.338   3.390   3.195  0.00  0.00    -0.385 N 
ATOM      9  H   UNL d   1       0.244   4.097   3.912  0.00  0.00     0.160 HD
BRANCH   8  10
ATOM     10  C   UNL d   1      -0.437   2.167   3.394  0.00  0.00     0.158 C 
BRANCH  10  11
ATOM     11  C   UNL d   1      -1.880   2.461   3.728  0.00  0.00    -0.038 A 
ATOM     12  C   UNL d   1      -2.787   1.411   3.920  0.00  0.00     0.009 A 
ATOM     13  C   UNL d   1      -4.129   1.686   4.185  0.00  0.00     0.003 A 
ATOM     14  C   UNL d   1      -4.573   3.010   4.267  0.00  0.00     0.037 A 
ATOM     15  C   UNL d   1      -3.683   4.066   4.080  0.00  0.00     0.068 A 
ATOM     16  C   UNL d   1      -2.355   3.777   3.797  0.00  0.00     0.045 A 
BRANCH  15  17
ATOM     17  O   UNL d   1      -4.183   5.337   4.180  0.00  0.00    -0.356 OA
ATOM     18  C   UNL d   1      -3.237   6.395   4.004  0.00  0.00     0.210 C 
ENDBRANCH  15  17
ENDBRANCH  10  11
ENDBRANCH   8  10
ENDBRANCH   6   8
BRANCH   1  19
ATOM     19  C   UNL d   1       3.251   1.201  -0.051  0.00  0.00     0.251 C 
ATOM     20  N   UNL d   1       2.534   0.032   0.168  0.00  0.00    -0.361 N 
ATOM     21  C   UNL d   1       1.097  -0.102  -0.043  0.00  0.00     0.149 C 
ATOM     22  H   UNL d   1       3.065  -0.764  -0.164  0.00  0.00     0.162 HD
ATOM     23  O   UNL d   1       4.262   1.177  -0.753  0.00  0.00    -0.268 OA
ENDBRANCH   1  19
TORSDOF 5
