@<TRIPOS>MOLECULE
*****
 45 45 0 0 0
SMALL
GASTEIGER

@<TRIPOS>ATOM
      1 C           0.9964    0.0958    0.0009 C.3     1  UNL1       -0.0653
      2 C           2.5165    0.1100    0.0142 C.3     1  UNL1       -0.0559
      3 C           3.0502    1.1603    0.9935 C.3     1  UNL1       -0.0529
      4 C           4.5805    1.1767    1.0087 C.3     1  UNL1       -0.0448
      5 C           5.1626    2.2180    1.9799 C.3     1  UNL1        0.0254
      6 C           6.6935    2.2028    1.9665 C.2     1  UNL1        0.2291
      7 O           7.3474    1.4396    1.2531 O.2     1  UNL1       -0.2743
      8 N           7.3117    3.1077    2.8148 N.am    1  UNL1       -0.2342
      9 N           8.7329    3.1501    2.8455 N.am    1  UNL1       -0.2304
     10 C           9.3863    3.9900    3.7360 C.2     1  UNL1        0.2601
     11 O           8.7862    4.7336    4.5183 O.2     1  UNL1       -0.2687
     12 C          10.8836    4.0027    3.7043 C.ar    1  UNL1        0.0383
     13 C          11.6553    4.1652    4.8699 C.ar    1  UNL1       -0.0478
     14 C          13.0671    4.3202    4.8055 C.ar    1  UNL1       -0.0398
     15 C          13.7329    4.2631    3.5736 C.ar    1  UNL1        0.0334
     16 N          15.1644    4.3062    3.4972 N.am    1  UNL1       -0.2855
     17 C          15.8821    4.1549    2.3121 C.2     1  UNL1        0.2169
     18 O          15.3741    4.0138    1.2001 O.2     1  UNL1       -0.2755
     19 C          17.4003    4.1496    2.4102 C.3     1  UNL1        0.0215
     20 C          17.9788    4.0051    0.9941 C.3     1  UNL1       -0.0570
     21 C          12.9324    4.1341    2.4313 C.ar    1  UNL1       -0.0398
     22 C          11.5410    3.9957    2.4829 C.ar    1  UNL1       -0.0478
     23 H           0.6259   -0.6574   -0.7014 H       1  UNL1        0.0230
     24 H           0.6011    1.0700   -0.3039 H       1  UNL1        0.0230
     25 H           0.6011   -0.1402    0.9940 H       1  UNL1        0.0230
     26 H           2.8837    0.3183   -0.9979 H       1  UNL1        0.0263
     27 H           2.8837   -0.8850    0.2926 H       1  UNL1        0.0263
     28 H           2.6708    0.9442    1.9994 H       1  UNL1        0.0265
     29 H           2.6708    2.1487    0.7077 H       1  UNL1        0.0265
     30 H           4.9458    1.3783   -0.0062 H       1  UNL1        0.0270
     31 H           4.9458    0.1783    1.2808 H       1  UNL1        0.0270
     32 H           4.8106    2.0058    2.9961 H       1  UNL1        0.0359
     33 H           4.8107    3.2170    1.6972 H       1  UNL1        0.0359
     34 H           6.8207    3.7629    3.4206 H       1  UNL1        0.1728
     35 H           9.2083    2.4765    2.2437 H       1  UNL1        0.1731
     36 H          11.1601    4.1713    5.8403 H       1  UNL1        0.0626
     37 H          13.6110    4.4984    5.7318 H       1  UNL1        0.0636
     38 H          15.6782    4.3691    4.3696 H       1  UNL1        0.1548
     39 H          17.7325    3.3065    3.0240 H       1  UNL1        0.0356
     40 H          17.7527    5.0851    2.8541 H       1  UNL1        0.0356
     41 H          17.6329    3.0747    0.5241 H       1  UNL1        0.0234
     42 H          19.0707    3.9980    0.9924 H       1  UNL1        0.0234
     43 H          17.6423    4.8293    0.3515 H       1  UNL1        0.0234
     44 H          13.3480    4.1560    1.4328 H       1  UNL1        0.0636
     45 H          11.0043    3.9271    1.5419 H       1  UNL1        0.0626
@<TRIPOS>BOND
     1     1     2    1
     2     2     3    1
     3     3     4    1
     4     4     5    1
     5     5     6    1
     6     6     7    2
     7     6     8   am
     8     8     9    1
     9     9    10   am
    10    10    11    2
    11    10    12    1
    12    12    13   ar
    13    13    14   ar
    14    14    15   ar
    15    15    16    1
    16    16    17   am
    17    17    18    2
    18    17    19    1
    19    19    20    1
    20    15    21   ar
    21    21    22   ar
    22    12    22   ar
    23     1    23    1
    24     1    24    1
    25     1    25    1
    26     2    26    1
    27     2    27    1
    28     3    28    1
    29     3    29    1
    30     4    30    1
    31     4    31    1
    32     5    32    1
    33     5    33    1
    34     8    34    1
    35     9    35    1
    36    13    36    1
    37    14    37    1
    38    16    38    1
    39    19    39    1
    40    19    40    1
    41    20    41    1
    42    20    42    1
    43    20    43    1
    44    21    44    1
    45    22    45    1
