REMARK  7 active torsions:
REMARK  status: ('A' for Active; 'I' for Inactive)
REMARK    1  A    between atoms: C_4  and  S_5 
REMARK    2  A    between atoms: S_5  and  N_6 
REMARK    3  A    between atoms: C_10  and  N_11 
REMARK       I    between atoms: N_11  and  C_12 
REMARK    4  A    between atoms: C_12  and  C_14 
REMARK    5  A    between atoms: C_14  and  O_15 
REMARK    6  A    between atoms: O_15  and  C_16 
REMARK    7  A    between atoms: C_20  and  N_21 
ROOT
ATOM      1  N   UNL d   1      -0.803  -2.832  -0.072  0.00  0.00    -0.325 N 
ATOM      2  C   UNL d   1      -2.010  -3.541  -0.132  0.00  0.00     0.246 C 
ATOM      3  O   UNL d   1      -3.136  -3.050  -0.152  0.00  0.00    -0.271 OA
ATOM      4  H   UNL d   1       0.056  -3.366  -0.036  0.00  0.00     0.169 HD
ENDROOT
BRANCH   1   5
ATOM      5  C   UNL d   1      -0.697  -1.409  -0.034  0.00  0.00     0.042 A 
ATOM      6  C   UNL d   1      -1.865  -0.634  -0.017  0.00  0.00     0.055 A 
ATOM      7  C   UNL d   1      -1.844   0.751   0.018  0.00  0.00     0.082 A 
ATOM      8  C   UNL d   1      -0.636   1.422   0.015  0.00  0.00     0.032 A 
ATOM      9  C   UNL d   1       0.567   0.692  -0.005  0.00  0.00    -0.052 A 
ATOM     10  C   UNL d   1       1.853   1.482  -0.016  0.00  0.00     0.049 C 
ATOM     11  C   UNL d   1       0.553  -0.739  -0.010  0.00  0.00    -0.029 A 
ATOM     12  C   UNL d   1       1.883  -1.461   0.020  0.00  0.00     0.051 C 
BRANCH   7  13
ATOM     13  S   UNL d   1      -3.391   1.613   0.123  0.00  0.00     0.256 S 
ATOM     14  O   UNL d   1      -4.131   1.055   1.237  0.00  0.00    -0.201 OA
ATOM     15  O   UNL d   1      -3.130   3.022  -0.011  0.00  0.00    -0.201 OA
BRANCH  13  16
ATOM     16  N   UNL d   1      -4.163   1.131  -1.277  0.00  0.00    -0.324 N 
ATOM     17  H   UNL d   1      -4.557   0.193  -1.272  0.00  0.00     0.169 HD
ATOM     18  H   UNL d   1      -3.812   1.532  -2.140  0.00  0.00     0.169 HD
ENDBRANCH  13  16
ENDBRANCH   7  13
ENDBRANCH   1   5
BRANCH   2  19
ATOM     19  C   UNL d   1      -1.865  -5.050  -0.109  0.00  0.00     0.278 C 
BRANCH  19  20
ATOM     20  O   UNL d   1      -3.177  -5.624  -0.085  0.00  0.00    -0.341 OA
BRANCH  20  21
ATOM     21  C   UNL d   1      -3.316  -6.986  -0.031  0.00  0.00     0.077 A 
ATOM     22  C   UNL d   1      -4.321  -7.481  -0.882  0.00  0.00     0.037 A 
ATOM     23  C   UNL d   1      -4.622  -8.837  -0.907  0.00  0.00     0.005 A 
ATOM     24  C   UNL d   1      -3.933  -9.705  -0.066  0.00  0.00     0.037 A 
ATOM     25  C   UNL d   1      -2.952  -9.224   0.828  0.00  0.00     0.111 A 
ATOM     26  C   UNL d   1      -2.640  -7.843   0.874  0.00  0.00     0.004 A 
ATOM     27  C   UNL d   1      -1.669  -7.243   1.846  0.00  0.00     0.054 C 
BRANCH  25  28
ATOM     28  N   UNL d   1      -2.297 -10.246   1.686  0.00  0.00    -0.115 N 
ATOM     29  O   UNL d   1      -2.667 -11.421   1.557  0.00  0.00    -0.532 OA
ATOM     30  O   UNL d   1      -1.406  -9.912   2.473  0.00  0.00    -0.532 OA
ENDBRANCH  25  28
ENDBRANCH  20  21
ENDBRANCH  19  20
ENDBRANCH   2  19
TORSDOF 7
