REMARK  9 active torsions:
REMARK  status: ('A' for Active; 'I' for Inactive)
REMARK    1  A    between atoms: O_2  and  C_3 
REMARK    2  A    between atoms: C_6  and  C_7 
REMARK    3  A    between atoms: N_9  and  C_10 
REMARK    4  A    between atoms: C_10  and  C_11 
REMARK    5  A    between atoms: C_11  and  C_12 
REMARK       I    between atoms: C_12  and  N_14 
REMARK    6  A    between atoms: N_14  and  C_15 
REMARK    7  A    between atoms: C_18  and  C_19 
REMARK    8  A    between atoms: C_19  and  C_20 
REMARK    9  A    between atoms: C_20  and  C_21 
ROOT
ATOM      1  C   UNL d   1       8.118  -2.304   9.176  0.00  0.00     0.223 C 
ATOM      2  O   UNL d   1       7.432  -1.314   9.446  0.00  0.00    -0.273 OA
ATOM      3  N   UNL d   1       9.066  -2.870  10.022  0.00  0.00    -0.327 N 
ATOM      4  H   UNL d   1       9.709  -3.565   9.651  0.00  0.00     0.169 HD
ENDROOT
BRANCH   3   5
ATOM      5  C   UNL d   1       9.241  -2.436  11.346  0.00  0.00     0.034 A 
ATOM      6  C   UNL d   1      10.491  -2.446  11.963  0.00  0.00     0.030 A 
ATOM      7  C   UNL d   1      10.614  -2.047  13.310  0.00  0.00     0.009 A 
ATOM      8  C   UNL d   1       9.495  -1.592  14.035  0.00  0.00    -0.058 A 
ATOM      9  C   UNL d   1       8.252  -1.637  13.397  0.00  0.00     0.009 A 
ATOM     10  C   UNL d   1       8.130  -2.036  12.076  0.00  0.00     0.030 A 
BRANCH   8  11
ATOM     11  C   UNL d   1       9.632  -1.026  15.441  0.00  0.00     0.042 C 
BRANCH  11  12
ATOM     12  C   UNL d   1       8.281  -0.461  16.014  0.00  0.00     0.062 C 
BRANCH  12  13
ATOM     13  C   UNL d   1       8.325   0.028  17.449  0.00  0.00     0.321 C 
ATOM     14  N   UNL d   1       7.216  -0.607  18.225  0.00  0.00     0.129 N 
ATOM     15  C   UNL d   1       7.275   0.050  19.285  0.00  0.00     0.264 C 
ATOM     16  H   UNL d   1       6.350  -0.479  17.634  0.00  0.00     0.320 HD
ATOM     17  C   UNL d   1       8.403   0.132  20.329  0.00  0.00     0.024 C 
ATOM     18  C   UNL d   1       7.119   1.489  18.916  0.00  0.00     0.053 C 
ATOM     19  C   UNL d   1       8.159   0.955  21.360  0.00  0.00    -0.001 C 
ATOM     20  C   UNL d   1       6.931   1.710  21.336  0.00  0.00     0.002 C 
ATOM     21  C   UNL d   1       6.441   2.119  20.130  0.00  0.00     0.028 C 
ATOM     22  N   UNL d   1       7.984   1.546  17.920  0.00  0.00    -0.361 N 
ATOM     23  H   UNL d   1       8.798   2.185  17.898  0.00  0.00     0.161 HD
ENDBRANCH  12  13
ENDBRANCH  11  12
ENDBRANCH   8  11
ENDBRANCH   3   5
BRANCH   1  24
ATOM     24  C   UNL d   1       8.009  -2.999   7.860  0.00  0.00     0.125 C 
BRANCH  24  25
ATOM     25  C   UNL d   1       7.006  -2.332   6.919  0.00  0.00     0.163 C 
BRANCH  25  26
ATOM     26  N   UNL d   1       6.845  -2.982   5.603  0.00  0.00    -0.238 N 
ATOM     27  N   UNL d   1       5.993  -2.321   4.736  0.00  0.00    -0.174 NA
ATOM     28  C   UNL d   1       5.666  -2.872   3.604  0.00  0.00     0.065 C 
ATOM     29  C   UNL d   1       6.120  -4.240   3.190  0.00  0.00     0.071 C 
ATOM     30  C   UNL d   1       7.401  -4.636   3.869  0.00  0.00     0.111 C 
ATOM     31  C   UNL d   1       7.569  -4.114   5.253  0.00  0.00     0.240 C 
ATOM     32  O   UNL d   1       8.389  -4.689   5.973  0.00  0.00    -0.272 OA
BRANCH  28  33
ATOM     33  C   UNL d   1       4.770  -2.133   2.668  0.00  0.00    -0.010 A 
ATOM     34  C   UNL d   1       5.138  -0.843   2.283  0.00  0.00     0.016 A 
ATOM     35  C   UNL d   1       4.279  -0.079   1.488  0.00  0.00     0.037 A 
ATOM     36  C   UNL d   1       3.074  -0.609   1.020  0.00  0.00     0.068 A 
ATOM     37  C   UNL d   1       2.715  -1.907   1.386  0.00  0.00     0.037 A 
ATOM     38  C   UNL d   1       3.563  -2.674   2.207  0.00  0.00     0.016 A 
BRANCH  36  39
ATOM     39  O   UNL d   1       2.403   0.186   0.134  0.00  0.00    -0.356 OA
ATOM     40  C   UNL d   1       0.987   0.073   0.089  0.00  0.00     0.210 C 
ENDBRANCH  36  39
ENDBRANCH  28  33
ENDBRANCH  25  26
ENDBRANCH  24  25
ENDBRANCH   1  24
TORSDOF 9
