REMARK  6 active torsions:
REMARK  status: ('A' for Active; 'I' for Inactive)
REMARK    1  A    between atoms: O_2  and  C_3 
REMARK       I    between atoms: C_3  and  N_5 
REMARK    2  A    between atoms: N_5  and  C_6 
REMARK    3  A    between atoms: C_8  and  N_9 
REMARK       I    between atoms: N_9  and  C_10 
REMARK    4  A    between atoms: C_10  and  C_12 
REMARK       I    between atoms: C_12  and  N_14 
REMARK    5  A    between atoms: N_14  and  C_15 
REMARK    6  A    between atoms: C_15  and  C_16 
ROOT
ATOM      1  N   UNL d   1       7.847  -1.500   4.650  0.00  0.00    -0.319 N 
ATOM      2  C   UNL d   1       8.421  -2.230   5.705  0.00  0.00     0.313 C 
ATOM      3  O   UNL d   1       8.188  -3.389   6.035  0.00  0.00    -0.262 OA
ATOM      4  H   UNL d   1       8.190  -0.550   4.537  0.00  0.00     0.169 HD
ENDROOT
BRANCH   2   5
ATOM      5  C   UNL d   1       9.493  -1.494   6.561  0.00  0.00     0.309 C 
ATOM      6  O   UNL d   1       9.950  -0.420   6.208  0.00  0.00    -0.262 OA
ATOM      7  N   UNL d   1       9.857  -2.205   7.692  0.00  0.00    -0.349 N 
ATOM      8  H   UNL d   1       9.326  -3.053   7.863  0.00  0.00     0.163 HD
BRANCH   7   9
ATOM      9  C   UNL d   1      11.053  -1.961   8.483  0.00  0.00     0.162 C 
BRANCH   9  10
ATOM     10  C   UNL d   1      11.415  -3.087   9.457  0.00  0.00    -0.029 C 
ATOM     11  C   UNL d   1      11.238  -4.458   9.132  0.00  0.00    -0.053 C 
ATOM     12  C   UNL d   1      10.790  -4.921   7.768  0.00  0.00     0.049 C 
ATOM     13  C   UNL d   1      11.428  -5.446  10.123  0.00  0.00     0.014 C 
ATOM     14  C   UNL d   1      11.910  -5.118  11.393  0.00  0.00    -0.061 C 
ATOM     15  C   UNL d   1      12.121  -6.152  12.460  0.00  0.00     0.048 C 
ATOM     16  C   UNL d   1      12.213  -3.784  11.668  0.00  0.00     0.014 C 
ATOM     17  C   UNL d   1      11.977  -2.768  10.723  0.00  0.00    -0.053 C 
ATOM     18  C   UNL d   1      12.329  -1.355  11.112  0.00  0.00     0.049 C 
ENDBRANCH   9  10
ENDBRANCH   7   9
ENDBRANCH   2   5
BRANCH   1  19
ATOM     19  C   UNL d   1       6.824  -1.980   3.762  0.00  0.00     0.037 A 
ATOM     20  C   UNL d   1       6.254  -1.158   2.746  0.00  0.00     0.062 A 
ATOM     21  C   UNL d   1       5.165  -1.636   1.962  0.00  0.00     0.077 A 
ATOM     22  C   UNL d   1       4.760  -2.968   2.117  0.00  0.00     0.143 A 
ATOM     23  C   UNL d   1       5.324  -3.781   3.075  0.00  0.00     0.047 A 
ATOM     24  F   UNL d   1       3.853  -3.511   1.291  0.00  0.00    -0.204 F 
ATOM     25  C   UNL d   1       6.325  -3.282   3.901  0.00  0.00     0.032 A 
BRANCH  21  26
ATOM     26  N   UNL d   1       4.431  -0.819   1.051  0.00  0.00    -0.300 N 
ATOM     27  C   UNL d   1       3.039  -0.859   1.027  0.00  0.00     0.364 C 
ATOM     28  O   UNL d   1       2.336  -1.473   1.829  0.00  0.00    -0.238 OA
ATOM     29  H   UNL d   1       4.891  -0.111   0.498  0.00  0.00     0.171 HD
BRANCH  27  30
ATOM     30  O   UNL d   1       2.506  -0.063   0.053  0.00  0.00    -0.309 OA
ATOM     31  C   UNL d   1       1.062  -0.062   0.055  0.00  0.00     0.215 C 
ENDBRANCH  27  30
ENDBRANCH  21  26
ENDBRANCH   1  19
TORSDOF 6
