REMARK  7 active torsions:
REMARK  status: ('A' for Active; 'I' for Inactive)
REMARK    1  A    between atoms: C_2  and  N_3 
REMARK    2  A    between atoms: N_3  and  S_4 
REMARK    3  A    between atoms: S_4  and  C_7 
REMARK    4  A    between atoms: C_9  and  C_10 
REMARK       I    between atoms: C_10  and  N_12 
REMARK    5  A    between atoms: N_12  and  C_13 
REMARK    6  A    between atoms: C_15  and  N_16 
REMARK    7  A    between atoms: C_25  and  O_26 
ROOT
ATOM      1  C   UNL d   1       5.339   1.690   2.512  0.00  0.00     0.108 C 
ATOM      2  C   UNL d   1       5.665   1.118   3.763  0.00  0.00     0.044 C 
ATOM      3  C   UNL d   1       5.738   1.890   4.948  0.00  0.00     0.034 C 
ATOM      4  C   UNL d   1       5.717   3.270   4.856  0.00  0.00     0.020 C 
ATOM      5  C   UNL d   1       5.456   3.852   3.616  0.00  0.00     0.039 C 
ATOM      6  C   UNL d   1       5.239   3.090   2.439  0.00  0.00     0.091 C 
ENDROOT
BRANCH   3   7
ATOM      7  C   UNL d   1       5.610   1.177   6.253  0.00  0.00     0.256 C 
ATOM      8  O   UNL d   1       5.322  -0.015   6.181  0.00  0.00    -0.267 OA
ATOM      9  N   UNL d   1       5.668   1.889   7.454  0.00  0.00    -0.322 N 
ATOM     10  H   UNL d   1       5.512   2.888   7.452  0.00  0.00     0.169 HD
BRANCH   9  11
ATOM     11  C   UNL d   1       5.703   1.262   8.732  0.00  0.00     0.043 A 
ATOM     12  C   UNL d   1       4.956   1.808   9.794  0.00  0.00     0.066 A 
ATOM     13  C   UNL d   1       5.092   1.275  11.093  0.00  0.00     0.105 A 
ATOM     14  C   UNL d   1       5.905   0.165  11.330  0.00  0.00     0.037 A 
ATOM     15  C   UNL d   1       6.652  -0.360  10.284  0.00  0.00     0.011 A 
ATOM     16  C   UNL d   1       6.575   0.183   8.991  0.00  0.00    -0.035 A 
ATOM     17  C   UNL d   1       7.495  -0.395   7.952  0.00  0.00     0.050 C 
BRANCH  13  18
ATOM     18  N   UNL d   1       4.472   1.940  12.249  0.00  0.00    -0.116 N 
ATOM     19  O   UNL d   1       3.783   2.946  12.035  0.00  0.00    -0.532 OA
ATOM     20  O   UNL d   1       4.714   1.482  13.377  0.00  0.00    -0.532 OA
ENDBRANCH  13  18
ENDBRANCH   9  11
ENDBRANCH   3   7
BRANCH   1  21
ATOM     21  S   UNL d   1       4.851   0.477   1.256  0.00  0.00     0.244 S 
ATOM     22  O   UNL d   1       5.049  -0.849   1.779  0.00  0.00    -0.206 OA
ATOM     23  O   UNL d   1       5.407   0.800  -0.047  0.00  0.00    -0.206 OA
BRANCH  21  24
ATOM     24  N   UNL d   1       3.145   0.693   1.191  0.00  0.00    -0.216 NA
ATOM     25  H   UNL d   1       2.749   0.318   2.057  0.00  0.00     0.139 HD
BRANCH  24  26
ATOM     26  C   UNL d   1       2.535   0.045  -0.004  0.00  0.00     0.100 C 
ATOM     27  C   UNL d   1       1.017   0.108   0.034  0.00  0.00     0.021 C 
ENDBRANCH  24  26
ENDBRANCH  21  24
ENDBRANCH   1  21
BRANCH   6  28
ATOM     28  O   UNL d   1       4.927   3.936   1.409  0.00  0.00    -0.354 OA
ATOM     29  C   UNL d   1       4.915   3.390   0.111  0.00  0.00     0.210 C 
ENDBRANCH   6  28
TORSDOF 7
