REMARK  9 active torsions:
REMARK  status: ('A' for Active; 'I' for Inactive)
REMARK    1  A    between atoms: C_2  and  O_3 
REMARK    2  A    between atoms: O_3  and  C_4 
REMARK    3  A    between atoms: C_7  and  C_8 
REMARK    4  A    between atoms: C_8  and  C_9 
REMARK    5  A    between atoms: C_9  and  N_10 
REMARK       I    between atoms: N_10  and  C_11 
REMARK    6  A    between atoms: C_11  and  C_13 
REMARK    7  A    between atoms: C_17  and  N_16 
REMARK    8  A    between atoms: C_30  and  O_31 
REMARK    9  A    between atoms: O_31  and  C_32 
ROOT
ATOM      1  C   UNL d   1      12.244   5.046  -8.136  0.00  0.00     0.081 C 
ATOM      2  C   UNL d   1      11.247   3.820  -7.608  0.00  0.00     0.033 C 
ATOM      3  C   UNL d   1      11.629   3.482  -6.187  0.00  0.00     0.121 C 
ATOM      4  N   UNL d   1      13.268   3.415  -6.166  0.00  0.00    -0.373 N 
ATOM      5  C   UNL d   1      13.703   4.867  -6.104  0.00  0.00     0.121 C 
ATOM      6  C   UNL d   1      13.729   5.246  -7.545  0.00  0.00     0.033 C 
ENDROOT
BRANCH   1   7
ATOM      7  C   UNL d   1      11.527   6.321  -8.152  0.00  0.00     0.221 C 
ATOM      8  N   UNL d   1      10.304   6.234  -8.751  0.00  0.00    -0.360 N 
ATOM      9  H   UNL d   1       9.975   5.430  -9.276  0.00  0.00     0.162 HD
ATOM     10  O   UNL d   1      12.054   7.362  -7.751  0.00  0.00    -0.273 OA
BRANCH   8  11
ATOM     11  C   UNL d   1       9.629   7.468  -8.858  0.00  0.00     0.127 C 
BRANCH  11  12
ATOM     12  C   UNL d   1       8.244   7.383  -9.451  0.00  0.00     0.058 C 
BRANCH  12  13
ATOM     13  C   UNL d   1       7.601   8.742  -9.459  0.00  0.00    -0.054 A 
ATOM     14  C   UNL d   1       6.344   8.921 -10.015  0.00  0.00     0.010 A 
ATOM     15  C   UNL d   1       5.817  10.216 -10.139  0.00  0.00     0.040 A 
ATOM     16  C   UNL d   1       6.484  11.361  -9.635  0.00  0.00     0.102 A 
ATOM     17  C   UNL d   1       7.734  11.157  -8.996  0.00  0.00     0.102 A 
ATOM     18  C   UNL d   1       8.258   9.866  -8.946  0.00  0.00     0.046 A 
BRANCH  16  19
ATOM     19  O   UNL d   1       5.674  12.488  -9.666  0.00  0.00    -0.349 OA
BRANCH  19  20
ATOM     20  C   UNL d   1       6.151  13.696 -10.256  0.00  0.00     0.171 C 
ATOM     21  C   UNL d   1       5.309  14.932 -10.043  0.00  0.00     0.034 C 
ENDBRANCH  19  20
ENDBRANCH  16  19
BRANCH  17  22
ATOM     22  O   UNL d   1       8.625  11.982  -8.311  0.00  0.00    -0.349 OA
BRANCH  22  23
ATOM     23  C   UNL d   1       8.288  13.311  -8.492  0.00  0.00     0.171 C 
ATOM     24  C   UNL d   1       9.066  14.488  -7.984  0.00  0.00     0.034 C 
ENDBRANCH  22  23
ENDBRANCH  17  22
ENDBRANCH  12  13
ENDBRANCH  11  12
ENDBRANCH   8  11
ENDBRANCH   1   7
BRANCH   4  25
ATOM     25  C   UNL d   1      14.229   2.061  -6.481  0.00  0.00     0.401 C 
ATOM     26  N   UNL d   1      15.349   1.578  -7.792  0.00  0.00    -0.247 NA
ATOM     27  C   UNL d   1      14.669   1.160  -8.823  0.00  0.00     0.035 C 
ATOM     28  H   UNL d   1      16.066   0.870  -7.513  0.00  0.00     0.131 HD
ATOM     29  C   UNL d   1      14.711   1.036 -10.365  0.00  0.00     0.024 C 
ATOM     30  C   UNL d   1      13.314   1.324  -8.327  0.00  0.00     0.262 C 
ATOM     31  C   UNL d   1      13.851   1.814 -11.086  0.00  0.00     0.025 C 
ATOM     32  C   UNL d   1      13.005   2.727 -10.398  0.00  0.00     0.033 C 
ATOM     33 CL   UNL d   1      12.031   3.872 -11.244  0.00  0.00    -0.085 Cl
ATOM     34  C   UNL d   1      12.923   2.506  -9.123  0.00  0.00     0.047 C 
ATOM     35  N   UNL d   1      13.207   1.165  -7.069  0.00  0.00     0.143 N 
ATOM     36  H   UNL d   1      13.467   0.286  -6.594  0.00  0.00     0.322 HD
ENDBRANCH   4  25
TORSDOF 9
