REMARK  6 active torsions:
REMARK  status: ('A' for Active; 'I' for Inactive)
REMARK    1  A    between atoms: O_2  and  C_3 
REMARK    2  A    between atoms: C_6  and  N_7 
REMARK       I    between atoms: N_7  and  C_8 
REMARK    3  A    between atoms: C_12  and  N_13 
REMARK       I    between atoms: N_13  and  C_14 
REMARK    4  A    between atoms: C_14  and  C_16 
REMARK    5  A    between atoms: N_23  and  C_24 
REMARK    6  A    between atoms: C_24  and  C_25 
ROOT
ATOM      1  C   UNL d   1      -0.247   1.907   1.977  0.00  0.00     0.077 C 
ATOM      2  C   UNL d   1      -0.672   1.249   3.116  0.00  0.00     0.110 C 
ATOM      3  N   UNL d   1      -1.907   1.707   3.469  0.00  0.00    -0.354 N 
ATOM      4  C   UNL d   1      -2.515   1.402   4.741  0.00  0.00     0.156 C 
ATOM      5  C   UNL d   1      -2.374   2.528   2.479  0.00  0.00     0.131 C 
ATOM      6  C   UNL d   1      -3.608   3.265   2.381  0.00  0.00     0.281 C 
ATOM      7  O   UNL d   1      -4.446   3.283   3.279  0.00  0.00    -0.265 OA
ATOM      8  N   UNL d   1      -3.736   3.990   1.180  0.00  0.00    -0.260 N 
ATOM      9  C   UNL d   1      -2.737   4.032   0.203  0.00  0.00     0.330 C 
ATOM     10  O   UNL d   1      -2.681   4.733  -0.804  0.00  0.00    -0.246 OA
ATOM     11  N   UNL d   1      -1.647   3.234   0.358  0.00  0.00    -0.305 N 
ATOM     12  C   UNL d   1      -1.398   2.567   1.512  0.00  0.00     0.086 C 
ATOM     13  H   UNL d   1      -1.009   3.241  -0.424  0.00  0.00     0.171 HD
ENDROOT
BRANCH   1  14
ATOM     14  C   UNL d   1       1.124   1.731   1.509  0.00  0.00     0.260 C 
ATOM     15  N   UNL d   1       1.511   2.523   0.438  0.00  0.00    -0.320 N 
ATOM     16  H   UNL d   1       1.121   3.453   0.371  0.00  0.00     0.169 HD
ATOM     17  O   UNL d   1       1.841   0.903   2.030  0.00  0.00    -0.267 OA
BRANCH  15  18
ATOM     18  C   UNL d   1       2.582   2.171  -0.425  0.00  0.00     0.070 C 
ATOM     19  C   UNL d   1       3.286   3.238  -0.981  0.00  0.00     0.062 C 
ATOM     20  C   UNL d   1       4.303   3.105  -1.923  0.00  0.00     0.037 C 
ATOM     21  C   UNL d   1       4.803   1.820  -2.124  0.00  0.00     0.032 C 
ATOM     22  C   UNL d   1       4.139   0.718  -1.550  0.00  0.00     0.041 C 
ATOM     23  C   UNL d   1       2.980   0.882  -0.768  0.00  0.00     0.095 C 
BRANCH  20  24
ATOM     24  N   UNL d   1       4.833   4.194  -2.655  0.00  0.00    -0.327 N 
ATOM     25  C   UNL d   1       4.418   5.495  -2.792  0.00  0.00     0.218 C 
ATOM     26  C   UNL d   1       3.227   6.070  -2.064  0.00  0.00     0.117 C 
ATOM     27  O   UNL d   1       5.054   6.235  -3.552  0.00  0.00    -0.274 OA
ATOM     28  H   UNL d   1       5.601   3.993  -3.292  0.00  0.00     0.169 HD
ENDBRANCH  20  24
BRANCH  23  29
ATOM     29  O   UNL d   1       2.375  -0.276  -0.369  0.00  0.00    -0.354 OA
ATOM     30  C   UNL d   1       0.953  -0.327  -0.472  0.00  0.00     0.210 C 
ENDBRANCH  23  29
ENDBRANCH  15  18
ENDBRANCH   1  14
BRANCH   8  31
ATOM     31  C   UNL d   1      -4.966   4.781   1.061  0.00  0.00     0.175 C 
BRANCH  31  32
ATOM     32  C   UNL d   1      -5.194   5.478  -0.255  0.00  0.00    -0.040 A 
ATOM     33  C   UNL d   1      -5.226   6.874  -0.342  0.00  0.00     0.009 A 
ATOM     34  C   UNL d   1      -5.369   7.487  -1.587  0.00  0.00     0.001 A 
ATOM     35  C   UNL d   1      -5.347   6.721  -2.753  0.00  0.00     0.000 A 
ATOM     36  C   UNL d   1      -5.272   5.334  -2.679  0.00  0.00     0.001 A 
ATOM     37  C   UNL d   1      -5.262   4.715  -1.435  0.00  0.00     0.009 A 
ENDBRANCH  31  32
ENDBRANCH   8  31
TORSDOF 6
