REMARK  6 active torsions:
REMARK  status: ('A' for Active; 'I' for Inactive)
REMARK    1  A    between atoms: C_3  and  N_4 
REMARK       I    between atoms: N_4  and  C_5 
REMARK    2  A    between atoms: C_5  and  C_7 
REMARK       I    between atoms: C_7  and  N_9 
REMARK    3  A    between atoms: N_9  and  C_10 
REMARK    4  A    between atoms: C_10  and  C_11 
REMARK    5  A    between atoms: C_11  and  C_12 
REMARK    6  A    between atoms: C_24  and  N_25 
ROOT
ATOM      1  C   UNL d   1       3.120  -4.100  -0.017  0.00  0.00     0.309 C 
ATOM      2  O   UNL d   1       2.436  -5.083  -0.024  0.00  0.00    -0.262 OA
ATOM      3  N   UNL d   1       4.519  -3.987  -0.083  0.00  0.00    -0.353 N 
ATOM      4  H   UNL d   1       4.895  -3.047   0.044  0.00  0.00     0.162 HD
ENDROOT
BRANCH   1   5
ATOM      5  C   UNL d   1       2.561  -2.697   0.152  0.00  0.00     0.313 C 
ATOM      6  N   UNL d   1       1.179  -2.443   0.026  0.00  0.00    -0.318 N 
ATOM      7  H   UNL d   1       0.611  -3.288  -0.025  0.00  0.00     0.169 HD
ATOM      8  O   UNL d   1       3.511  -1.961   0.430  0.00  0.00    -0.262 OA
BRANCH   6   9
ATOM      9  C   UNL d   1       0.443  -1.170   0.030  0.00  0.00     0.043 A 
ATOM     10  C   UNL d   1       1.021   0.140   0.009  0.00  0.00    -0.002 A 
ATOM     11  C   UNL d   1       2.480   0.341  -0.080  0.00  0.00     0.053 C 
ATOM     12  C   UNL d   1       0.240   1.325   0.016  0.00  0.00     0.111 A 
ATOM     13  C   UNL d   1      -1.148   1.234   0.008  0.00  0.00     0.037 A 
ATOM     14  C   UNL d   1      -1.748  -0.028  -0.003  0.00  0.00     0.005 A 
ATOM     15  C   UNL d   1      -0.971  -1.213   0.009  0.00  0.00     0.030 A 
BRANCH  12  16
ATOM     16  N   UNL d   1       0.869   2.685   0.009  0.00  0.00    -0.115 N 
ATOM     17  O   UNL d   1       0.110   3.661  -0.011  0.00  0.00    -0.532 OA
ATOM     18  O   UNL d   1       2.102   2.800   0.027  0.00  0.00    -0.532 OA
ENDBRANCH  12  16
ENDBRANCH   6   9
ENDBRANCH   1   5
BRANCH   3  19
ATOM     19  C   UNL d   1       5.367  -5.107  -0.003  0.00  0.00     0.128 C 
BRANCH  19  20
ATOM     20  C   UNL d   1       6.873  -4.876   0.012  0.00  0.00     0.060 C 
BRANCH  20  21
ATOM     21  C   UNL d   1       7.604  -6.191   0.023  0.00  0.00    -0.029 A 
ATOM     22  C   UNL d   1       8.974  -6.365  -0.033  0.00  0.00     0.096 A 
ATOM     23  N   UNL d   1       9.238  -7.711   0.009  0.00  0.00    -0.365 N 
ATOM     24  C   UNL d   1       8.065  -8.431   0.033  0.00  0.00     0.042 A 
ATOM     25  H   UNL d   1      10.162  -8.120  -0.006  0.00  0.00     0.165 HD
ATOM     26  C   UNL d   1       7.831  -9.816   0.027  0.00  0.00     0.030 A 
ATOM     27  C   UNL d   1       7.021  -7.511   0.058  0.00  0.00    -0.002 A 
ATOM     28  C   UNL d   1       6.503 -10.268   0.021  0.00  0.00     0.002 A 
ATOM     29  C   UNL d   1       5.445  -9.382   0.053  0.00  0.00     0.001 A 
ATOM     30  C   UNL d   1       5.701  -8.023   0.087  0.00  0.00     0.014 A 
ENDBRANCH  20  21
ENDBRANCH  19  20
ENDBRANCH   3  19
TORSDOF 6
