REMARK  8 active torsions:
REMARK  status: ('A' for Active; 'I' for Inactive)
REMARK    1  A    between atoms: C_5  and  N_6 
REMARK       I    between atoms: N_6  and  C_7 
REMARK    2  A    between atoms: C_7  and  C_9 
REMARK    3  A    between atoms: C_9  and  C_10 
REMARK    4  A    between atoms: C_10  and  C_11 
REMARK       I    between atoms: C_11  and  N_13 
REMARK    5  A    between atoms: N_13  and  N_14 
REMARK       I    between atoms: N_14  and  C_15 
REMARK    6  A    between atoms: C_15  and  C_17 
REMARK    7  A    between atoms: C_17  and  C_18 
REMARK    8  A    between atoms: C_18  and  C_19 
ROOT
ATOM      1  C   UNL d   1      -8.223  -1.441  -0.212  0.00  0.00     0.236 C 
ATOM      2  O   UNL d   1      -8.251  -2.673  -0.254  0.00  0.00    -0.272 OA
ATOM      3  N   UNL d   1      -9.381  -0.678  -0.215  0.00  0.00    -0.268 N 
ATOM      4  H   UNL d   1      -9.405   0.342  -0.182  0.00  0.00     0.190 HD
ENDROOT
BRANCH   1   5
ATOM      5  C   UNL d   1      -6.920  -0.657  -0.152  0.00  0.00     0.114 C 
BRANCH   5   6
ATOM      6  C   UNL d   1      -5.655  -1.562  -0.149  0.00  0.00     0.112 C 
BRANCH   6   7
ATOM      7  C   UNL d   1      -4.406  -0.693  -0.086  0.00  0.00     0.222 C 
ATOM      8  N   UNL d   1      -3.170  -1.346  -0.065  0.00  0.00    -0.327 N 
ATOM      9  H   UNL d   1      -3.148  -2.359  -0.105  0.00  0.00     0.169 HD
ATOM     10  O   UNL d   1      -4.563   0.528  -0.059  0.00  0.00    -0.273 OA
BRANCH   8  11
ATOM     11  C   UNL d   1      -1.902  -0.675  -0.020  0.00  0.00     0.035 A 
ATOM     12  C   UNL d   1      -1.815   0.717   0.022  0.00  0.00     0.030 A 
ATOM     13  C   UNL d   1      -0.599   1.391   0.024  0.00  0.00     0.009 A 
ATOM     14  C   UNL d   1       0.602   0.691   0.002  0.00  0.00    -0.056 A 
ATOM     15  C   UNL d   1       1.879   1.482  -0.015  0.00  0.00     0.049 C 
ATOM     16  C   UNL d   1       0.564  -0.718  -0.002  0.00  0.00    -0.054 A 
ATOM     17  C   UNL d   1      -0.690  -1.392  -0.020  0.00  0.00     0.037 A 
ATOM     18  C   UNL d   1       1.857  -1.493   0.020  0.00  0.00     0.049 C 
ENDBRANCH   8  11
ENDBRANCH   6   7
ENDBRANCH   5   6
ENDBRANCH   1   5
BRANCH   3  19
ATOM     19  N   UNL d   1     -10.640  -1.330  -0.270  0.00  0.00    -0.268 N 
ATOM     20  C   UNL d   1     -11.800  -0.570  -0.279  0.00  0.00     0.236 C 
ATOM     21  O   UNL d   1     -11.780   0.663  -0.233  0.00  0.00    -0.272 OA
ATOM     22  H   UNL d   1     -10.621  -2.349  -0.305  0.00  0.00     0.190 HD
BRANCH  20  23
ATOM     23  C   UNL d   1     -13.084  -1.376  -0.349  0.00  0.00     0.109 C 
BRANCH  23  24
ATOM     24  C   UNL d   1     -14.357  -0.505  -0.371  0.00  0.00     0.048 C 
BRANCH  24  25
ATOM     25  C   UNL d   1     -15.660  -1.287  -0.406  0.00  0.00    -0.058 A 
ATOM     26  C   UNL d   1     -16.891  -0.612  -0.341  0.00  0.00     0.007 A 
ATOM     27  C   UNL d   1     -18.089  -1.329  -0.225  0.00  0.00     0.001 A 
ATOM     28  C   UNL d   1     -18.080  -2.722  -0.255  0.00  0.00     0.000 A 
ATOM     29  C   UNL d   1     -16.874  -3.401  -0.369  0.00  0.00     0.001 A 
ATOM     30  C   UNL d   1     -15.680  -2.689  -0.440  0.00  0.00     0.007 A 
ENDBRANCH  24  25
ENDBRANCH  23  24
ENDBRANCH  20  23
ENDBRANCH   3  19
TORSDOF 8
