@<TRIPOS>MOLECULE
*****
 46 48 0 0 0
SMALL
GASTEIGER

@<TRIPOS>ATOM
      1 C           2.4871    0.0016   -0.0152 C.3     1  UNL1       -0.0395
      2 C           0.9885   -0.0028    0.0226 C.ar    1  UNL1       -0.0440
      3 C           0.2709   -1.2015    0.0413 C.ar    1  UNL1       -0.0577
      4 C          -1.1236   -1.1903    0.0869 C.ar    1  UNL1       -0.0443
      5 C          -1.8303    0.0223    0.1234 C.ar    1  UNL1        0.0942
      6 C          -3.2566   -0.0382   -0.0715 C.ar    1  UNL1        0.1422
      7 C          -3.9599    0.4460   -1.1292 C.ar    1  UNL1       -0.0150
      8 C          -5.2808    0.3310   -0.7453 C.ar    1  UNL1       -0.0158
      9 C          -5.4078   -0.3340    0.4731 C.ar    1  UNL1        0.1300
     10 C          -6.5968   -0.7074    1.2232 C.2     1  UNL1        0.0031
     11 C          -7.8628   -0.4397    0.8007 C.2     1  UNL1        0.1171
     12 C          -8.0027    0.3130   -0.5124 C.1     1  UNL1        0.1045
     13 N          -8.1187    0.9375   -1.6017 N.1     1  UNL1       -0.1907
     14 C          -9.0683   -0.8451    1.6020 C.2     1  UNL1        0.2587
     15 O          -8.8945   -1.4482    2.6632 O.2     1  UNL1       -0.2691
     16 N         -10.3343   -0.5789    1.0799 N.am    1  UNL1       -0.2797
     17 C         -11.5404   -0.9395    1.7655 C.ar    1  UNL1        0.0527
     18 C         -11.6344   -0.7697    3.1527 C.ar    1  UNL1       -0.0274
     19 C         -12.7981   -1.1100    3.8674 C.ar    1  UNL1        0.0566
     20 C         -12.8587   -0.9085    5.3628 C.3     1  UNL1        0.4175
     21 F         -13.8859   -0.0953    5.7345 F       1  UNL1       -0.1659
     22 F         -13.0405   -2.0757    6.0381 F       1  UNL1       -0.1659
     23 F         -11.7333   -0.3442    5.8811 F       1  UNL1       -0.1659
     24 C         -13.8922   -1.6438    3.1747 C.ar    1  UNL1       -0.0486
     25 C         -13.8237   -1.8143    1.7898 C.ar    1  UNL1       -0.0411
     26 C         -12.6637   -1.4456    1.0865 C.ar    1  UNL1        0.0622
     27 CL        -12.6258   -1.7337   -0.6163 Cl      1  UNL1       -0.0816
     28 O          -4.0854   -0.5725    0.8812 O.2     1  UNL1       -0.4552
     29 C          -1.1083    1.2386    0.0930 C.ar    1  UNL1        0.2840
     30 N          -1.7556    2.5774    0.0913 N.pl3   1  UNL1        0.0803
     31 O          -2.9779    2.6783    0.1885 O.2     1  UNL1        0.0415
     32 O          -1.0039    3.5663   -0.0030 O.co2   1  UNL1       -0.5760
     33 C           0.2950    1.2127    0.0419 C.ar    1  UNL1        0.0192
     34 H           2.8892   -1.0158   -0.0033 H       1  UNL1        0.0278
     35 H           2.8770    0.5287    0.8615 H       1  UNL1        0.0278
     36 H           2.8425    0.4980   -0.9236 H       1  UNL1        0.0278
     37 H           0.7914   -2.1565    0.0028 H       1  UNL1        0.0620
     38 H          -1.6629   -2.1365    0.0395 H       1  UNL1        0.0627
     39 H          -3.5909    0.9644   -2.0012 H       1  UNL1        0.0656
     40 H          -6.0097    0.7701   -1.3841 H       1  UNL1        0.0655
     41 H          -6.4426   -1.2317    2.1657 H       1  UNL1        0.0669
     42 H         -10.4514   -0.3151    0.1051 H       1  UNL1        0.1552
     43 H         -10.7981   -0.3372    3.6998 H       1  UNL1        0.0642
     44 H         -14.7964   -1.9303    3.7136 H       1  UNL1        0.0623
     45 H         -14.6762   -2.2511    1.2708 H       1  UNL1        0.0633
     46 H           0.8639    2.1416    0.0073 H       1  UNL1        0.0688
@<TRIPOS>UNITY_ATOM_ATTR
30 1
charge 1
32 1
charge -1
@<TRIPOS>BOND
     1     1     2    1
     2     2     3   ar
     3     3     4   ar
     4     4     5   ar
     5     5     6    1
     6     6     7   ar
     7     7     8   ar
     8     8     9   ar
     9     9    10    1
    10    10    11    2
    11    11    12    1
    12    12    13    3
    13    11    14    1
    14    14    15    2
    15    14    16   am
    16    16    17    1
    17    17    18   ar
    18    18    19   ar
    19    19    20    1
    20    20    21    1
    21    20    22    1
    22    20    23    1
    23    19    24   ar
    24    24    25   ar
    25    25    26   ar
    26    17    26   ar
    27    26    27    1
    28     9    28   ar
    29     6    28   ar
    30     5    29   ar
    31    29    30    1
    32    30    31    2
    33    30    32    1
    34    29    33   ar
    35     2    33   ar
    36     1    34    1
    37     1    35    1
    38     1    36    1
    39     3    37    1
    40     4    38    1
    41     7    39    1
    42     8    40    1
    43    10    41    1
    44    16    42    1
    45    18    43    1
    46    24    44    1
    47    25    45    1
    48    33    46    1
