@<TRIPOS>MOLECULE
*****
 54 57 0 0 0
SMALL
GASTEIGER

@<TRIPOS>ATOM
      1 O           1.0937    0.1515    0.3079 O.2     1  UNL1       -0.2885
      2 C           2.3072   -0.0420    0.3745 C.2     1  UNL1        0.2038
      3 C           2.9810   -1.4224   -0.0432 C.3     1  UNL1        0.1550
      4 O           2.2239   -2.6320   -0.1303 O.3     1  UNL1       -0.4531
      5 C           2.7799   -3.6089   -0.9300 C.2     1  UNL1        0.3414
      6 O           3.9420   -3.6918   -1.2292 O.2     1  UNL1       -0.2449
      7 C           1.7111   -4.5411   -1.4194 C.ar    1  UNL1        0.0798
      8 C           1.8980   -5.8864   -1.0407 C.ar    1  UNL1       -0.0460
      9 C           1.0567   -6.8875   -1.5289 C.ar    1  UNL1       -0.0609
     10 C          -0.0179   -6.5490   -2.3398 C.ar    1  UNL1       -0.0600
     11 C          -0.2172   -5.2179   -2.7120 C.ar    1  UNL1       -0.0401
     12 C           0.6359   -4.1781   -2.2828 C.ar    1  UNL1        0.0413
     13 N           0.4072   -2.9328   -2.9201 N.pl3   1  UNL1       -0.3410
     14 C           1.0522   -1.7692   -2.3749 C.3     1  UNL1        0.0323
     15 C           0.6627   -0.4107   -2.9073 C.3     1  UNL1        0.0596
     16 O           1.5861    0.5707   -2.3977 O.3     1  UNL1       -0.3935
     17 C           3.1536    1.1567    0.6855 C.2     1  UNL1        0.0836
     18 C           4.4854    1.0795    0.4743 C.ar    1  UNL1        0.0590
     19 C           5.4143    0.0728    0.0566 C.ar    1  UNL1       -0.0477
     20 C           6.7139    0.2074    0.3070 C.ar    1  UNL1       -0.0608
     21 C           7.2458    1.4725    0.7344 C.ar    1  UNL1       -0.0555
     22 C           6.4796    2.5679    0.9138 C.ar    1  UNL1        0.0099
     23 C           5.0103    2.4240    0.7457 C.ar    1  UNL1        0.2095
     24 N           4.0717    3.2803    0.8457 N.2     1  UNL1       -0.2297
     25 C           2.7051    2.6287    0.7353 C.3     1  UNL1        0.2084
     26 C           1.7216    3.6226    1.3686 C.ar    1  UNL1        0.0246
     27 C           1.6808    4.8949    0.6894 C.ar    1  UNL1       -0.0519
     28 C           1.0489    6.0315    1.1984 C.ar    1  UNL1       -0.0613
     29 C           0.3033    5.9137    2.3538 C.ar    1  UNL1       -0.0617
     30 C           0.2016    4.6619    2.9736 C.ar    1  UNL1       -0.0613
     31 C           0.9067    3.5218    2.4947 C.ar    1  UNL1       -0.0519
     32 H           3.7687   -1.6374    0.6762 H       1  UNL1        0.0782
     33 H           3.3882   -1.2166   -1.0513 H       1  UNL1        0.0782
     34 H           2.7167   -6.1670   -0.3803 H       1  UNL1        0.0626
     35 H           1.2496   -7.9326   -1.2963 H       1  UNL1        0.0618
     36 H          -0.6910   -7.3204   -2.7084 H       1  UNL1        0.0618
     37 H          -1.0415   -4.9969   -3.3883 H       1  UNL1        0.0636
     38 H          -0.5608   -2.7913   -3.1962 H       1  UNL1        0.1462
     39 H           2.1259   -1.8764   -2.5471 H       1  UNL1        0.0484
     40 H           0.7794   -1.7170   -1.3233 H       1  UNL1        0.0484
     41 H          -0.3305   -0.1424   -2.5371 H       1  UNL1        0.0573
     42 H           0.6880   -0.3847   -3.9935 H       1  UNL1        0.0573
     43 H           1.2334    0.7686   -1.5086 H       1  UNL1        0.2095
     44 H           5.1709   -0.8351   -0.4704 H       1  UNL1        0.0626
     45 H           7.3646   -0.6463    0.1266 H       1  UNL1        0.0618
     46 H           8.3298    1.4923    0.8198 H       1  UNL1        0.0620
     47 H           6.9406    3.5058    1.1958 H       1  UNL1        0.0683
     48 H           4.2408    4.2562    1.0943 H       1  UNL1        0.4466
     49 H           2.3140    2.6995   -0.2830 H       1  UNL1        0.1174
     50 H           2.1657    5.0180   -0.2832 H       1  UNL1        0.0623
     51 H           1.1411    6.9955    0.6970 H       1  UNL1        0.0618
     52 H          -0.2151    6.7863    2.7534 H       1  UNL1        0.0618
     53 H          -0.4324    4.5886    3.8595 H       1  UNL1        0.0618
     54 H           0.7639    2.5854    3.0258 H       1  UNL1        0.0623
@<TRIPOS>UNITY_ATOM_ATTR
24 1
charge 1
@<TRIPOS>BOND
     1     1     2    2
     2     2     3    1
     3     3     4    1
     4     4     5    1
     5     5     6    2
     6     5     7    1
     7     7     8   ar
     8     8     9   ar
     9     9    10   ar
    10    10    11   ar
    11    11    12   ar
    12     7    12   ar
    13    12    13    1
    14    13    14    1
    15    14    15    1
    16    15    16    1
    17     2    17    1
    18    17    18    2
    19    18    19   ar
    20    19    20   ar
    21    20    21   ar
    22    21    22   ar
    23    22    23   ar
    24    18    23   ar
    25    23    24    2
    26    24    25    1
    27    17    25    1
    28    26    27   ar
    29    27    28   ar
    30    28    29   ar
    31    29    30   ar
    32    30    31   ar
    33    26    31   ar
    34    25    26    1
    35     3    32    1
    36     3    33    1
    37     8    34    1
    38     9    35    1
    39    10    36    1
    40    11    37    1
    41    13    38    1
    42    14    39    1
    43    14    40    1
    44    15    41    1
    45    15    42    1
    46    16    43    1
    47    19    44    1
    48    20    45    1
    49    21    46    1
    50    22    47    1
    51    24    48    1
    52    25    49    1
    53    27    50    1
    54    28    51    1
    55    29    52    1
    56    30    53    1
    57    31    54    1
