REMARK  9 active torsions:
REMARK  status: ('A' for Active; 'I' for Inactive)
REMARK    1  A    between atoms: C_2  and  C_3 
REMARK    2  A    between atoms: C_3  and  C_4 
REMARK    3  A    between atoms: C_4  and  C_5 
REMARK    4  A    between atoms: C_5  and  C_6 
REMARK    5  A    between atoms: C_6  and  N_7 
REMARK    6  A    between atoms: C_8  and  S_9 
REMARK    7  A    between atoms: S_9  and  C_10 
REMARK    8  A    between atoms: C_10  and  C_11 
REMARK    9  A    between atoms: C_24  and  C_25 
ROOT
ATOM      1  N   UNL d   1       7.106   4.518   1.890  0.00  0.00    -0.307 N 
ATOM      2  C   UNL d   1       6.647   5.693   1.329  0.00  0.00     0.191 C 
ATOM      3  N   UNL d   1       7.411   6.643   1.852  0.00  0.00    -0.122 NA
ATOM      4  N   UNL d   1       8.417   6.067   2.629  0.00  0.00    -0.128 NA
ATOM      5  C   UNL d   1       8.342   4.760   2.491  0.00  0.00     0.164 C 
ENDROOT
BRANCH   2   6
ATOM      6  S   UNL d   1       5.173   6.137   0.434  0.00  0.00    -0.088 SA
BRANCH   6   7
ATOM      7  C   UNL d   1       4.125   4.918  -0.664  0.00  0.00     0.116 C 
BRANCH   7   8
ATOM      8  C   UNL d   1       3.168   3.538  -1.299  0.00  0.00     0.177 C 
ATOM      9  N   UNL d   1       3.856   1.855  -1.196  0.00  0.00    -0.378 N 
ATOM     10  C   UNL d   1       4.837   1.205  -1.787  0.00  0.00     0.032 C 
ATOM     11  H   UNL d   1       3.103   1.159  -1.214  0.00  0.00     0.160 HD
ATOM     12  C   UNL d   1       5.993   0.517  -1.061  0.00  0.00     0.026 C 
ATOM     13  C   UNL d   1       5.028   2.100  -2.920  0.00  0.00     0.095 C 
ATOM     14  C   UNL d   1       6.598   1.530  -0.436  0.00  0.00    -0.002 C 
ATOM     15  C   UNL d   1       6.358   2.885  -0.980  0.00  0.00    -0.019 C 
ATOM     16  C   UNL d   1       5.899   3.132  -2.235  0.00  0.00     0.050 C 
ATOM     17  N   UNL d   1       3.906   2.293  -3.586  0.00  0.00    -0.243 NA
ATOM     18  C   UNL d   1       2.739   3.230  -2.772  0.00  0.00     0.222 C 
ATOM     19  H   UNL d   1       3.229   1.513  -3.724  0.00  0.00     0.131 HD
ATOM     20  O   UNL d   1       1.756   3.485  -3.360  0.00  0.00    -0.277 OA
ENDBRANCH   7   8
ENDBRANCH   6   7
ENDBRANCH   2   6
BRANCH   1  21
ATOM     21  C   UNL d   1       6.703   3.140   1.758  0.00  0.00     0.133 C 
BRANCH  21  22
ATOM     22  C   UNL d   1       5.067   2.791   1.894  0.00  0.00     0.020 C 
BRANCH  22  23
ATOM     23  C   UNL d   1       4.308   1.415   1.524  0.00  0.00     0.002 C 
BRANCH  23  24
ATOM     24  C   UNL d   1       2.779   1.344   1.116  0.00  0.00    -0.000 C 
BRANCH  24  25
ATOM     25  C   UNL d   1       2.365  -0.025   0.402  0.00  0.00    -0.005 C 
ATOM     26  C   UNL d   1       0.875   0.006   0.159  0.00  0.00     0.005 C 
ENDBRANCH  24  25
ENDBRANCH  23  24
ENDBRANCH  22  23
ENDBRANCH  21  22
ENDBRANCH   1  21
BRANCH   5  27
ATOM     27  C   UNL d   1       9.160   3.675   3.112  0.00  0.00     0.012 C 
ATOM     28  C   UNL d   1       9.846   2.656   2.393  0.00  0.00     0.017 C 
ATOM     29  C   UNL d   1      10.401   1.537   3.055  0.00  0.00     0.025 C 
ATOM     30  C   UNL d   1      10.379   1.488   4.445  0.00  0.00     0.034 C 
ATOM     31 CL   UNL d   1      11.107   0.173   5.281  0.00  0.00    -0.084 Cl
ATOM     32  C   UNL d   1       9.752   2.502   5.162  0.00  0.00     0.025 C 
ATOM     33  C   UNL d   1       9.068   3.526   4.496  0.00  0.00     0.017 C 
ENDBRANCH   5  27
TORSDOF 9
