@<TRIPOS>MOLECULE
*****
 33 34 0 0 0
SMALL
GASTEIGER

@<TRIPOS>ATOM
      1 C           1.8523    1.5008   -0.0143 C.3     1  UNL1       -0.0395
      2 C           0.5724    0.7105    0.0045 C.ar    1  UNL1       -0.0475
      3 C          -0.6560    1.3887    0.0257 C.ar    1  UNL1       -0.0579
      4 C          -1.8721    0.6945    0.0248 C.ar    1  UNL1       -0.0494
      5 C          -1.8834   -0.7006   -0.0144 C.ar    1  UNL1        0.0373
      6 C          -3.1373   -1.5220   -0.0782 C.2     1  UNL1        0.2483
      7 O          -3.0071   -2.7416   -0.2162 O.2     1  UNL1       -0.2699
      8 N          -4.3656   -0.8611   -0.0830 N.am    1  UNL1       -0.2785
      9 C          -5.6002   -1.5592   -0.1165 C.ar    1  UNL1        0.0770
     10 C          -6.6227   -1.1059   -0.9597 C.ar    1  UNL1       -0.0185
     11 C          -7.8222   -1.8233   -1.0407 C.ar    1  UNL1        0.0430
     12 CL         -9.0653   -1.3087   -2.1176 Cl      1  UNL1       -0.0835
     13 C          -8.0262   -2.9674   -0.2689 C.ar    1  UNL1       -0.0398
     14 C          -7.0298   -3.3971    0.6050 C.ar    1  UNL1       -0.0170
     15 C          -5.8355   -2.6829    0.6915 C.ar    1  UNL1        0.1381
     16 O          -4.9368   -3.0116    1.6702 O.3     1  UNL1       -0.5049
     17 C          -0.6492   -1.3814   -0.0130 C.ar    1  UNL1       -0.0465
     18 C           0.5788   -0.6949    0.0026 C.ar    1  UNL1       -0.0468
     19 C           1.8678   -1.4729    0.0211 C.3     1  UNL1       -0.0394
     20 H           1.6570    2.5782   -0.0260 H       1  UNL1        0.0278
     21 H           2.4330    1.2637   -0.9119 H       1  UNL1        0.0278
     22 H           2.4495    1.2815    0.8761 H       1  UNL1        0.0278
     23 H          -0.6746    2.4768    0.0416 H       1  UNL1        0.0620
     24 H          -2.7833    1.2786    0.0510 H       1  UNL1        0.0625
     25 H          -4.3993    0.1261   -0.2828 H       1  UNL1        0.1552
     26 H          -6.4794   -0.2386   -1.5977 H       1  UNL1        0.0652
     27 H          -8.9614   -3.5181   -0.3301 H       1  UNL1        0.0633
     28 H          -7.2040   -4.2672    1.2294 H       1  UNL1        0.0655
     29 H          -5.1093   -3.9154    1.9728 H       1  UNL1        0.2922
     30 H          -0.6454   -2.4720   -0.0268 H       1  UNL1        0.0628
     31 H           1.6898   -2.5533    0.0263 H       1  UNL1        0.0278
     32 H           2.4421   -1.2314    0.9218 H       1  UNL1        0.0278
     33 H           2.4693   -1.2411   -0.8638 H       1  UNL1        0.0278
@<TRIPOS>BOND
     1     1     2    1
     2     2     3   ar
     3     3     4   ar
     4     4     5   ar
     5     5     6    1
     6     6     7    2
     7     6     8   am
     8     8     9    1
     9     9    10   ar
    10    10    11   ar
    11    11    12    1
    12    11    13   ar
    13    13    14   ar
    14    14    15   ar
    15     9    15   ar
    16    15    16    1
    17     5    17   ar
    18    17    18   ar
    19     2    18   ar
    20    18    19    1
    21     1    20    1
    22     1    21    1
    23     1    22    1
    24     3    23    1
    25     4    24    1
    26     8    25    1
    27    10    26    1
    28    13    27    1
    29    14    28    1
    30    16    29    1
    31    17    30    1
    32    19    31    1
    33    19    32    1
    34    19    33    1
