@<TRIPOS>MOLECULE
*****
 60 63 0 0 0
SMALL
GASTEIGER

@<TRIPOS>ATOM
      1 C           2.4949    1.1017   -0.0103 C.3     1  UNL1       -0.0396
      2 C           1.1762    0.3860   -0.0605 C.ar    1  UNL1       -0.0484
      3 C          -0.0431    1.0422   -0.0147 C.ar    1  UNL1       -0.0558
      4 C          -1.2359    0.2996   -0.0123 C.ar    1  UNL1       -0.0484
      5 C          -2.5510    1.0259    0.0013 C.3     1  UNL1       -0.0396
      6 C          -1.2023   -1.1203   -0.0452 C.ar    1  UNL1       -0.0375
      7 C           0.0142   -1.8033   -0.1393 C.ar    1  UNL1        0.0353
      8 N           0.0716   -3.2503   -0.1545 N.am    1  UNL1       -0.2692
      9 C           1.2525   -3.9761   -0.3522 C.2     1  UNL1        0.3082
     10 O           2.3034   -3.4598   -0.7362 O.2     1  UNL1       -0.2522
     11 N           1.1945   -5.3358   -0.0576 N.am    1  UNL1       -0.2675
     12 C           2.4263   -6.0900    0.0490 C.ar    1  UNL1        0.0576
     13 C           2.6035   -7.2925   -0.7130 C.ar    1  UNL1       -0.0174
     14 C           3.7746   -8.0809   -0.5797 C.ar    1  UNL1        0.0355
     15 N           3.9045   -9.3817   -1.1770 N.am    1  UNL1       -0.2814
     16 C           4.9302  -10.2856   -0.8731 C.2     1  UNL1        0.2483
     17 O           5.8982  -10.0897   -0.1286 O.2     1  UNL1       -0.2699
     18 C           4.9071  -11.6440   -1.4625 C.ar    1  UNL1        0.0372
     19 C           5.4003  -12.7137   -0.6839 C.ar    1  UNL1       -0.0469
     20 C           5.6234  -13.9651   -1.2583 C.ar    1  UNL1       -0.0257
     21 C           5.2926  -14.1609   -2.5917 C.ar    1  UNL1        0.1234
     22 F           5.4503  -15.3737   -3.1372 F       1  UNL1       -0.2055
     23 C           4.7974  -13.1156   -3.3706 C.ar    1  UNL1       -0.0257
     24 C           4.6133  -11.8462   -2.8114 C.ar    1  UNL1       -0.0469
     25 C           4.7964   -7.5745    0.2148 C.ar    1  UNL1       -0.0386
     26 C           4.6366   -6.4116    0.9561 C.ar    1  UNL1       -0.0371
     27 C           3.4626   -5.6543    0.9230 C.ar    1  UNL1        0.0514
     28 N           3.4297   -4.5872    1.8015 N.pl3   1  UNL1       -0.3285
     29 C           2.3266   -4.2537    2.6792 C.3     1  UNL1        0.0123
     30 C           2.1763   -2.7542    2.5284 C.3     1  UNL1       -0.0358
     31 C           3.5766   -2.2545    2.2166 C.3     1  UNL1       -0.0358
     32 C           4.2882   -3.4291    1.5391 C.3     1  UNL1        0.0123
     33 C           1.1757   -1.0104   -0.1490 C.ar    1  UNL1       -0.0375
     34 H           2.3721    2.1876   -0.0220 H       1  UNL1        0.0278
     35 H           3.1060    0.8179   -0.8742 H       1  UNL1        0.0278
     36 H           3.0400    0.8355    0.9028 H       1  UNL1        0.0278
     37 H          -0.0628    2.1301    0.0105 H       1  UNL1        0.0623
     38 H          -2.4120    2.1136    0.0171 H       1  UNL1        0.0278
     39 H          -3.1293    0.7496    0.8871 H       1  UNL1        0.0278
     40 H          -3.1173    0.7787   -0.9016 H       1  UNL1        0.0278
     41 H          -2.1440   -1.6613   -0.0144 H       1  UNL1        0.0639
     42 H          -0.7967   -3.7476   -0.0183 H       1  UNL1        0.1564
     43 H           0.3529   -5.8414   -0.2836 H       1  UNL1        0.1564
     44 H           1.8523   -7.5741   -1.4472 H       1  UNL1        0.0655
     45 H           3.1188   -9.7207   -1.7184 H       1  UNL1        0.1551
     46 H           5.6488  -12.5590    0.3665 H       1  UNL1        0.0626
     47 H           6.0723  -14.7720   -0.6859 H       1  UNL1        0.0646
     48 H           4.5928  -13.2909   -4.4220 H       1  UNL1        0.0646
     49 H           4.3054  -11.0195   -3.4426 H       1  UNL1        0.0626
     50 H           5.7548   -8.0646    0.3237 H       1  UNL1        0.0637
     51 H           5.4362   -6.1368    1.6397 H       1  UNL1        0.0637
     52 H           2.6275   -4.4733    3.7070 H       1  UNL1        0.0464
     53 H           1.3990   -4.7955    2.4759 H       1  UNL1        0.0464
     54 H           1.7062   -2.2614    3.3808 H       1  UNL1        0.0281
     55 H           1.5199   -2.5600    1.7015 H       1  UNL1        0.0281
     56 H           4.0790   -1.9862    3.1490 H       1  UNL1        0.0281
     57 H           3.5833   -1.3636    1.5818 H       1  UNL1        0.0281
     58 H           5.2732   -3.5705    1.9971 H       1  UNL1        0.0464
     59 H           4.4472   -3.2394    0.4703 H       1  UNL1        0.0464
     60 H           2.1595   -1.4607   -0.1675 H       1  UNL1        0.0639
@<TRIPOS>BOND
     1     1     2    1
     2     2     3   ar
     3     3     4   ar
     4     4     5    1
     5     4     6   ar
     6     6     7   ar
     7     7     8    1
     8     8     9   am
     9     9    10    2
    10     9    11   am
    11    11    12    1
    12    12    13   ar
    13    13    14   ar
    14    14    15    1
    15    15    16   am
    16    16    17    2
    17    16    18    1
    18    18    19   ar
    19    19    20   ar
    20    20    21   ar
    21    21    22    1
    22    21    23   ar
    23    23    24   ar
    24    18    24   ar
    25    14    25   ar
    26    25    26   ar
    27    26    27   ar
    28    12    27   ar
    29    27    28    1
    30    28    29    1
    31    29    30    1
    32    30    31    1
    33    31    32    1
    34    28    32    1
    35     7    33   ar
    36     2    33   ar
    37     1    34    1
    38     1    35    1
    39     1    36    1
    40     3    37    1
    41     5    38    1
    42     5    39    1
    43     5    40    1
    44     6    41    1
    45     8    42    1
    46    11    43    1
    47    13    44    1
    48    15    45    1
    49    19    46    1
    50    20    47    1
    51    23    48    1
    52    24    49    1
    53    25    50    1
    54    26    51    1
    55    29    52    1
    56    29    53    1
    57    30    54    1
    58    30    55    1
    59    31    56    1
    60    31    57    1
    61    32    58    1
    62    32    59    1
    63    33    60    1
