REMARK  9 active torsions:
REMARK  status: ('A' for Active; 'I' for Inactive)
REMARK    1  A    between atoms: O_2  and  C_3 
REMARK    2  A    between atoms: C_3  and  C_5 
REMARK    3  A    between atoms: C_9  and  C_10 
REMARK       I    between atoms: C_10  and  N_12 
REMARK    4  A    between atoms: N_12  and  C_13 
REMARK    5  A    between atoms: C_13  and  N_15 
REMARK    6  A    between atoms: N_15  and  N_16 
REMARK       I    between atoms: N_16  and  C_17 
REMARK    7  A    between atoms: C_17  and  C_19 
REMARK    8  A    between atoms: C_19  and  O_20 
REMARK    9  A    between atoms: O_20  and  C_21 
ROOT
ATOM      1  C   UNL d   1       7.466  -2.808  -3.387  0.00  0.00     0.193 C 
ATOM      2  S   UNL d   1       9.125  -2.897  -3.683  0.00  0.00    -0.039 SA
ENDROOT
BRANCH   1   3
ATOM      3  N   UNL d   1       6.828  -1.825  -2.593  0.00  0.00    -0.298 N 
ATOM      4  C   UNL d   1       7.460  -0.754  -1.910  0.00  0.00     0.257 C 
ATOM      5  O   UNL d   1       8.672  -0.548  -1.938  0.00  0.00    -0.267 OA
ATOM      6  H   UNL d   1       5.827  -1.893  -2.515  0.00  0.00     0.171 HD
BRANCH   4   7
ATOM      7  C   UNL d   1       6.671   0.240  -1.099  0.00  0.00     0.033 A 
ATOM      8  C   UNL d   1       7.389   1.310  -0.505  0.00  0.00     0.017 A 
ATOM      9  C   UNL d   1       6.742   2.328   0.203  0.00  0.00     0.002 A 
ATOM     10  C   UNL d   1       5.362   2.269   0.374  0.00  0.00     0.017 A 
ATOM     11  C   UNL d   1       4.631   1.226  -0.216  0.00  0.00     0.040 A 
ATOM     12  C   UNL d   1       5.283   0.208  -0.940  0.00  0.00     0.034 A 
BRANCH  11  13
ATOM     13  C   UNL d   1       3.151   1.307  -0.201  0.00  0.00     0.292 C 
ATOM     14  O   UNL d   1       2.547   2.366  -0.339  0.00  0.00    -0.259 OA
BRANCH  13  15
ATOM     15  O   UNL d   1       2.593   0.084  -0.036  0.00  0.00    -0.323 OA
ATOM     16  C   UNL d   1       1.158   0.099  -0.023  0.00  0.00     0.213 C 
ENDBRANCH  13  15
ENDBRANCH  11  13
ENDBRANCH   4   7
ENDBRANCH   1   3
BRANCH   1  17
ATOM     17  N   UNL d   1       6.613  -3.773  -3.954  0.00  0.00    -0.273 N 
ATOM     18  H   UNL d   1       5.600  -3.823  -3.848  0.00  0.00     0.189 HD
BRANCH  17  19
ATOM     19  N   UNL d   1       7.191  -4.830  -4.777  0.00  0.00    -0.266 N 
ATOM     20  C   UNL d   1       6.398  -5.811  -5.362  0.00  0.00     0.260 C 
ATOM     21  O   UNL d   1       5.178  -5.813  -5.195  0.00  0.00    -0.269 OA
ATOM     22  H   UNL d   1       8.204  -4.783  -4.890  0.00  0.00     0.190 HD
BRANCH  20  23
ATOM     23  C   UNL d   1       7.155  -6.883  -6.219  0.00  0.00     0.280 C 
BRANCH  23  24
ATOM     24  O   UNL d   1       6.215  -7.798  -6.798  0.00  0.00    -0.342 OA
BRANCH  24  25
ATOM     25  C   UNL d   1       6.689  -8.802  -7.601  0.00  0.00     0.069 A 
ATOM     26  C   UNL d   1       5.939  -9.062  -8.755  0.00  0.00     0.038 A 
ATOM     27  C   UNL d   1       6.247 -10.145  -9.588  0.00  0.00     0.022 A 
ATOM     28  C   UNL d   1       7.348 -10.942  -9.295  0.00  0.00     0.011 A 
ATOM     29 BR   UNL d   1       7.871 -12.298 -10.506  0.00  0.00    -0.051 Br
ATOM     30  C   UNL d   1       8.088 -10.713  -8.135  0.00  0.00     0.022 A 
ATOM     31  C   UNL d   1       7.749  -9.650  -7.279  0.00  0.00     0.038 A 
ENDBRANCH  24  25
ENDBRANCH  23  24
ENDBRANCH  20  23
ENDBRANCH  17  19
ENDBRANCH   1  17
TORSDOF 9
