REMARK  6 active torsions:
REMARK  status: ('A' for Active; 'I' for Inactive)
REMARK    1  A    between atoms: O_2  and  C_3 
REMARK    2  A    between atoms: C_6  and  C_7 
REMARK       I    between atoms: C_7  and  N_9 
REMARK       I    between atoms: C_10  and  N_11 
REMARK       I    between atoms: C_10  and  N_19 
REMARK    3  A    between atoms: N_11  and  C_12 
REMARK    4  A    between atoms: C_12  and  C_13 
REMARK    5  A    between atoms: N_19  and  C_20 
REMARK    6  A    between atoms: C_29  and  O_30 
ROOT
ATOM      1  C   UNL d   1       5.685  -3.496   3.183  0.00  0.00     0.294 C 
ATOM      2  O   UNL d   1       6.717  -3.014   3.620  0.00  0.00    -0.265 OA
ATOM      3  N   UNL d   1       5.264  -4.802   3.394  0.00  0.00    -0.023 NA
ATOM      4  C   UNL d   1       5.949  -5.582   4.184  0.00  0.00     0.704 C 
ATOM      5  N   UNL d   1       5.531  -6.865   4.423  0.00  0.00    -0.220 N 
ATOM      6  N   UNL d   1       7.075  -5.223   4.895  0.00  0.00    -0.190 N 
ATOM      7  H   UNL d   1       6.062  -7.370   5.109  0.00  0.00     0.178 HD
ATOM      8  H   UNL d   1       7.393  -4.272   4.689  0.00  0.00     0.184 HD
ENDROOT
BRANCH   5   9
ATOM      9  C   UNL d   1       4.309  -7.477   3.955  0.00  0.00     0.178 C 
BRANCH   9  10
ATOM     10  C   UNL d   1       4.150  -8.924   4.388  0.00  0.00    -0.022 A 
ATOM     11  C   UNL d   1       3.283  -9.778   3.688  0.00  0.00     0.012 A 
ATOM     12  C   UNL d   1       3.125 -11.107   4.086  0.00  0.00     0.020 A 
ATOM     13  C   UNL d   1       3.837 -11.553   5.184  0.00  0.00     0.116 A 
ATOM     14  N   UNL d   1       4.651 -10.764   5.909  0.00  0.00    -0.273 NA
ATOM     15  C   UNL d   1       4.771  -9.475   5.508  0.00  0.00     0.124 A 
ENDBRANCH   9  10
ENDBRANCH   5   9
BRANCH   6  16
ATOM     16  C   UNL d   1       8.069  -5.975   5.554  0.00  0.00     0.049 A 
ATOM     17  C   UNL d   1       8.748  -5.404   6.638  0.00  0.00     0.030 A 
ATOM     18  C   UNL d   1       9.754  -6.107   7.312  0.00  0.00     0.009 A 
ATOM     19  C   UNL d   1      10.040  -7.438   6.983  0.00  0.00    -0.056 A 
ATOM     20  C   UNL d   1      11.016  -8.221   7.814  0.00  0.00     0.049 C 
ATOM     21  C   UNL d   1       9.373  -8.025   5.897  0.00  0.00    -0.054 A 
ATOM     22  C   UNL d   1       9.667  -9.416   5.412  0.00  0.00     0.049 C 
ATOM     23  C   UNL d   1       8.409  -7.282   5.194  0.00  0.00     0.037 A 
ENDBRANCH   6  16
BRANCH   1  24
ATOM     24  C   UNL d   1       4.768  -2.612   2.377  0.00  0.00     0.037 A 
ATOM     25  C   UNL d   1       5.108  -1.277   2.147  0.00  0.00     0.020 A 
ATOM     26  C   UNL d   1       4.216  -0.415   1.477  0.00  0.00     0.040 A 
ATOM     27  C   UNL d   1       2.990  -0.869   0.942  0.00  0.00     0.101 A 
ATOM     28  C   UNL d   1       2.662  -2.227   1.158  0.00  0.00     0.102 A 
ATOM     29  C   UNL d   1       3.552  -3.068   1.873  0.00  0.00     0.056 A 
BRANCH  27  30
ATOM     30  O   UNL d   1       2.452   0.027   0.042  0.00  0.00    -0.353 OA
ATOM     31  C   UNL d   1       1.108   0.504   0.097  0.00  0.00     0.210 C 
ENDBRANCH  27  30
BRANCH  28  32
ATOM     32  O   UNL d   1       1.589  -2.982   0.748  0.00  0.00    -0.353 OA
ATOM     33  C   UNL d   1       0.558  -2.274   0.125  0.00  0.00     0.210 C 
ENDBRANCH  28  32
ENDBRANCH   1  24
TORSDOF 6
