@<TRIPOS>MOLECULE
*****
 50 51 0 0 0
SMALL
GASTEIGER

@<TRIPOS>ATOM
      1 C           2.4750    3.7136    0.7172 C.3     1  UNL1       -0.0619
      2 C           2.3661    2.2493    0.5729 C.3     1  UNL1       -0.0189
      3 C           3.1142    1.4522   -0.5309 C.3     1  UNL1        0.0972
      4 C           2.6269    0.0300   -0.1579 C.3     1  UNL1       -0.0278
      5 O           4.5761    1.4020   -0.6504 O.3     1  UNL1       -0.4890
      6 C           5.3303    2.5141   -0.9444 C.ar    1  UNL1        0.1227
      7 C           6.4692    2.5035   -1.7043 C.ar    1  UNL1       -0.0198
      8 C           7.1744    3.7308   -1.8612 C.ar    1  UNL1       -0.0566
      9 C           6.7397    4.9778   -1.2859 C.ar    1  UNL1       -0.0402
     10 C           5.6012    5.0243   -0.5108 C.ar    1  UNL1        0.0382
     11 N           5.0355    6.2506    0.0921 N.am    1  UNL1       -0.2694
     12 C           4.1272    6.3283    1.1512 C.2     1  UNL1        0.3039
     13 O           3.8192    5.4208    1.9057 O.2     1  UNL1       -0.2525
     14 N           3.5119    7.5305    1.4424 N.am    1  UNL1       -0.2991
     15 C           2.3891    7.4628    2.4386 C.3     1  UNL1        0.0134
     16 C           2.0871    8.8019    3.0749 C.3     1  UNL1       -0.0318
     17 C           0.8480    8.7910    3.9805 C.3     1  UNL1       -0.0059
     18 C           0.6269   10.1374    4.6014 C.ar    1  UNL1        0.0821
     19 N           0.8238   11.2622    3.8945 N.ar    1  UNL1       -0.1759
     20 N           0.6399   12.2456    4.7930 N.ar    1  UNL1       -0.2630
     21 C           0.3062   11.7937    6.0419 C.ar    1  UNL1        0.1294
     22 N           0.1049   12.6332    7.0743 N.pl3   1  UNL1       -0.3425
     23 C           0.2597   10.4250    5.9341 C.ar    1  UNL1        0.1134
     24 C          -0.0580    9.4901    6.9738 C.1     1  UNL1        0.1044
     25 N          -0.3135    8.7343    7.7943 N.1     1  UNL1       -0.1907
     26 C           4.9684    3.7828   -0.5100 C.ar    1  UNL1        0.0013
     27 H           1.7895    4.1641    1.4239 H       1  UNL1        0.0231
     28 H           2.3660    4.2997   -0.2095 H       1  UNL1        0.0231
     29 H           3.4620    3.7271    1.1776 H       1  UNL1        0.0231
     30 H           1.2920    2.1099    0.4599 H       1  UNL1        0.0298
     31 H           2.7061    1.8720    1.5456 H       1  UNL1        0.0298
     32 H           2.7220    1.7033   -1.5225 H       1  UNL1        0.0730
     33 H           2.9695   -0.2375    0.8535 H       1  UNL1        0.0265
     34 H           2.9847   -0.7373   -0.8394 H       1  UNL1        0.0265
     35 H           1.5267   -0.0039   -0.1307 H       1  UNL1        0.0265
     36 H           6.7635    1.6032   -2.2405 H       1  UNL1        0.0654
     37 H           8.0965    3.7196   -2.4369 H       1  UNL1        0.0619
     38 H           7.2847    5.8859   -1.5155 H       1  UNL1        0.0636
     39 H           5.5851    7.0833   -0.0499 H       1  UNL1        0.1564
     40 H           4.1008    8.3504    1.4876 H       1  UNL1        0.1502
     41 H           2.5796    6.7341    3.2440 H       1  UNL1        0.0462
     42 H           1.5071    7.0873    1.9026 H       1  UNL1        0.0462
     43 H           1.9496    9.5320    2.2737 H       1  UNL1        0.0284
     44 H           2.9565    9.1135    3.6673 H       1  UNL1        0.0284
     45 H           0.9810    8.0469    4.7781 H       1  UNL1        0.0330
     46 H          -0.0484    8.4927    3.4231 H       1  UNL1        0.0330
     47 H           0.7709   13.2049    4.4943 H       1  UNL1        0.1903
     48 H           0.1827   13.6449    7.0182 H       1  UNL1        0.1437
     49 H          -0.1142   12.2859    8.0075 H       1  UNL1        0.1437
     50 H           3.9334    3.8391   -0.6191 H       1  UNL1        0.0673
@<TRIPOS>BOND
     1     1     2    1
     2     3     5    1
     3     5     6    1
     4     6     7   ar
     5     7     8   ar
     6     8     9   ar
     7     9    10   ar
     8    10    11    1
     9    11    12   am
    10    12    13    2
    11    12    14   am
    12    14    15    1
    13    15    16    1
    14    16    17    1
    15    17    18    1
    16    18    19   ar
    17    19    20   ar
    18    20    21   ar
    19    21    22    1
    20    21    23   ar
    21    18    23   ar
    22    23    24    1
    23    24    25    3
    24    10    26   ar
    25     6    26   ar
    26     3     4    1
    27     3     2    1
    28     1    27    1
    29     1    28    1
    30     1    29    1
    31     2    30    1
    32     2    31    1
    33     3    32    1
    34     4    33    1
    35     4    34    1
    36     4    35    1
    37     7    36    1
    38     8    37    1
    39     9    38    1
    40    11    39    1
    41    14    40    1
    42    15    41    1
    43    15    42    1
    44    16    43    1
    45    16    44    1
    46    17    45    1
    47    17    46    1
    48    20    47    1
    49    22    48    1
    50    22    49    1
    51    26    50    1
