REMARK  13 active torsions:
REMARK  status: ('A' for Active; 'I' for Inactive)
REMARK    1  A    between atoms: S_2  and  C_4 
REMARK    2  A    between atoms: S_2  and  N_21 
REMARK    3  A    between atoms: C_4  and  C_5 
REMARK    4  A    between atoms: C_5  and  C_6 
REMARK    5  A    between atoms: C_6  and  C_7 
REMARK    6  A    between atoms: C_7  and  C_8 
REMARK    7  A    between atoms: C_8  and  C_9 
REMARK    8  A    between atoms: C_9  and  S_10 
REMARK    9  A    between atoms: S_10  and  N_13 
REMARK   10  A    between atoms: N_13  and  C_14 
REMARK   11  A    between atoms: C_19  and  O_20 
REMARK   12  A    between atoms: N_21  and  C_22 
REMARK   13  A    between atoms: C_27  and  O_28 
ROOT
ATOM      1  C   UNL d   1       3.049  -3.879  -1.359  0.00  0.00     0.001 C 
ENDROOT
BRANCH   1   2
ATOM      2  C   UNL d   1       2.484  -2.747  -0.491  0.00  0.00     0.017 C 
BRANCH   2   3
ATOM      3  C   UNL d   1       2.998  -1.418  -0.992  0.00  0.00     0.163 C 
BRANCH   3   4
ATOM      4  S   UNL d   1       2.508  -0.002  -0.022  0.00  0.00     0.231 S 
ATOM      5  O   UNL d   1       1.063   0.116  -0.146  0.00  0.00    -0.206 OA
ATOM      6  O   UNL d   1       3.125  -0.104   1.278  0.00  0.00    -0.206 OA
BRANCH   4   7
ATOM      7  N   UNL d   1       3.123   1.342  -0.829  0.00  0.00    -0.282 N 
ATOM      8  H   UNL d   1       2.446   2.085  -0.984  0.00  0.00     0.178 HD
BRANCH   7   9
ATOM      9  C   UNL d   1       4.521   1.653  -0.873  0.00  0.00     0.075 A 
ATOM     10  C   UNL d   1       5.006   2.889  -0.428  0.00  0.00     0.033 A 
ATOM     11  C   UNL d   1       6.377   3.189  -0.536  0.00  0.00     0.002 A 
ATOM     12  C   UNL d   1       7.274   2.250  -1.048  0.00  0.00     0.003 A 
ATOM     13  C   UNL d   1       6.801   1.032  -1.506  0.00  0.00     0.039 A 
ATOM     14  C   UNL d   1       5.434   0.782  -1.477  0.00  0.00     0.092 A 
BRANCH  14  15
ATOM     15  O   UNL d   1       4.997  -0.268  -2.231  0.00  0.00    -0.358 OA
ATOM     16  H   UNL d   1       5.653  -0.980  -2.152  0.00  0.00     0.217 HD
ENDBRANCH  14  15
ENDBRANCH   7   9
ENDBRANCH   4   7
ENDBRANCH   3   4
ENDBRANCH   2   3
ENDBRANCH   1   2
BRANCH   1  17
ATOM     17  C   UNL d   1       2.579  -5.223  -0.815  0.00  0.00     0.001 C 
BRANCH  17  18
ATOM     18  C   UNL d   1       3.084  -6.377  -1.667  0.00  0.00     0.017 C 
BRANCH  18  19
ATOM     19  C   UNL d   1       2.597  -7.734  -1.140  0.00  0.00     0.163 C 
BRANCH  19  20
ATOM     20  S   UNL d   1       3.262  -9.034  -2.184  0.00  0.00     0.231 S 
ATOM     21  O   UNL d   1       2.588  -8.939  -3.462  0.00  0.00    -0.206 OA
ATOM     22  O   UNL d   1       4.700  -8.889  -2.087  0.00  0.00    -0.206 OA
BRANCH  20  23
ATOM     23  N   UNL d   1       2.767 -10.466  -1.427  0.00  0.00    -0.282 N 
ATOM     24  H   UNL d   1       2.001 -10.435  -0.761  0.00  0.00     0.178 HD
BRANCH  23  25
ATOM     25  C   UNL d   1       2.989 -11.712  -2.128  0.00  0.00     0.075 A 
ATOM     26  C   UNL d   1       1.924 -12.581  -2.400  0.00  0.00     0.033 A 
ATOM     27  C   UNL d   1       2.149 -13.785  -3.093  0.00  0.00     0.002 A 
ATOM     28  C   UNL d   1       3.433 -14.126  -3.519  0.00  0.00     0.003 A 
ATOM     29  C   UNL d   1       4.503 -13.284  -3.228  0.00  0.00     0.039 A 
ATOM     30  C   UNL d   1       4.278 -12.105  -2.517  0.00  0.00     0.092 A 
BRANCH  30  31
ATOM     31  O   UNL d   1       5.352 -11.377  -2.099  0.00  0.00    -0.358 OA
ATOM     32  H   UNL d   1       6.116 -11.537  -2.671  0.00  0.00     0.217 HD
ENDBRANCH  30  31
ENDBRANCH  23  25
ENDBRANCH  20  23
ENDBRANCH  19  20
ENDBRANCH  18  19
ENDBRANCH  17  18
ENDBRANCH   1  17
TORSDOF 13
