@<TRIPOS>MOLECULE
*****
 58 61 0 0 0
SMALL
GASTEIGER

@<TRIPOS>ATOM
      1 C           0.9614   -0.0147   -0.0633 C.3     1  UNL1        0.0790
      2 O           2.3838    0.0240   -0.0486 O.3     1  UNL1       -0.4914
      3 C           2.9710    1.2655   -0.0511 C.ar    1  UNL1        0.1619
      4 C           4.3709    1.2147   -0.0688 C.ar    1  UNL1       -0.0163
      5 C           5.1255    2.3886   -0.0898 C.ar    1  UNL1       -0.0575
      6 C           4.4848    3.6343   -0.0918 C.ar    1  UNL1       -0.0494
      7 C           3.0837    3.7074   -0.0622 C.ar    1  UNL1        0.0396
      8 C           2.4116    5.0460   -0.0632 C.2     1  UNL1        0.0564
      9 N           1.1151    5.1248   -0.0387 N.2     1  UNL1       -0.1873
     10 N           0.5072    6.3545   -0.0608 N.am    1  UNL1       -0.2017
     11 C          -0.8859    6.4310    0.0334 C.2     1  UNL1        0.2810
     12 O          -1.6064    5.4360    0.1742 O.2     1  UNL1       -0.2668
     13 C          -1.4522    7.7586   -0.0087 C.ar    1  UNL1        0.1224
     14 C          -1.1694    8.8575   -0.7975 C.ar    1  UNL1       -0.0041
     15 C          -2.0947    9.8714   -0.4236 C.ar    1  UNL1        0.0932
     16 C          -2.1935   11.2146   -0.9915 C.ar    1  UNL1        0.0023
     17 C          -2.4148   11.3852   -2.3642 C.ar    1  UNL1       -0.0491
     18 C          -2.4501   12.6656   -2.9316 C.ar    1  UNL1       -0.0193
     19 C          -2.2611   13.7939   -2.1353 C.ar    1  UNL1        0.1210
     20 O          -2.2732   15.0881   -2.5760 O.3     1  UNL1       -0.4874
     21 C          -2.5417   15.2980   -3.9645 C.3     1  UNL1        0.1146
     22 C          -2.5552   16.7845   -4.2080 C.ar    1  UNL1       -0.0104
     23 C          -1.3542   17.4985   -4.3024 C.ar    1  UNL1       -0.0551
     24 C          -1.3673   18.8905   -4.3915 C.ar    1  UNL1       -0.0585
     25 C          -2.5794   19.5834   -4.4748 C.ar    1  UNL1       -0.0504
     26 C          -2.5963   21.0644   -4.7039 C.3     1  UNL1       -0.0397
     27 C          -3.7808   18.8709   -4.3940 C.ar    1  UNL1       -0.0585
     28 C          -3.7685   17.4825   -4.2554 C.ar    1  UNL1       -0.0551
     29 C          -2.0351   13.6284   -0.7655 C.ar    1  UNL1       -0.0193
     30 C          -2.0098   12.3485   -0.1931 C.ar    1  UNL1       -0.0491
     31 N          -2.8969    9.4356    0.5574 N.ar    1  UNL1       -0.1732
     32 N          -2.5358    8.1483    0.7385 N.ar    1  UNL1       -0.2719
     33 C           2.3301    2.5181   -0.0389 C.ar    1  UNL1        0.1672
     34 O           0.9598    2.5712   -0.0002 O.3     1  UNL1       -0.5029
     35 H           0.6422   -1.0595   -0.0763 H       1  UNL1        0.0660
     36 H           0.5657    0.4520   -0.9725 H       1  UNL1        0.0660
     37 H           0.5512    0.4313    0.8493 H       1  UNL1        0.0660
     38 H           4.8739    0.2477   -0.0674 H       1  UNL1        0.0655
     39 H           6.2124    2.3225   -0.1063 H       1  UNL1        0.0619
     40 H           5.0971    4.5314   -0.1154 H       1  UNL1        0.0625
     41 H           3.0587    5.9394   -0.0879 H       1  UNL1        0.0852
     42 H           1.0704    7.1976   -0.0649 H       1  UNL1        0.1776
     43 H          -0.4226    8.9239   -1.5731 H       1  UNL1        0.0662
     44 H          -2.5713   10.5235   -3.0086 H       1  UNL1        0.0625
     45 H          -2.6250   12.7432   -3.9992 H       1  UNL1        0.0654
     46 H          -3.5174   14.8755   -4.2361 H       1  UNL1        0.0748
     47 H          -1.7633   14.8349   -4.5838 H       1  UNL1        0.0748
     48 H          -0.4009   16.9749   -4.2921 H       1  UNL1        0.0621
     49 H          -0.4237   19.4310   -4.3916 H       1  UNL1        0.0620
     50 H          -1.5805   21.4699   -4.7571 H       1  UNL1        0.0278
     51 H          -3.1291   21.5795   -3.8995 H       1  UNL1        0.0278
     52 H          -3.0861   21.2773   -5.6600 H       1  UNL1        0.0278
     53 H          -4.7343   19.3929   -4.4308 H       1  UNL1        0.0620
     54 H          -4.7123   16.9473   -4.1794 H       1  UNL1        0.0621
     55 H          -1.8746   14.5021   -0.1368 H       1  UNL1        0.0654
     56 H          -1.8303   12.2429    0.8743 H       1  UNL1        0.0625
     57 H          -3.0548    7.5919    1.4136 H       1  UNL1        0.1891
     58 H           0.6580    3.5064    0.0103 H       1  UNL1        0.2923
@<TRIPOS>BOND
     1     1     2    1
     2     2     3    1
     3     3     4   ar
     4     4     5   ar
     5     5     6   ar
     6     6     7   ar
     7     7     8    1
     8     8     9    2
     9     9    10    1
    10    10    11   am
    11    11    12    2
    12    11    13    1
    13    13    14   ar
    14    14    15   ar
    15    15    16    1
    16    16    17   ar
    17    17    18   ar
    18    18    19   ar
    19    19    20    1
    20    20    21    1
    21    21    22    1
    22    22    23   ar
    23    23    24   ar
    24    24    25   ar
    25    25    26    1
    26    25    27   ar
    27    27    28   ar
    28    22    28   ar
    29    19    29   ar
    30    29    30   ar
    31    16    30   ar
    32    15    31   ar
    33    31    32   ar
    34    13    32   ar
    35     7    33   ar
    36     3    33   ar
    37    33    34    1
    38     1    35    1
    39     1    36    1
    40     1    37    1
    41     4    38    1
    42     5    39    1
    43     6    40    1
    44     8    41    1
    45    10    42    1
    46    14    43    1
    47    17    44    1
    48    18    45    1
    49    21    46    1
    50    21    47    1
    51    23    48    1
    52    24    49    1
    53    26    50    1
    54    26    51    1
    55    26    52    1
    56    27    53    1
    57    28    54    1
    58    29    55    1
    59    30    56    1
    60    32    57    1
    61    34    58    1
