REMARK  7 active torsions:
REMARK  status: ('A' for Active; 'I' for Inactive)
REMARK    1  A    between atoms: C_12  and  N_13 
REMARK       I    between atoms: N_13  and  C_14 
REMARK    2  A    between atoms: C_14  and  C_16 
REMARK    3  A    between atoms: C_16  and  S_17 
REMARK    4  A    between atoms: S_17  and  C_18 
REMARK    5  A    between atoms: C_21  and  C_22 
REMARK    6  A    between atoms: C_22  and  C_23 
REMARK    7  A    between atoms: N_28  and  C_29 
ROOT
ATOM      1  C   UNL d   1       7.901  -2.251  -2.787  0.00  0.00     0.180 C 
ENDROOT
BRANCH   1   2
ATOM      2  C   UNL d   1       6.391  -2.154  -2.975  0.00  0.00     0.229 C 
ATOM      3  N   UNL d   1       5.580  -2.688  -1.990  0.00  0.00    -0.330 N 
ATOM      4  H   UNL d   1       5.894  -3.432  -1.384  0.00  0.00     0.165 HD
ATOM      5  O   UNL d   1       5.910  -1.720  -4.017  0.00  0.00    -0.273 OA
BRANCH   3   6
ATOM      6  C   UNL d   1       4.148  -2.526  -2.124  0.00  0.00     0.264 A 
ATOM      7  O   UNL d   1       3.525  -3.421  -1.160  0.00  0.00    -0.353 OA
ATOM      8  C   UNL d   1       2.761  -2.634  -0.208  0.00  0.00     0.152 A 
ATOM      9  C   UNL d   1       3.016  -1.225  -0.593  0.00  0.00    -0.017 A 
ATOM     10  C   UNL d   1       1.271  -2.962  -0.260  0.00  0.00     0.044 C 
ATOM     11  C   UNL d   1       3.756  -1.175  -1.694  0.00  0.00     0.066 A 
ATOM     12  C   UNL d   1       2.555  -0.035   0.160  0.00  0.00     0.105 C 
ATOM     13  C   UNL d   1       4.080   0.118  -2.288  0.00  0.00     0.266 C 
ATOM     14  N   UNL d   1       3.755   1.226  -1.560  0.00  0.00    -0.287 N 
ATOM     15  O   UNL d   1       4.633   0.292  -3.369  0.00  0.00    -0.266 OA
ATOM     16  N   UNL d   1       2.907   1.260  -0.449  0.00  0.00    -0.229 NA
ATOM     17  H   UNL d   1       3.969   2.089  -2.053  0.00  0.00     0.184 HD
ATOM     18  H   UNL d   1       3.383   1.835   0.249  0.00  0.00     0.147 HD
ATOM     19  C   UNL d   1       3.214  -0.071   1.534  0.00  0.00     0.033 C 
ENDBRANCH   3   6
ENDBRANCH   1   2
BRANCH   1  20
ATOM     20  S   UNL d   1       8.747  -1.123  -3.996  0.00  0.00    -0.118 SA
BRANCH  20  21
ATOM     21  C   UNL d   1      10.520  -1.517  -3.910  0.00  0.00     0.244 C 
ATOM     22  N   UNL d   1      11.291  -0.414  -4.482  0.00  0.00    -0.183 NA
ATOM     23  N   UNL d   1      11.453  -0.534  -5.835  0.00  0.00    -0.185 NA
ATOM     24  H   UNL d   1      11.032   0.518  -4.169  0.00  0.00     0.152 HD
ATOM     25  C   UNL d   1      11.277  -1.798  -6.096  0.00  0.00     0.123 C 
ATOM     26  N   UNL d   1      10.914  -2.528  -4.899  0.00  0.00    -0.336 N 
BRANCH  25  27
ATOM     27  C   UNL d   1      11.449  -2.442  -7.458  0.00  0.00     0.126 C 
BRANCH  27  28
ATOM     28  C   UNL d   1      11.774  -1.400  -8.498  0.00  0.00    -0.011 A 
ATOM     29  C   UNL d   1      12.896  -0.594  -8.542  0.00  0.00     0.015 A 
ATOM     30  C   UNL d   1      12.817   0.404  -9.550  0.00  0.00     0.008 A 
ATOM     31  C   UNL d   1      11.674   0.280 -10.307  0.00  0.00     0.050 A 
ATOM     32  S   UNL d   1      10.703  -1.035  -9.786  0.00  0.00    -0.106 SA
ENDBRANCH  27  28
ENDBRANCH  25  27
BRANCH  26  33
ATOM     33  C   UNL d   1      11.156  -3.954  -4.664  0.00  0.00     0.088 C 
ATOM     34  C   UNL d   1      12.199  -4.225  -3.561  0.00  0.00     0.025 C 
ATOM     35  C   UNL d   1      12.293  -5.730  -3.239  0.00  0.00     0.002 C 
ATOM     36  C   UNL d   1      10.937  -6.330  -2.870  0.00  0.00     0.000 C 
ATOM     37  C   UNL d   1       9.923  -6.075  -3.979  0.00  0.00     0.002 C 
ATOM     38  C   UNL d   1       9.839  -4.593  -4.276  0.00  0.00     0.025 C 
ENDBRANCH  26  33
ENDBRANCH  20  21
ENDBRANCH   1  20
TORSDOF 7
