@<TRIPOS>MOLECULE
*****
 60 63 0 0 0
SMALL
GASTEIGER

@<TRIPOS>ATOM
      1 C           2.8977   -0.0426    0.0168 C.3     1  UNL1       -0.0397
      2 C           1.3977   -0.0625    0.0448 C.ar    1  UNL1       -0.0487
      3 C           0.6670   -1.2364    0.0079 C.ar    1  UNL1       -0.0585
      4 C          -0.7291   -1.1756    0.0029 C.ar    1  UNL1       -0.0568
      5 C          -1.4285    0.0590    0.0393 C.ar    1  UNL1       -0.0292
      6 C          -2.9283    0.0134    0.0073 C.3     1  UNL1       -0.0380
      7 C          -0.7033    1.2623    0.1173 C.ar    1  UNL1        0.0379
      8 N          -1.3545    2.5579    0.1398 N.am    1  UNL1       -0.2689
      9 C          -0.6789    3.7660    0.3321 C.2     1  UNL1        0.3082
     10 O           0.4992    3.8326    0.6939 O.2     1  UNL1       -0.2522
     11 N          -1.4033    4.9219    0.0611 N.am    1  UNL1       -0.2675
     12 C          -0.7052    6.1837   -0.0442 C.ar    1  UNL1        0.0576
     13 C          -1.1552    7.3113    0.7135 C.ar    1  UNL1       -0.0174
     14 C          -0.5293    8.5730    0.5837 C.ar    1  UNL1        0.0355
     15 N          -1.0719    9.7636    1.1796 N.am    1  UNL1       -0.2814
     16 C          -0.6245   11.0556    0.8830 C.2     1  UNL1        0.2483
     17 O           0.3193   11.3565    0.1442 O.2     1  UNL1       -0.2699
     18 C          -1.3024   12.2344    1.4724 C.ar    1  UNL1        0.0372
     19 C          -1.3168   13.4218    0.7071 C.ar    1  UNL1       -0.0469
     20 C          -1.6623   14.6402    1.2892 C.ar    1  UNL1       -0.0257
     21 C          -2.0671   14.6583    2.6154 C.ar    1  UNL1        0.1234
     22 F          -2.4408   15.8175    3.1721 F       1  UNL1       -0.2055
     23 C          -2.0883   13.4894    3.3767 C.ar    1  UNL1       -0.0257
     24 C          -1.6961   12.2696    2.8106 C.ar    1  UNL1       -0.0469
     25 C           0.6179    8.6369   -0.2031 C.ar    1  UNL1       -0.0386
     26 C           1.0662    7.5478   -0.9428 C.ar    1  UNL1       -0.0371
     27 C           0.4159    6.3138   -0.9170 C.ar    1  UNL1        0.0514
     28 N           0.8690    5.3735   -1.8232 N.pl3   1  UNL1       -0.3285
     29 C           0.0012    4.6094   -2.6940 C.3     1  UNL1        0.0123
     30 C           0.5676    3.2060   -2.6333 C.3     1  UNL1       -0.0358
     31 C           2.0583    3.4087   -2.4238 C.3     1  UNL1       -0.0358
     32 C           2.1859    4.7466   -1.6793 C.3     1  UNL1        0.0123
     33 C           0.7034    1.1516    0.1119 C.ar    1  UNL1       -0.0373
     34 H           3.3140   -1.0536    0.0039 H       1  UNL1        0.0278
     35 H           3.2810    0.4719    0.9045 H       1  UNL1        0.0278
     36 H           3.2592    0.4806   -0.8758 H       1  UNL1        0.0278
     37 H           1.1747   -2.1973   -0.0145 H       1  UNL1        0.0620
     38 H          -1.2737   -2.1182   -0.0242 H       1  UNL1        0.0621
     39 H          -3.2989   -1.0189    0.0014 H       1  UNL1        0.0278
     40 H          -3.3064    0.5024   -0.8954 H       1  UNL1        0.0278
     41 H          -3.3351    0.5014    0.8968 H       1  UNL1        0.0278
     42 H          -2.3559    2.5752    0.0152 H       1  UNL1        0.1564
     43 H          -2.3881    4.9433    0.2727 H       1  UNL1        0.1564
     44 H          -1.9561    7.1813    1.4370 H       1  UNL1        0.0655
     45 H          -1.9257    9.6644    1.7148 H       1  UNL1        0.1551
     46 H          -1.0040   13.4032   -0.3375 H       1  UNL1        0.0626
     47 H          -1.5850   15.5679    0.7295 H       1  UNL1        0.0646
     48 H          -2.3691   13.5486    4.4237 H       1  UNL1        0.0646
     49 H          -1.6352   11.3843    3.4341 H       1  UNL1        0.0626
     50 H           1.2049    9.5395   -0.3108 H       1  UNL1        0.0637
     51 H           1.8959    7.7099   -1.6265 H       1  UNL1        0.0637
     52 H           0.1110    4.9983   -3.7095 H       1  UNL1        0.0464
     53 H          -1.0594    4.6491   -2.4343 H       1  UNL1        0.0464
     54 H           0.3133    2.5939   -3.4996 H       1  UNL1        0.0281
     55 H           0.1530    2.6859   -1.7876 H       1  UNL1        0.0281
     56 H           2.5526    3.4601   -3.3975 H       1  UNL1        0.0281
     57 H           2.5209    2.5866   -1.8681 H       1  UNL1        0.0281
     58 H           2.9602    5.3546   -2.1607 H       1  UNL1        0.0464
     59 H           2.4855    4.5939   -0.6353 H       1  UNL1        0.0464
     60 H           1.3366    2.0303    0.1104 H       1  UNL1        0.0639
@<TRIPOS>BOND
     1     1     2    1
     2     2     3   ar
     3     3     4   ar
     4     4     5   ar
     5     5     6    1
     6     5     7   ar
     7     7     8    1
     8     8     9   am
     9     9    10    2
    10     9    11   am
    11    11    12    1
    12    12    13   ar
    13    13    14   ar
    14    14    15    1
    15    15    16   am
    16    16    17    2
    17    16    18    1
    18    18    19   ar
    19    19    20   ar
    20    20    21   ar
    21    21    22    1
    22    21    23   ar
    23    23    24   ar
    24    18    24   ar
    25    14    25   ar
    26    25    26   ar
    27    26    27   ar
    28    12    27   ar
    29    27    28    1
    30    28    29    1
    31    29    30    1
    32    30    31    1
    33    31    32    1
    34    28    32    1
    35     7    33   ar
    36     2    33   ar
    37     1    34    1
    38     1    35    1
    39     1    36    1
    40     3    37    1
    41     4    38    1
    42     6    39    1
    43     6    40    1
    44     6    41    1
    45     8    42    1
    46    11    43    1
    47    13    44    1
    48    15    45    1
    49    19    46    1
    50    20    47    1
    51    23    48    1
    52    24    49    1
    53    25    50    1
    54    26    51    1
    55    29    52    1
    56    29    53    1
    57    30    54    1
    58    30    55    1
    59    31    56    1
    60    31    57    1
    61    32    58    1
    62    32    59    1
    63    33    60    1
