REMARK  9 active torsions:
REMARK  status: ('A' for Active; 'I' for Inactive)
REMARK    1  A    between atoms: C_2  and  O_3 
REMARK    2  A    between atoms: O_3  and  C_4 
REMARK    3  A    between atoms: C_8  and  C_9 
REMARK       I    between atoms: C_9  and  N_11 
REMARK    4  A    between atoms: N_11  and  C_12 
REMARK    5  A    between atoms: C_12  and  N_14 
REMARK    6  A    between atoms: N_14  and  N_15 
REMARK       I    between atoms: N_15  and  C_16 
REMARK    7  A    between atoms: C_16  and  C_18 
REMARK    8  A    between atoms: C_18  and  O_20 
REMARK    9  A    between atoms: O_20  and  C_21 
ROOT
ATOM      1  N   UNL d   1       7.035  -5.034  -0.978  0.00  0.00    -0.273 N 
ATOM      2  H   UNL d   1       6.056  -5.088  -0.706  0.00  0.00     0.189 HD
ENDROOT
BRANCH   1   3
ATOM      3  C   UNL d   1       7.749  -3.872  -1.327  0.00  0.00     0.193 C 
ATOM      4  S   UNL d   1       9.388  -3.984  -1.721  0.00  0.00    -0.039 SA
BRANCH   3   5
ATOM      5  N   UNL d   1       6.990  -2.684  -1.316  0.00  0.00    -0.298 N 
ATOM      6  C   UNL d   1       7.459  -1.383  -1.640  0.00  0.00     0.258 C 
ATOM      7  O   UNL d   1       8.608  -1.135  -1.969  0.00  0.00    -0.267 OA
ATOM      8  H   UNL d   1       6.019  -2.785  -1.073  0.00  0.00     0.171 HD
BRANCH   6   9
ATOM      9  C   UNL d   1       6.534  -0.196  -1.609  0.00  0.00     0.035 A 
ATOM     10  C   UNL d   1       7.064   1.057  -1.995  0.00  0.00     0.017 A 
ATOM     11  C   UNL d   1       6.261   2.199  -2.066  0.00  0.00     0.004 A 
ATOM     12  C   UNL d   1       4.923   2.114  -1.698  0.00  0.00     0.037 A 
ATOM     13  C   UNL d   1       4.382   0.884  -1.313  0.00  0.00     0.069 A 
ATOM     14  C   UNL d   1       5.184  -0.266  -1.273  0.00  0.00     0.053 A 
BRANCH  13  15
ATOM     15  O   UNL d   1       3.027   0.871  -1.105  0.00  0.00    -0.351 OA
BRANCH  15  16
ATOM     16  C   UNL d   1       2.573   0.001  -0.069  0.00  0.00     0.171 C 
ATOM     17  C   UNL d   1       1.057  -0.007  -0.079  0.00  0.00     0.034 C 
ENDBRANCH  15  16
ENDBRANCH  13  15
ENDBRANCH   6   9
ENDBRANCH   3   5
ENDBRANCH   1   3
BRANCH   1  18
ATOM     18  N   UNL d   1       7.720  -6.299  -1.020  0.00  0.00    -0.266 N 
ATOM     19  C   UNL d   1       7.108  -7.494  -0.635  0.00  0.00     0.265 C 
ATOM     20  O   UNL d   1       5.919  -7.527  -0.325  0.00  0.00    -0.269 OA
ATOM     21  H   UNL d   1       8.716  -6.227  -1.232  0.00  0.00     0.190 HD
BRANCH  19  22
ATOM     22  C   UNL d   1       8.053  -8.762  -0.651  0.00  0.00     0.218 C 
ATOM     23  C   UNL d   1       9.271  -8.396   0.163  0.00  0.00     0.050 C 
BRANCH  22  24
ATOM     24  O   UNL d   1       7.405  -9.953  -0.127  0.00  0.00    -0.335 OA
BRANCH  24  25
ATOM     25  C   UNL d   1       8.049 -11.176  -0.054  0.00  0.00     0.091 C 
ATOM     26  C   UNL d   1       7.323 -12.260  -0.601  0.00  0.00     0.040 C 
ATOM     27  C   UNL d   1       7.757 -13.594  -0.442  0.00  0.00     0.026 C 
ATOM     28  C   UNL d   1       8.990 -13.854   0.137  0.00  0.00     0.035 C 
ATOM     29 CL   UNL d   1       9.605 -15.451   0.277  0.00  0.00    -0.084 Cl
ATOM     30  C   UNL d   1       9.725 -12.815   0.666  0.00  0.00     0.050 C 
ATOM     31  C   UNL d   1       9.209 -11.514   0.680  0.00  0.00     0.069 C 
ATOM     32 CL   UNL d   1      10.027 -10.586   1.897  0.00  0.00    -0.081 Cl
ENDBRANCH  24  25
ENDBRANCH  22  24
ENDBRANCH  19  22
ENDBRANCH   1  18
TORSDOF 9
