@<TRIPOS>MOLECULE
*****
 51 53 0 0 0
SMALL
GASTEIGER

@<TRIPOS>ATOM
      1 C           0.9496   -0.0761   -0.0125 C.3     1  UNL1       -0.0653
      2 C           2.4719   -0.0704    0.0012 C.3     1  UNL1       -0.0555
      3 C           3.0279   -1.4247    0.4360 C.3     1  UNL1       -0.0450
      4 C           4.5648   -1.4071    0.5704 C.3     1  UNL1        0.0243
      5 C           5.0884   -2.6133    1.3557 C.2     1  UNL1        0.2173
      6 O           4.3684   -3.2448    2.1329 O.2     1  UNL1       -0.2755
      7 N           6.3953   -2.9730    1.0661 N.am    1  UNL1       -0.2826
      8 C           6.8815   -4.2912    1.2496 C.ar    1  UNL1        0.0757
      9 C           8.0621   -4.5141    1.9966 C.ar    1  UNL1       -0.0351
     10 C           8.6351   -5.8224    2.1689 C.ar    1  UNL1       -0.0385
     11 C           8.0289   -6.9467    1.5986 C.ar    1  UNL1        0.0362
     12 N           8.4835   -8.3303    1.8195 N.am    1  UNL1       -0.2965
     13 C           7.8392   -9.5337    1.3726 C.2     1  UNL1        0.1411
     14 S           6.4141   -9.6124    0.4654 S.2     1  UNL1       -0.0182
     15 N           8.4702  -10.7535    1.7448 N.am    1  UNL1       -0.2636
     16 C           8.0122  -12.0221    1.3168 C.2     1  UNL1        0.2496
     17 O           7.0520  -12.2407    0.5599 O.2     1  UNL1       -0.2698
     18 C           8.6205  -13.2999    1.7148 C.ar    1  UNL1        0.0392
     19 C           8.5913  -14.3225    0.7007 C.ar    1  UNL1       -0.0475
     20 C           8.8318  -15.6824    0.9372 C.ar    1  UNL1       -0.0328
     21 C           9.2090  -15.9894    2.2568 C.ar    1  UNL1        0.0999
     22 N           9.5739  -17.2013    2.6972 N.ar    1  UNL1       -0.1908
     23 S           9.9420  -17.0223    4.3049 S.2     1  UNL1        0.1165
     24 N           9.5971  -15.4101    4.5310 N.ar    1  UNL1       -0.1908
     25 C           9.2434  -14.9228    3.3321 C.ar    1  UNL1        0.1006
     26 C           8.9140  -13.5698    3.0555 C.ar    1  UNL1       -0.0214
     27 C           6.9350   -6.6327    0.7947 C.ar    1  UNL1        0.0031
     28 C           6.3207   -5.3862    0.6166 C.ar    1  UNL1        0.1429
     29 O           5.2872   -5.5332   -0.2681 O.3     1  UNL1       -0.4932
     30 C           4.5879   -4.4283   -0.7721 C.3     1  UNL1        0.0789
     31 H           0.5681    0.9118   -0.2887 H       1  UNL1        0.0230
     32 H           0.5513   -0.3279    0.9761 H       1  UNL1        0.0230
     33 H           0.5628   -0.8049   -0.7321 H       1  UNL1        0.0230
     34 H           2.8179    0.7032    0.6948 H       1  UNL1        0.0263
     35 H           2.8437    0.1892   -0.9966 H       1  UNL1        0.0263
     36 H           2.7125   -2.1852   -0.2923 H       1  UNL1        0.0270
     37 H           2.5683   -1.7095    1.3891 H       1  UNL1        0.0270
     38 H           4.8860   -0.5129    1.1089 H       1  UNL1        0.0358
     39 H           5.0041   -1.3806   -0.4358 H       1  UNL1        0.0358
     40 H           7.0591   -2.2618    0.7916 H       1  UNL1        0.1549
     41 H           8.5179   -3.6731    2.5184 H       1  UNL1        0.0638
     42 H           9.5521   -5.9005    2.7499 H       1  UNL1        0.0637
     43 H           9.2851   -8.4048    2.4377 H       1  UNL1        0.1538
     44 H           9.2880  -10.7282    2.3385 H       1  UNL1        0.1568
     45 H           8.2986  -14.0417   -0.3180 H       1  UNL1        0.0626
     46 H           8.7227  -16.4393    0.1698 H       1  UNL1        0.0640
     47 H           8.8306  -12.8340    3.8420 H       1  UNL1        0.0647
     48 H           6.4707   -7.3541    0.1580 H       1  UNL1        0.0673
     49 H           3.8492   -4.7474   -1.5101 H       1  UNL1        0.0660
     50 H           5.2668   -3.7121   -1.2421 H       1  UNL1        0.0660
     51 H           3.9711   -4.0169    0.0124 H       1  UNL1        0.0660
@<TRIPOS>BOND
     1     1     2    1
     2     2     3    1
     3     3     4    1
     4     4     5    1
     5     5     6    2
     6     5     7   am
     7     7     8    1
     8     8     9   ar
     9     9    10   ar
    10    10    11   ar
    11    11    12    1
    12    12    13    1
    13    13    14    2
    14    13    15    1
    15    15    16   am
    16    16    17    2
    17    16    18    1
    18    18    19   ar
    19    19    20   ar
    20    20    21   ar
    21    21    22   ar
    22    22    23   ar
    23    23    24   ar
    24    24    25   ar
    25    21    25   ar
    26    25    26   ar
    27    18    26   ar
    28    11    27   ar
    29    27    28   ar
    30     8    28   ar
    31    28    29    1
    32    29    30    1
    33     1    31    1
    34     1    32    1
    35     1    33    1
    36     2    34    1
    37     2    35    1
    38     3    36    1
    39     3    37    1
    40     4    38    1
    41     4    39    1
    42     7    40    1
    43     9    41    1
    44    10    42    1
    45    12    43    1
    46    15    44    1
    47    19    45    1
    48    20    46    1
    49    26    47    1
    50    27    48    1
    51    30    49    1
    52    30    50    1
    53    30    51    1
