REMARK  9 active torsions:
REMARK  status: ('A' for Active; 'I' for Inactive)
REMARK    1  A    between atoms: C_4  and  N_5 
REMARK       I    between atoms: N_5  and  C_6 
REMARK    2  A    between atoms: C_6  and  C_8 
REMARK    3  A    between atoms: C_8  and  S_9 
REMARK    4  A    between atoms: S_9  and  C_10 
REMARK    5  A    between atoms: C_10  and  C_11 
REMARK       I    between atoms: C_11  and  N_13 
REMARK    6  A    between atoms: N_13  and  N_14 
REMARK    7  A    between atoms: N_14  and  C_15 
REMARK    8  A    between atoms: C_15  and  N_17 
REMARK    9  A    between atoms: N_17  and  C_18 
ROOT
ATOM      1  C   UNL d   1      -4.348  -8.146   0.091  0.00  0.00     0.245 C 
ATOM      2  O   UNL d   1      -3.179  -8.554   0.079  0.00  0.00    -0.271 OA
ATOM      3  N   UNL d   1      -5.385  -9.059   0.118  0.00  0.00    -0.267 N 
ATOM      4  H   UNL d   1      -6.370  -8.800   0.104  0.00  0.00     0.190 HD
ENDROOT
BRANCH   1   5
ATOM      5  C   UNL d   1      -4.767  -6.636   0.082  0.00  0.00     0.178 C 
BRANCH   5   6
ATOM      6  S   UNL d   1      -3.248  -5.617   0.059  0.00  0.00    -0.150 SA
BRANCH   6   7
ATOM      7  C   UNL d   1      -3.755  -3.822   0.052  0.00  0.00     0.177 C 
BRANCH   7   8
ATOM      8  C   UNL d   1      -2.438  -3.000   0.032  0.00  0.00     0.232 C 
ATOM      9  N   UNL d   1      -2.525  -1.618   0.021  0.00  0.00    -0.309 N 
ATOM     10  H   UNL d   1      -3.401  -1.113   0.030  0.00  0.00     0.170 HD
ATOM     11  O   UNL d   1      -1.345  -3.578   0.027  0.00  0.00    -0.272 OA
BRANCH   9  12
ATOM     12  C   UNL d   1      -1.378  -0.816   0.007  0.00  0.00     0.160 A 
ATOM     13  C   UNL d   1      -0.031  -1.244  -0.005  0.00  0.00     0.087 A 
ATOM     14  C   UNL d   1       0.728  -0.110  -0.002  0.00  0.00     0.078 A 
ATOM     15  C   UNL d   1       2.188   0.093   0.000  0.00  0.00     0.079 C 
ATOM     16  O   UNL d   1      -0.103   0.967   0.002  0.00  0.00    -0.216 OA
ATOM     17  N   UNL d   1      -1.431   0.525   0.007  0.00  0.00    -0.110 NA
ENDBRANCH   9  12
ENDBRANCH   7   8
ENDBRANCH   6   7
ENDBRANCH   5   6
ENDBRANCH   1   5
BRANCH   3  18
ATOM     18  N   UNL d   1      -5.122 -10.482   0.133  0.00  0.00    -0.274 N 
ATOM     19  H   UNL d   1      -4.137 -10.747   0.127  0.00  0.00     0.189 HD
BRANCH  18  20
ATOM     20  C   UNL d   1      -6.190 -11.367  -0.010  0.00  0.00     0.186 C 
ATOM     21  S   UNL d   1      -7.739 -10.750  -0.289  0.00  0.00    -0.040 SA
BRANCH  20  22
ATOM     22  N   UNL d   1      -5.866 -12.723   0.157  0.00  0.00    -0.361 N 
ATOM     23  H   UNL d   1      -4.887 -12.985   0.140  0.00  0.00     0.162 HD
BRANCH  22  24
ATOM     24  C   UNL d   1      -6.861 -13.843   0.204  0.00  0.00     0.083 C 
ATOM     25  C   UNL d   1      -6.269 -15.276   0.353  0.00  0.00     0.025 C 
ATOM     26  C   UNL d   1      -7.378 -16.350   0.492  0.00  0.00     0.002 C 
ATOM     27  C   UNL d   1      -8.356 -16.039   1.622  0.00  0.00     0.000 C 
ATOM     28  C   UNL d   1      -8.941 -14.656   1.437  0.00  0.00     0.002 C 
ATOM     29  C   UNL d   1      -7.835 -13.623   1.374  0.00  0.00     0.025 C 
ENDBRANCH  22  24
ENDBRANCH  20  22
ENDBRANCH  18  20
ENDBRANCH   3  18
TORSDOF 9
