REMARK  6 active torsions:
REMARK  status: ('A' for Active; 'I' for Inactive)
REMARK    1  A    between atoms: O_2  and  C_3 
REMARK    2  A    between atoms: C_8  and  N_9 
REMARK    3  A    between atoms: N_9  and  S_10 
REMARK    4  A    between atoms: S_10  and  C_13 
REMARK    5  A    between atoms: C_17  and  N_18 
REMARK       I    between atoms: N_18  and  C_19 
REMARK    6  A    between atoms: C_19  and  C_21 
ROOT
ATOM      1  C   UNL d   1      -0.735  -0.112  -3.161  0.00  0.00     0.082 A 
ATOM      2  C   UNL d   1      -1.304   1.139  -3.361  0.00  0.00     0.025 A 
ATOM      3  C   UNL d   1      -2.580   1.185  -3.896  0.00  0.00     0.004 A 
ATOM      4  C   UNL d   1      -3.242  -0.015  -4.255  0.00  0.00     0.029 A 
ATOM      5  C   UNL d   1      -2.688  -1.274  -3.961  0.00  0.00     0.036 A 
ATOM      6  C   UNL d   1      -1.443  -1.278  -3.377  0.00  0.00     0.054 A 
ENDROOT
BRANCH   5   7
ATOM      7  N   UNL d   1      -3.361  -2.510  -4.207  0.00  0.00    -0.325 N 
ATOM      8  C   UNL d   1      -2.854  -3.768  -3.833  0.00  0.00     0.254 C 
ATOM      9  O   UNL d   1      -1.789  -3.931  -3.227  0.00  0.00    -0.270 OA
ATOM     10  H   UNL d   1      -4.272  -2.440  -4.639  0.00  0.00     0.169 HD
BRANCH   8  11
ATOM     11  C   UNL d   1      -3.683  -5.016  -4.164  0.00  0.00     0.245 C 
ATOM     12  C   UNL d   1      -3.660  -5.381  -5.645  0.00  0.00     0.218 C 
ATOM     13  O   UNL d   1      -4.046  -6.735  -5.961  0.00  0.00    -0.345 OA
ATOM     14  C   UNL d   1      -3.910  -7.636  -4.942  0.00  0.00     0.102 A 
ATOM     15  C   UNL d   1      -4.298  -8.959  -5.171  0.00  0.00     0.039 A 
ATOM     16  C   UNL d   1      -3.451  -7.284  -3.681  0.00  0.00     0.103 A 
ATOM     17  C   UNL d   1      -4.309  -9.883  -4.116  0.00  0.00     0.003 A 
ATOM     18  C   UNL d   1      -3.828  -9.518  -2.860  0.00  0.00     0.003 A 
ATOM     19  C   UNL d   1      -3.378  -8.219  -2.651  0.00  0.00     0.040 A 
ATOM     20  O   UNL d   1      -3.043  -6.031  -3.370  0.00  0.00    -0.331 OA
ENDBRANCH   8  11
ENDBRANCH   5   7
BRANCH   1  21
ATOM     21  S   UNL d   1       0.492  -0.256  -1.952  0.00  0.00     0.263 S 
ATOM     22  O   UNL d   1      -0.406  -0.716  -0.883  0.00  0.00    -0.200 OA
ATOM     23  O   UNL d   1       1.189   0.996  -1.928  0.00  0.00    -0.200 OA
BRANCH  21  24
ATOM     24  N   UNL d   1       1.614  -1.476  -2.274  0.00  0.00    -0.278 N 
ATOM     25  H   UNL d   1       1.316  -2.207  -2.921  0.00  0.00     0.179 HD
BRANCH  24  26
ATOM     26  C   UNL d   1       2.737  -1.818  -1.366  0.00  0.00     0.075 A 
ATOM     27  C   UNL d   1       3.494  -2.945  -1.782  0.00  0.00     0.033 A 
ATOM     28  C   UNL d   1       4.664  -3.359  -1.112  0.00  0.00     0.002 A 
ATOM     29  C   UNL d   1       5.113  -2.673   0.005  0.00  0.00     0.003 A 
ATOM     30  C   UNL d   1       4.377  -1.601   0.471  0.00  0.00     0.039 A 
ATOM     31  C   UNL d   1       3.246  -1.131  -0.216  0.00  0.00     0.095 A 
BRANCH  31  32
ATOM     32  O   UNL d   1       2.873   0.065   0.376  0.00  0.00    -0.354 OA
ATOM     33  C   UNL d   1       1.553   0.049   0.849  0.00  0.00     0.210 C 
ENDBRANCH  31  32
ENDBRANCH  24  26
ENDBRANCH  21  24
ENDBRANCH   1  21
TORSDOF 6
