REMARK  10 active torsions:
REMARK  status: ('A' for Active; 'I' for Inactive)
REMARK    1  A    between atoms: C_2  and  C_3 
REMARK       I    between atoms: C_3  and  N_5 
REMARK    2  A    between atoms: N_5  and  C_6 
REMARK    3  A    between atoms: C_9  and  C_10 
REMARK       I    between atoms: C_10  and  N_12 
REMARK    4  A    between atoms: N_12  and  N_13 
REMARK    5  A    between atoms: N_13  and  C_14 
REMARK    6  A    between atoms: C_14  and  N_16 
REMARK       I    between atoms: N_16  and  C_17 
REMARK    7  A    between atoms: C_17  and  C_19 
REMARK    8  A    between atoms: C_19  and  O_20 
REMARK    9  A    between atoms: O_20  and  C_21 
REMARK   10  A    between atoms: C_24  and  C_25 
ROOT
ATOM      1  N   UNL d   1       6.246   0.707  -9.475  0.00  0.00    -0.273 N 
ATOM      2  H   UNL d   1       7.029   0.095  -9.698  0.00  0.00     0.189 HD
ENDROOT
BRANCH   1   3
ATOM      3  N   UNL d   1       5.856   0.712  -8.067  0.00  0.00    -0.264 N 
ATOM      4  C   UNL d   1       6.495  -0.038  -7.088  0.00  0.00     0.270 C 
ATOM      5  O   UNL d   1       7.462  -0.763  -7.356  0.00  0.00    -0.266 OA
ATOM      6  H   UNL d   1       5.042   1.294  -7.874  0.00  0.00     0.190 HD
BRANCH   4   7
ATOM      7  C   UNL d   1       5.957   0.028  -5.660  0.00  0.00     0.033 A 
ATOM      8  C   UNL d   1       6.544  -0.758  -4.643  0.00  0.00     0.019 A 
ATOM      9  C   UNL d   1       6.008  -0.810  -3.329  0.00  0.00     0.030 A 
ATOM     10  C   UNL d   1       4.886  -0.049  -2.996  0.00  0.00     0.034 A 
ATOM     11  C   UNL d   1       4.330   0.761  -3.989  0.00  0.00     0.030 A 
ATOM     12  C   UNL d   1       4.857   0.811  -5.294  0.00  0.00     0.019 A 
BRANCH  10  13
ATOM     13  N   UNL d   1       4.340  -0.056  -1.681  0.00  0.00    -0.327 N 
ATOM     14  C   UNL d   1       2.968   0.000  -1.455  0.00  0.00     0.221 C 
ATOM     15  O   UNL d   1       2.131  -0.028  -2.357  0.00  0.00    -0.273 OA
ATOM     16  H   UNL d   1       4.961  -0.255  -0.906  0.00  0.00     0.169 HD
BRANCH  14  17
ATOM     17  C   UNL d   1       2.532   0.060   0.005  0.00  0.00     0.098 C 
ATOM     18  C   UNL d   1       1.004   0.065   0.089  0.00  0.00     0.014 C 
ENDBRANCH  14  17
ENDBRANCH  10  13
ENDBRANCH   4   7
ENDBRANCH   1   3
BRANCH   1  19
ATOM     19  C   UNL d   1       5.515   1.519 -10.367  0.00  0.00     0.193 C 
ATOM     20  S   UNL d   1       4.229   2.439  -9.760  0.00  0.00    -0.039 SA
BRANCH  19  21
ATOM     21  N   UNL d   1       5.934   1.499 -11.723  0.00  0.00    -0.301 N 
ATOM     22  C   UNL d   1       5.354   2.248 -12.779  0.00  0.00     0.248 C 
ATOM     23  O   UNL d   1       4.384   2.990 -12.614  0.00  0.00    -0.271 OA
ATOM     24  H   UNL d   1       6.717   0.905 -11.958  0.00  0.00     0.171 HD
BRANCH  22  25
ATOM     25  C   UNL d   1       5.943   2.125 -14.208  0.00  0.00     0.278 C 
BRANCH  25  26
ATOM     26  O   UNL d   1       5.245   3.090 -15.027  0.00  0.00    -0.342 OA
BRANCH  26  27
ATOM     27  C   UNL d   1       5.430   3.082 -16.378  0.00  0.00     0.069 A 
ATOM     28  C   UNL d   1       5.337   4.315 -17.031  0.00  0.00     0.037 A 
ATOM     29  C   UNL d   1       5.440   4.399 -18.426  0.00  0.00     0.011 A 
ATOM     30  C   UNL d   1       5.702   3.255 -19.196  0.00  0.00    -0.050 A 
ATOM     31  C   UNL d   1       5.738   2.022 -18.523  0.00  0.00     0.011 A 
ATOM     32  C   UNL d   1       5.597   1.934 -17.135  0.00  0.00     0.037 A 
BRANCH  30  33
ATOM     33  C   UNL d   1       5.997   3.371 -20.699  0.00  0.00    -0.024 C 
ATOM     34  C   UNL d   1       4.794   3.970 -21.449  0.00  0.00     0.019 C 
ATOM     35  C   UNL d   1       7.225   4.285 -20.905  0.00  0.00     0.019 C 
ATOM     36  C   UNL d   1       6.327   2.003 -21.335  0.00  0.00     0.019 C 
ENDBRANCH  30  33
ENDBRANCH  26  27
ENDBRANCH  25  26
ENDBRANCH  22  25
ENDBRANCH  19  21
ENDBRANCH   1  19
TORSDOF 10
