@<TRIPOS>MOLECULE
*****
 45 45 0 0 0
SMALL
GASTEIGER

@<TRIPOS>ATOM
      1 C           1.1353   -0.0386    0.0638 C.3     1  UNL1       -0.0570
      2 C           2.6650   -0.0039    0.0015 C.3     1  UNL1        0.0215
      3 C           3.1042    0.8004   -1.2095 C.2     1  UNL1        0.2169
      4 O           2.2607    1.3138   -1.9462 O.2     1  UNL1       -0.2755
      5 N           4.4782    0.8809   -1.4382 N.am    1  UNL1       -0.2855
      6 C           4.9781    1.6887   -2.4919 C.ar    1  UNL1        0.0335
      7 C           6.0194    1.3098   -3.3461 C.ar    1  UNL1       -0.0387
      8 C           6.4134    2.1619   -4.4225 C.ar    1  UNL1       -0.0387
      9 C           5.7564    3.3855   -4.6547 C.ar    1  UNL1        0.0349
     10 N           6.0244    4.2031   -5.8026 N.am    1  UNL1       -0.2695
     11 C           5.3253    5.3634   -6.1080 C.2     1  UNL1        0.3040
     12 O           4.4390    5.8863   -5.4282 O.2     1  UNL1       -0.2525
     13 N           5.6718    5.9801   -7.2849 N.am    1  UNL1       -0.2963
     14 C           4.9965    7.2502   -7.6193 C.3     1  UNL1        0.0438
     15 C           5.4776    7.9139   -8.9224 C.3     1  UNL1        0.1018
     16 C           6.9714    8.2316   -8.8338 C.3     1  UNL1       -0.0324
     17 O           5.2430    7.0107  -10.0134 O.3     1  UNL1       -0.3850
     18 C           4.6830    9.2161   -9.1910 C.3     1  UNL1        0.0772
     19 O           5.1514    9.8356  -10.3983 O.3     1  UNL1       -0.3801
     20 C           4.4441   11.0312  -10.6860 C.3     1  UNL1        0.0366
     21 C           4.7874    3.7579   -3.7288 C.ar    1  UNL1       -0.0387
     22 C           4.4025    2.9341   -2.6817 C.ar    1  UNL1       -0.0387
     23 H           0.7779   -0.6193    0.9177 H       1  UNL1        0.0234
     24 H           0.7190   -0.4839   -0.8484 H       1  UNL1        0.0234
     25 H           0.7228    0.9750    0.1446 H       1  UNL1        0.0234
     26 H           3.0500   -1.0248   -0.0769 H       1  UNL1        0.0356
     27 H           3.0552    0.4585    0.9140 H       1  UNL1        0.0356
     28 H           5.1188    0.2843   -0.9320 H       1  UNL1        0.1548
     29 H           6.4732    0.3247   -3.2566 H       1  UNL1        0.0637
     30 H           7.2226    1.8300   -5.0705 H       1  UNL1        0.0637
     31 H           6.6984    3.8550   -6.4692 H       1  UNL1        0.1564
     32 H           6.4252    5.6249   -7.8499 H       1  UNL1        0.1503
     33 H           5.1321    7.9397   -6.7739 H       1  UNL1        0.0491
     34 H           3.9215    7.0315   -7.6855 H       1  UNL1        0.0491
     35 H           7.5618    7.3287   -8.6542 H       1  UNL1        0.0258
     36 H           7.1689    8.9395   -8.0207 H       1  UNL1        0.0258
     37 H           7.3441    8.6594   -9.7690 H       1  UNL1        0.0258
     38 H           5.6886    6.1737   -9.8161 H       1  UNL1        0.2103
     39 H           4.8201    9.9234   -8.3636 H       1  UNL1        0.0589
     40 H           3.6141    8.9981   -9.3029 H       1  UNL1        0.0589
     41 H           4.8223   11.4398  -11.6271 H       1  UNL1        0.0524
     42 H           4.6126   11.7645   -9.8925 H       1  UNL1        0.0524
     43 H           3.3747   10.8291  -10.7957 H       1  UNL1        0.0524
     44 H           4.2551    4.6958   -3.7733 H       1  UNL1        0.0637
     45 H           3.6220    3.3005   -2.0211 H       1  UNL1        0.0637
@<TRIPOS>BOND
     1     1     2    1
     2     2     3    1
     3     3     4    2
     4     3     5   am
     5     5     6    1
     6     6     7   ar
     7     7     8   ar
     8     8     9   ar
     9     9    10    1
    10    10    11   am
    11    11    12    2
    12    11    13   am
    13    13    14    1
    14    14    15    1
    15    15    16    1
    16    15    17    1
    17    15    18    1
    18    18    19    1
    19    19    20    1
    20     9    21   ar
    21    21    22   ar
    22     6    22   ar
    23     1    23    1
    24     1    24    1
    25     1    25    1
    26     2    26    1
    27     2    27    1
    28     5    28    1
    29     7    29    1
    30     8    30    1
    31    10    31    1
    32    13    32    1
    33    14    33    1
    34    14    34    1
    35    16    35    1
    36    16    36    1
    37    16    37    1
    38    17    38    1
    39    18    39    1
    40    18    40    1
    41    20    41    1
    42    20    42    1
    43    20    43    1
    44    21    44    1
    45    22    45    1
