@<TRIPOS>MOLECULE
*****
 55 57 0 0 0
SMALL
GASTEIGER

@<TRIPOS>ATOM
      1 C           1.5393    0.0681    0.9389 C.3     1  UNL1       -0.0306
      2 C           3.0195   -0.1217    0.9526 C.3     1  UNL1        0.0900
      3 O           3.5459    1.1892    0.7054 O.3     1  UNL1       -0.4614
      4 C           4.5456    1.6262   -0.1073 C.2     1  UNL1        0.3418
      5 O           4.9280    2.7681    0.0323 O.2     1  UNL1       -0.2449
      6 C           5.2375    0.6819   -1.0037 C.ar    1  UNL1        0.0910
      7 C           4.6934   -0.3397   -1.7796 C.ar    1  UNL1        0.0860
      8 N           3.3214   -0.7653   -2.0566 N.am    1  UNL1       -0.2905
      9 C           2.1660    0.1126   -2.1092 C.2     1  UNL1        0.1414
     10 S           2.2849    1.7505   -2.5013 S.2     1  UNL1       -0.0181
     11 N           0.8777   -0.4920   -1.7312 N.am    1  UNL1       -0.2635
     12 C          -0.2791    0.2112   -1.1831 C.2     1  UNL1        0.2496
     13 O          -0.2628    1.3903   -0.8093 O.2     1  UNL1       -0.2698
     14 C          -1.5938   -0.4055   -0.8651 C.ar    1  UNL1        0.0399
     15 C          -1.8525   -1.6889   -0.4050 C.ar    1  UNL1       -0.0315
     16 C          -3.1933   -2.0543   -0.2996 C.ar    1  UNL1        0.0283
     17 N          -4.2419   -1.2356   -0.5682 N.ar    1  UNL1       -0.2632
     18 C          -3.9591    0.0403   -0.8778 C.ar    1  UNL1        0.0283
     19 C          -2.6697    0.4974   -0.9872 C.ar    1  UNL1       -0.0315
     20 S           6.0187   -1.3415   -2.3697 S.2     1  UNL1       -0.0678
     21 C           7.2698   -0.2199   -1.9155 C.ar    1  UNL1        0.0796
     22 C           8.7301   -0.2813   -2.2426 C.2     1  UNL1        0.2552
     23 O           9.4298    0.7259   -2.1109 O.2     1  UNL1       -0.2693
     24 N           9.3388   -1.4344   -2.7451 N.am    1  UNL1       -0.2808
     25 C          10.7625   -1.4648   -2.9766 C.ar    1  UNL1        0.0366
     26 C          11.2448   -1.8454   -4.2408 C.ar    1  UNL1       -0.0402
     27 C          12.6255   -1.8903   -4.5072 C.ar    1  UNL1       -0.0600
     28 C          13.5455   -1.5809   -3.5106 C.ar    1  UNL1       -0.0614
     29 C          13.0870   -1.2198   -2.2477 C.ar    1  UNL1       -0.0571
     30 C          11.7055   -1.1575   -1.9629 C.ar    1  UNL1       -0.0292
     31 C          11.3112   -0.8489   -0.5425 C.3     1  UNL1       -0.0380
     32 C           6.6991    0.8204   -1.1808 C.ar    1  UNL1       -0.0154
     33 C           7.4542    2.0020   -0.5852 C.3     1  UNL1       -0.0376
     34 H           0.9917   -0.8683    0.7926 H       1  UNL1        0.0262
     35 H           1.4388    0.7496    0.1158 H       1  UNL1        0.0262
     36 H           1.0813    0.6651    1.7240 H       1  UNL1        0.0262
     37 H           3.3075   -0.8774    0.2259 H       1  UNL1        0.0695
     38 H           3.3183   -0.4477    1.9373 H       1  UNL1        0.0695
     39 H           3.2334   -1.7422   -2.3134 H       1  UNL1        0.1543
     40 H           0.7873   -1.4961   -1.7674 H       1  UNL1        0.1568
     41 H          -1.0777   -2.3810   -0.1018 H       1  UNL1        0.0640
     42 H          -3.4860   -3.0597   -0.0048 H       1  UNL1        0.0830
     43 H          -4.7943    0.7083   -1.0726 H       1  UNL1        0.0830
     44 H          -2.4977    1.5551   -1.1820 H       1  UNL1        0.0640
     45 H           8.7552   -2.0489   -3.2905 H       1  UNL1        0.1552
     46 H          10.5624   -2.0560   -5.0590 H       1  UNL1        0.0636
     47 H          12.9896   -2.1596   -5.4970 H       1  UNL1        0.0618
     48 H          14.6150   -1.6228   -3.7080 H       1  UNL1        0.0618
     49 H          13.8173   -1.0007   -1.4697 H       1  UNL1        0.0621
     50 H          12.1870   -0.7465    0.1065 H       1  UNL1        0.0278
     51 H          10.6930   -1.6608   -0.1496 H       1  UNL1        0.0278
     52 H          10.7798    0.0975   -0.4510 H       1  UNL1        0.0278
     53 H           8.5348    2.0104   -0.7030 H       1  UNL1        0.0278
     54 H           7.2902    2.0483    0.4961 H       1  UNL1        0.0278
     55 H           7.0997    2.9268   -1.0544 H       1  UNL1        0.0278
@<TRIPOS>BOND
     1     1     2    1
     2     2     3    1
     3     3     4    1
     4     4     5    2
     5     4     6    1
     6     6     7   ar
     7     7     8    1
     8     8     9    1
     9     9    10    2
    10     9    11    1
    11    11    12   am
    12    12    13    2
    13    12    14    1
    14    14    15   ar
    15    15    16   ar
    16    16    17   ar
    17    17    18   ar
    18    18    19   ar
    19    14    19   ar
    20     7    20   ar
    21    20    21   ar
    22    21    22    1
    23    22    23    2
    24    22    24   am
    25    24    25    1
    26    25    26   ar
    27    26    27   ar
    28    27    28   ar
    29    28    29   ar
    30    29    30   ar
    31    25    30   ar
    32    30    31    1
    33    21    32   ar
    34     6    32   ar
    35    32    33    1
    36     1    34    1
    37     1    35    1
    38     1    36    1
    39     2    37    1
    40     2    38    1
    41     8    39    1
    42    11    40    1
    43    15    41    1
    44    16    42    1
    45    18    43    1
    46    19    44    1
    47    24    45    1
    48    26    46    1
    49    27    47    1
    50    28    48    1
    51    29    49    1
    52    31    50    1
    53    31    51    1
    54    31    52    1
    55    33    53    1
    56    33    54    1
    57    33    55    1
