REMARK  7 active torsions:
REMARK  status: ('A' for Active; 'I' for Inactive)
REMARK    1  A    between atoms: C_3  and  N_4 
REMARK    2  A    between atoms: N_4  and  N_5 
REMARK       I    between atoms: N_5  and  C_6 
REMARK    3  A    between atoms: C_6  and  C_8 
REMARK    4  A    between atoms: C_10  and  O_11 
REMARK    5  A    between atoms: C_13  and  O_14 
REMARK    6  A    between atoms: N_18  and  S_19 
REMARK    7  A    between atoms: S_19  and  C_22 
ROOT
ATOM      1  O   UNL d   1       1.068  -0.097   0.093  0.00  0.00    -0.285 OA
ATOM      2  C   UNL d   1       2.296  -0.111   0.087  0.00  0.00     0.207 A 
ATOM      3  C   UNL d   1       3.054  -1.392  -0.008  0.00  0.00     0.101 A 
ATOM      4  C   UNL d   1       4.383  -1.306  -0.002  0.00  0.00     0.068 A 
ATOM      5  C   UNL d   1       5.220  -0.099   0.082  0.00  0.00     0.079 A 
ATOM      6  N   UNL d   1       6.518  -0.117   0.072  0.00  0.00    -0.160 NA
ATOM      7  C   UNL d   1       4.445   1.173   0.174  0.00  0.00    -0.015 A 
ATOM      8  C   UNL d   1       3.095   1.153   0.175  0.00  0.00     0.007 A 
ATOM      9  C   UNL d   1       2.272   2.412   0.228  0.00  0.00     0.070 C 
ATOM     10  C   UNL d   1       3.059   3.651  -0.096  0.00  0.00    -0.026 C 
ATOM     11  C   UNL d   1       4.400   3.676  -0.098  0.00  0.00    -0.026 C 
ATOM     12  C   UNL d   1       5.231   2.463   0.224  0.00  0.00     0.068 C 
ENDROOT
BRANCH   3  13
ATOM     13  N   UNL d   1       2.398  -2.609  -0.106  0.00  0.00    -0.294 N 
ATOM     14  H   UNL d   1       1.371  -2.609  -0.088  0.00  0.00     0.187 HD
BRANCH  13  15
ATOM     15  N   UNL d   1       3.063  -3.855  -0.093  0.00  0.00    -0.265 N 
ATOM     16  C   UNL d   1       2.362  -5.029  -0.242  0.00  0.00     0.270 C 
ATOM     17  O   UNL d   1       1.137  -5.093  -0.317  0.00  0.00    -0.266 OA
ATOM     18  H   UNL d   1       4.067  -3.864  -0.221  0.00  0.00     0.190 HD
BRANCH  16  19
ATOM     19  C   UNL d   1       3.208  -6.263  -0.333  0.00  0.00     0.038 A 
ATOM     20  C   UNL d   1       4.321  -6.472   0.503  0.00  0.00     0.053 A 
ATOM     21  C   UNL d   1       5.036  -7.670   0.402  0.00  0.00     0.069 A 
ATOM     22  C   UNL d   1       4.685  -8.646  -0.529  0.00  0.00     0.073 A 
ATOM     23  C   UNL d   1       3.593  -8.421  -1.358  0.00  0.00     0.069 A 
ATOM     24  C   UNL d   1       2.847  -7.248  -1.260  0.00  0.00     0.053 A 
BRANCH  21  25
ATOM     25  O   UNL d   1       6.100  -7.949   1.212  0.00  0.00    -0.361 OA
ATOM     26  H   UNL d   1       6.232  -7.226   1.848  0.00  0.00     0.217 HD
ENDBRANCH  21  25
BRANCH  23  27
ATOM     27  O   UNL d   1       3.208  -9.338  -2.292  0.00  0.00    -0.361 OA
ATOM     28  H   UNL d   1       3.804 -10.105  -2.256  0.00  0.00     0.217 HD
ENDBRANCH  23  27
ENDBRANCH  16  19
ENDBRANCH  13  15
ENDBRANCH   3  13
BRANCH   6  29
ATOM     29  S   UNL d   1       7.303  -1.549  -0.045  0.00  0.00     0.283 S 
ATOM     30  O   UNL d   1       7.027  -2.317   1.157  0.00  0.00    -0.198 OA
ATOM     31  O   UNL d   1       7.024  -2.129  -1.345  0.00  0.00    -0.198 OA
BRANCH  29  32
ATOM     32  C   UNL d   1       9.026  -1.202  -0.013  0.00  0.00     0.081 A 
ATOM     33  C   UNL d   1       9.921  -2.275   0.071  0.00  0.00     0.025 A 
ATOM     34  C   UNL d   1      11.273  -2.010   0.266  0.00  0.00     0.002 A 
ATOM     35  C   UNL d   1      11.725  -0.690   0.291  0.00  0.00     0.000 A 
ATOM     36  C   UNL d   1      10.825   0.371   0.166  0.00  0.00     0.002 A 
ATOM     37  C   UNL d   1       9.467   0.118   0.022  0.00  0.00     0.025 A 
ENDBRANCH  29  32
ENDBRANCH   6  29
TORSDOF 7
