REMARK  10 active torsions:
REMARK  status: ('A' for Active; 'I' for Inactive)
REMARK    1  A    between atoms: C_2  and  C_3 
REMARK    2  A    between atoms: C_3  and  C_4 
REMARK       I    between atoms: C_4  and  N_6 
REMARK    3  A    between atoms: N_6  and  N_7 
REMARK    4  A    between atoms: N_7  and  C_8 
REMARK    5  A    between atoms: C_8  and  N_10 
REMARK       I    between atoms: N_10  and  C_11 
REMARK    6  A    between atoms: C_11  and  C_13 
REMARK    7  A    between atoms: C_16  and  O_17 
REMARK    8  A    between atoms: O_17  and  C_18 
REMARK    9  A    between atoms: C_18  and  C_19 
REMARK   10  A    between atoms: C_19  and  C_20 
ROOT
ATOM      1  C   UNL d   1      11.097  -3.417  -3.725  0.00  0.00     0.033 A 
ATOM      2  C   UNL d   1      11.862  -3.502  -2.568  0.00  0.00     0.020 A 
ATOM      3  C   UNL d   1      13.273  -3.517  -2.664  0.00  0.00     0.039 A 
ATOM      4  C   UNL d   1      13.950  -3.463  -3.907  0.00  0.00     0.086 A 
ATOM      5  C   UNL d   1      13.164  -3.424  -5.071  0.00  0.00     0.045 A 
ATOM      6 BR   UNL d   1      13.734  -3.386  -6.898  0.00  0.00    -0.048 Br
ATOM      7  C   UNL d   1      11.764  -3.412  -4.962  0.00  0.00     0.039 A 
ENDROOT
BRANCH   1   8
ATOM      8  C   UNL d   1       9.609  -3.515  -3.770  0.00  0.00     0.257 C 
ATOM      9  N   UNL d   1       8.798  -2.760  -2.897  0.00  0.00    -0.298 N 
ATOM     10  H   UNL d   1       9.281  -2.135  -2.265  0.00  0.00     0.171 HD
ATOM     11  O   UNL d   1       9.189  -4.271  -4.651  0.00  0.00    -0.267 OA
BRANCH   9  12
ATOM     12  C   UNL d   1       7.381  -2.727  -2.894  0.00  0.00     0.193 C 
ATOM     13  S   UNL d   1       6.385  -3.636  -3.912  0.00  0.00    -0.039 SA
BRANCH  12  14
ATOM     14  N   UNL d   1       6.793  -1.867  -1.949  0.00  0.00    -0.273 N 
ATOM     15  H   UNL d   1       7.286  -1.264  -1.292  0.00  0.00     0.189 HD
BRANCH  14  16
ATOM     16  N   UNL d   1       5.343  -1.783  -1.870  0.00  0.00    -0.268 N 
ATOM     17  C   UNL d   1       4.718  -0.955  -0.952  0.00  0.00     0.236 C 
ATOM     18  O   UNL d   1       5.364  -0.254  -0.174  0.00  0.00    -0.272 OA
ATOM     19  H   UNL d   1       4.830  -2.376  -2.524  0.00  0.00     0.190 HD
BRANCH  17  20
ATOM     20  C   UNL d   1       3.176  -0.980  -0.980  0.00  0.00     0.104 C 
BRANCH  20  21
ATOM     21  C   UNL d   1       2.569  -0.033   0.070  0.00  0.00     0.005 C 
ATOM     22  C   UNL d   1       1.044  -0.026   0.077  0.00  0.00     0.005 C 
ENDBRANCH  20  21
ENDBRANCH  17  20
ENDBRANCH  14  16
ENDBRANCH  12  14
ENDBRANCH   9  12
ENDBRANCH   1   8
BRANCH   4  23
ATOM     23  O   UNL d   1      15.323  -3.464  -3.767  0.00  0.00    -0.349 OA
BRANCH  23  24
ATOM     24  C   UNL d   1      16.093  -3.392  -4.965  0.00  0.00     0.180 C 
BRANCH  24  25
ATOM     25  C   UNL d   1      17.593  -3.376  -4.717  0.00  0.00     0.065 C 
BRANCH  25  26
ATOM     26  C   UNL d   1      18.348  -3.287  -6.026  0.00  0.00    -0.056 A 
ATOM     27  C   UNL d   1      18.783  -4.443  -6.688  0.00  0.00     0.007 A 
ATOM     28  C   UNL d   1      19.596  -4.342  -7.819  0.00  0.00     0.001 A 
ATOM     29  C   UNL d   1      19.893  -3.092  -8.358  0.00  0.00     0.000 A 
ATOM     30  C   UNL d   1      19.397  -1.939  -7.754  0.00  0.00     0.001 A 
ATOM     31  C   UNL d   1      18.628  -2.035  -6.593  0.00  0.00     0.007 A 
ENDBRANCH  25  26
ENDBRANCH  24  25
ENDBRANCH  23  24
ENDBRANCH   4  23
TORSDOF 10
