@<TRIPOS>MOLECULE
*****
 56 57 0 0 0
SMALL
GASTEIGER

@<TRIPOS>ATOM
      1 C           0.8215    0.3876    0.2628 C.3     1  UNL1       -0.0647
      2 C           2.2852    0.5663    0.4311 C.3     1  UNL1       -0.0492
      3 C           2.9904    1.0095    1.6210 C.3     1  UNL1       -0.0155
      4 C           2.5043    0.1213    2.7570 C.3     1  UNL1       -0.0583
      5 C           4.4734    0.7840    1.2566 C.ar    1  UNL1       -0.0029
      6 C           5.2911    1.3184    2.2903 C.ar    1  UNL1       -0.0548
      7 C           6.6557    1.4463    2.1453 C.ar    1  UNL1       -0.0613
      8 C           7.2468    0.9522    0.9934 C.ar    1  UNL1       -0.0583
      9 C           6.4697    0.3580   -0.0303 C.ar    1  UNL1       -0.0196
     10 C           5.0613    0.2241    0.0507 C.ar    1  UNL1        0.1246
     11 O           4.5581   -0.4357   -1.0959 O.3     1  UNL1       -0.4824
     12 C           3.2339   -0.8706   -1.4546 C.3     1  UNL1        0.1666
     13 C           2.6058   -1.5354   -2.6800 C.2     1  UNL1        0.2667
     14 O           3.2483   -1.8498   -3.6942 O.2     1  UNL1       -0.2705
     15 N           1.2141   -1.6881   -2.5852 N.am    1  UNL1       -0.2323
     16 N           0.4860   -2.1966   -3.6712 N.am    1  UNL1       -0.2454
     17 C          -0.9060   -2.3142   -3.5830 C.2     1  UNL1        0.1533
     18 S          -1.7351   -1.7536   -2.2226 S.2     1  UNL1       -0.0170
     19 N          -1.4824   -2.9358   -4.7005 N.am    1  UNL1       -0.2632
     20 C          -2.8428   -3.1925   -4.8793 C.2     1  UNL1        0.2424
     21 O          -3.7237   -2.9258   -4.0695 O.2     1  UNL1       -0.2704
     22 C          -3.2406   -3.8521   -6.1577 C.2     1  UNL1        0.0011
     23 C          -4.5528   -4.0975   -6.3710 C.2     1  UNL1       -0.0497
     24 C          -5.0622   -4.8003   -7.5591 C.ar    1  UNL1       -0.0245
     25 C          -6.1982   -4.3649   -8.2624 C.ar    1  UNL1       -0.0482
     26 C          -6.6692   -5.0870   -9.3732 C.ar    1  UNL1        0.0161
     27 C          -5.9547   -6.2045   -9.8238 C.ar    1  UNL1        0.2732
     28 N          -6.3116   -6.8518  -11.0945 N.pl3   1  UNL1        0.0796
     29 O          -7.2759   -6.3961  -11.7249 O.2     1  UNL1        0.0414
     30 O          -5.6035   -7.7946  -11.4784 O.co2   1  UNL1       -0.5760
     31 C          -4.8495   -6.6687   -9.1061 C.ar    1  UNL1        0.0161
     32 C          -4.4266   -5.9778   -7.9703 C.ar    1  UNL1       -0.0482
     33 H           0.6276   -0.0249   -0.7214 H       1  UNL1        0.0230
     34 H           0.3313    1.3477    0.2983 H       1  UNL1        0.0230
     35 H           0.4300   -0.3483    0.9652 H       1  UNL1        0.0230
     36 H           2.6847    1.2164   -0.3575 H       1  UNL1        0.0268
     37 H           2.6449   -0.4526    0.5022 H       1  UNL1        0.0268
     38 H           2.7586    2.0758    1.7383 H       1  UNL1        0.0347
     39 H           2.8524   -0.9120    2.6135 H       1  UNL1        0.0236
     40 H           1.4107    0.0864    2.7691 H       1  UNL1        0.0236
     41 H           2.8426    0.4799    3.7230 H       1  UNL1        0.0236
     42 H           4.8331    1.6569    3.2212 H       1  UNL1        0.0622
     43 H           7.2323    1.9452    2.9206 H       1  UNL1        0.0618
     44 H           8.3285    1.0215    0.9020 H       1  UNL1        0.0619
     45 H           6.9999    0.0122   -0.9175 H       1  UNL1        0.0654
     46 H           2.6582    0.0405   -1.6316 H       1  UNL1        0.0795
     47 H           2.8605   -1.5862   -0.7030 H       1  UNL1        0.0795
     48 H           0.6362   -1.4928   -1.7618 H       1  UNL1        0.1729
     49 H           1.0766   -2.4725   -4.4506 H       1  UNL1        0.1718
     50 H          -0.8405   -3.2142   -5.4281 H       1  UNL1        0.1568
     51 H          -2.4868   -4.1309   -6.8800 H       1  UNL1        0.0670
     52 H          -5.3058   -3.8183   -5.6303 H       1  UNL1        0.0625
     53 H          -6.7143   -3.4473   -7.9800 H       1  UNL1        0.0626
     54 H          -7.5756   -4.7625   -9.8828 H       1  UNL1        0.0685
     55 H          -4.3006   -7.5550   -9.4139 H       1  UNL1        0.0685
     56 H          -3.5777   -6.3612   -7.4099 H       1  UNL1        0.0626
@<TRIPOS>UNITY_ATOM_ATTR
28 1
charge 1
30 1
charge -1
@<TRIPOS>BOND
     1     1     2    1
     2     2     3    1
     3     3     4    1
     4     3     5    1
     5     5     6   ar
     6     6     7   ar
     7     7     8   ar
     8     8     9   ar
     9     9    10   ar
    10     5    10   ar
    11    10    11    1
    12    11    12    1
    13    12    13    1
    14    13    14    2
    15    13    15   am
    16    15    16    1
    17    16    17    1
    18    17    18    2
    19    17    19    1
    20    19    20   am
    21    20    21    2
    22    20    22    1
    23    22    23    2
    24    23    24    1
    25    24    25   ar
    26    25    26   ar
    27    26    27   ar
    28    27    28    1
    29    28    29    2
    30    28    30    1
    31    27    31   ar
    32    31    32   ar
    33    24    32   ar
    34     1    33    1
    35     1    34    1
    36     1    35    1
    37     2    36    1
    38     2    37    1
    39     3    38    1
    40     4    39    1
    41     4    40    1
    42     4    41    1
    43     6    42    1
    44     7    43    1
    45     8    44    1
    46     9    45    1
    47    12    46    1
    48    12    47    1
    49    15    48    1
    50    16    49    1
    51    19    50    1
    52    22    51    1
    53    23    52    1
    54    25    53    1
    55    26    54    1
    56    31    55    1
    57    32    56    1
