REMARK  3 active torsions:
REMARK  status: ('A' for Active; 'I' for Inactive)
REMARK    1  A    between atoms: N_1  and  C_2 
REMARK       I    between atoms: N_10  and  C_11 
REMARK    2  A    between atoms: C_11  and  C_13 
REMARK    3  A    between atoms: C_13  and  C_14 
ROOT
ATOM      1  C   UNL d   1       2.425  -0.041  -0.085  0.00  0.00     0.141 A 
ATOM      2  C   UNL d   1       3.125   1.152  -0.132  0.00  0.00     0.062 A 
ATOM      3  C   UNL d   1       4.514   1.122  -0.115  0.00  0.00    -0.013 A 
ATOM      4  C   UNL d   1       5.131  -0.126  -0.087  0.00  0.00     0.037 A 
ATOM      5  N   UNL d   1       4.383  -1.239  -0.037  0.00  0.00    -0.280 N 
ATOM      6  N   UNL d   1       3.060  -1.224  -0.038  0.00  0.00    -0.157 NA
ATOM      7  C   UNL d   1       6.618  -0.289  -0.029  0.00  0.00     0.079 C 
ATOM      8  C   UNL d   1       7.344   0.969  -0.485  0.00  0.00     0.132 C 
ATOM      9  N   UNL d   1       6.745   2.110   0.179  0.00  0.00    -0.347 N 
ATOM     10  C   UNL d   1       7.355   2.887   1.150  0.00  0.00     0.224 C 
ATOM     11  O   UNL d   1       6.685   3.765   1.696  0.00  0.00    -0.273 OA
ATOM     12  C   UNL d   1       5.343   2.384  -0.161  0.00  0.00     0.166 C 
ATOM     13  H   UNL d   1       4.849  -2.147   0.012  0.00  0.00     0.189 HD
ENDROOT
BRANCH  10  14
ATOM     14  C   UNL d   1       8.825   2.603   1.522  0.00  0.00     0.141 C 
BRANCH  14  15
ATOM     15  C   UNL d   1       9.413   3.595   2.498  0.00  0.00    -0.049 C 
ATOM     16  C   UNL d   1       9.048   4.962   2.412  0.00  0.00     0.008 C 
ATOM     17  C   UNL d   1       9.404   5.856   3.394  0.00  0.00     0.008 C 
ATOM     18  C   UNL d   1      10.348   5.360   4.234  0.00  0.00    -0.052 C 
ATOM     19  C   UNL d   1      11.121   4.250   4.117  0.00  0.00    -0.051 C 
ATOM     20  C   UNL d   1      11.093   5.406   5.412  0.00  0.00     0.039 C 
ATOM     21  C   UNL d   1      10.404   3.209   3.427  0.00  0.00     0.015 C 
ATOM     22  C   UNL d   1      12.441   4.415   5.582  0.00  0.00     0.039 C 
ATOM     23  C   UNL d   1      11.462   3.442   5.483  0.00  0.00     0.009 C 
ENDBRANCH  14  15
ENDBRANCH  10  14
BRANCH   1  24
ATOM     24  N   UNL d   1       1.052  -0.043  -0.112  0.00  0.00    -0.383 N 
ATOM     25  H   UNL d   1       0.514   0.813  -0.101  0.00  0.00     0.157 HD
ATOM     26  H   UNL d   1       0.547  -0.918  -0.048  0.00  0.00     0.157 HD
ENDBRANCH   1  24
TORSDOF 3
