@<TRIPOS>MOLECULE
*****
 47 48 0 0 0
SMALL
GASTEIGER

@<TRIPOS>ATOM
      1 C           0.3809   -2.3485   -0.0062 C.3     1  UNL1       -0.0387
      2 C           1.0637   -1.0060    0.0017 C.ar    1  UNL1       -0.0365
      3 C           2.4686   -0.9364   -0.0013 C.ar    1  UNL1       -0.0571
      4 C           3.1577    0.2947   -0.0046 C.ar    1  UNL1       -0.0493
      5 C           2.4509    1.4952   -0.0088 C.ar    1  UNL1        0.0381
      6 C           3.0765    2.8687   -0.0328 C.2     1  UNL1        0.2496
      7 O           2.2589    3.7957   -0.0375 O.2     1  UNL1       -0.2698
      8 N           4.4817    3.0741   -0.0535 N.am    1  UNL1       -0.2627
      9 C           5.1537    4.3269   -0.0809 C.2     1  UNL1        0.1533
     10 S           4.3977    5.8363   -0.0958 S.2     1  UNL1       -0.0170
     11 N           6.5623    4.2622   -0.0966 N.am    1  UNL1       -0.2455
     12 N           7.3369    5.5020   -0.1214 N.am    1  UNL1       -0.2351
     13 C           8.7266    5.4929   -0.1356 C.2     1  UNL1        0.2295
     14 O           9.3682    4.4427   -0.1297 O.2     1  UNL1       -0.2743
     15 C           9.4049    6.8747   -0.1629 C.3     1  UNL1        0.0336
     16 C          10.9571    6.7999   -0.1844 C.3     1  UNL1        0.0326
     17 C          11.5854    8.1921   -0.2646 C.2     1  UNL1        0.2177
     18 O          10.8730    9.1788   -0.4491 O.2     1  UNL1       -0.2755
     19 N          12.9807    8.2529   -0.1889 N.am    1  UNL1       -0.2843
     20 C          13.6657    9.5120   -0.1935 C.ar    1  UNL1        0.0519
     21 C          14.7755    9.7000   -1.0402 C.ar    1  UNL1       -0.0390
     22 C          15.4122   10.9537   -1.1206 C.ar    1  UNL1       -0.0599
     23 C          14.9714   12.0208   -0.3405 C.ar    1  UNL1       -0.0603
     24 C          13.9116   11.8317    0.5405 C.ar    1  UNL1       -0.0416
     25 C          13.2750   10.5879    0.6309 C.ar    1  UNL1        0.0621
     26 CL         12.1379   10.4138    1.9303 Cl      1  UNL1       -0.0816
     27 C           1.0338    1.4211    0.0019 C.ar    1  UNL1       -0.0354
     28 C           0.3504    0.1953    0.0056 C.ar    1  UNL1        0.0215
     29 BR         -1.5524    0.2274    0.0065 Br      1  UNL1       -0.0500
     30 H           1.1083   -3.1671   -0.0039 H       1  UNL1        0.0278
     31 H          -0.2341   -2.4642   -0.9055 H       1  UNL1        0.0278
     32 H          -0.2475   -2.4712    0.8827 H       1  UNL1        0.0278
     33 H           3.0463   -1.8600   -0.0051 H       1  UNL1        0.0621
     34 H           4.2397    0.2690   -0.0065 H       1  UNL1        0.0625
     35 H           5.0642    2.2510   -0.0501 H       1  UNL1        0.1569
     36 H           7.1268    3.4150   -0.0885 H       1  UNL1        0.1718
     37 H           6.7848    6.3619   -0.1275 H       1  UNL1        0.1728
     38 H           9.0828    7.4515    0.7146 H       1  UNL1        0.0363
     39 H           9.0560    7.4200   -1.0503 H       1  UNL1        0.0363
     40 H          11.2861    6.2273   -1.0587 H       1  UNL1        0.0363
     41 H          11.3177    6.2908    0.7164 H       1  UNL1        0.0363
     42 H          13.5140    7.4273   -0.4354 H       1  UNL1        0.1548
     43 H          15.1329    8.9093   -1.6959 H       1  UNL1        0.0636
     44 H          16.2454   11.1114   -1.8049 H       1  UNL1        0.0618
     45 H          15.4561   12.9932   -0.4003 H       1  UNL1        0.0618
     46 H          13.5879   12.6514    1.1768 H       1  UNL1        0.0633
     47 H           0.4428    2.3389    0.0031 H       1  UNL1        0.0636
@<TRIPOS>BOND
     1     1     2    1
     2     2     3   ar
     3     3     4   ar
     4     4     5   ar
     5     5     6    1
     6     6     7    2
     7     6     8   am
     8     8     9    1
     9     9    10    2
    10     9    11    1
    11    11    12    1
    12    12    13   am
    13    13    14    2
    14    13    15    1
    15    15    16    1
    16    16    17    1
    17    17    18    2
    18    17    19   am
    19    19    20    1
    20    20    21   ar
    21    21    22   ar
    22    22    23   ar
    23    23    24   ar
    24    24    25   ar
    25    20    25   ar
    26    25    26    1
    27     5    27   ar
    28    27    28   ar
    29     2    28   ar
    30    28    29    1
    31     1    30    1
    32     1    31    1
    33     1    32    1
    34     3    33    1
    35     4    34    1
    36     8    35    1
    37    11    36    1
    38    12    37    1
    39    15    38    1
    40    15    39    1
    41    16    40    1
    42    16    41    1
    43    19    42    1
    44    21    43    1
    45    22    44    1
    46    23    45    1
    47    24    46    1
    48    27    47    1
