@<TRIPOS>MOLECULE
*****
 45 45 0 0 0
SMALL
GASTEIGER

@<TRIPOS>ATOM
      1 C           0.8994   -0.0465    0.0555 C.3     1  UNL1       -0.0653
      2 C           2.4217   -0.0785    0.0517 C.3     1  UNL1       -0.0559
      3 C           2.9464    1.0305   -0.8434 C.3     1  UNL1       -0.0516
      4 C           4.4742    1.1221   -0.8765 C.3     1  UNL1       -0.0324
      5 CA          4.9886    2.2849   -1.7632 C.3     1  UNL1        0.0465
      6 C           4.4514    3.6592   -1.2792 C.3     1  UNL1        0.0626
      7 O           3.0401    3.8150   -1.3607 O.3     1  UNL1       -0.3932
      8 N           6.4600    2.3051   -1.8091 N.am    1  UNL1       -0.3063
      9 C           7.1455    3.2519   -2.5546 C.2     1  UNL1        0.2444
     10 O           6.5964    4.0931   -3.2686 O.2     1  UNL1       -0.2702
     11 C           8.6237    3.2416   -2.5105 C.ar    1  UNL1        0.0385
     12 C           9.3676    4.4162   -2.5107 C.ar    1  UNL1       -0.0495
     13 C          10.7540    4.3502   -2.6921 C.ar    1  UNL1       -0.0593
     14 C          11.4037    3.1079   -2.8274 C.ar    1  UNL1       -0.0404
     15 C          10.6568    1.9237   -2.8264 C.ar    1  UNL1        0.0341
     16 N          11.2800    0.6592   -3.0394 N.am    1  UNL1       -0.2855
     17 C          10.5734   -0.5361   -3.1140 C.2     1  UNL1        0.2169
     18 O           9.3543   -0.6461   -2.9871 O.2     1  UNL1       -0.2755
     19 C          11.3718   -1.7941   -3.3636 C.3     1  UNL1        0.0215
     20 C          10.3886   -2.9721   -3.3890 C.3     1  UNL1       -0.0570
     21 C           9.2724    2.0258   -2.6589 C.ar    1  UNL1       -0.0284
     22 H           0.5029   -0.8286    0.7066 H       1  UNL1        0.0230
     23 H           0.5051   -0.1983   -0.9548 H       1  UNL1        0.0230
     24 H           0.5276    0.9197    0.4172 H       1  UNL1        0.0230
     25 H           2.7817   -1.0514   -0.2933 H       1  UNL1        0.0263
     26 H           2.7867    0.0779    1.0735 H       1  UNL1        0.0263
     27 H           2.5232    1.9436   -0.4248 H       1  UNL1        0.0266
     28 H           2.5592    0.9184   -1.8639 H       1  UNL1        0.0266
     29 H           4.8800    0.1682   -1.2402 H       1  UNL1        0.0284
     30 H           4.8530    1.2464    0.1458 H       1  UNL1        0.0284
     31 HA          4.6418    2.1015   -2.7895 H       1  UNL1        0.0521
     32 H1          4.8585    4.4796   -1.8670 H       1  UNL1        0.0575
     33 H2          4.7611    3.8208   -0.2415 H       1  UNL1        0.0575
     34 H           2.7591    3.4929   -2.2338 H       1  UNL1        0.2095
     35 H           6.9757    1.6169   -1.2693 H       1  UNL1        0.1494
     36 H           8.8661    5.3739   -2.3938 H       1  UNL1        0.0625
     37 H          11.3224    5.2764   -2.7614 H       1  UNL1        0.0618
     38 H          12.4845    3.1034   -2.9495 H       1  UNL1        0.0636
     39 H          12.2836    0.6502   -3.1832 H       1  UNL1        0.1548
     40 H          12.0976   -1.9339   -2.5579 H       1  UNL1        0.0356
     41 H          11.8896   -1.7218   -4.3241 H       1  UNL1        0.0356
     42 H           9.8367   -3.0376   -2.4412 H       1  UNL1        0.0234
     43 H          10.8928   -3.9239   -3.5564 H       1  UNL1        0.0234
     44 H           9.6388   -2.8359   -4.1805 H       1  UNL1        0.0234
     45 H           8.6211    1.1699   -2.7030 H       1  UNL1        0.0644
@<TRIPOS>BOND
     1     1     2    1
     2     2     3    1
     3     3     4    1
     4     4     5    1
     5     5     6    1
     6     6     7    1
     7     5     8    1
     8     8     9   am
     9     9    10    2
    10     9    11    1
    11    11    12   ar
    12    12    13   ar
    13    13    14   ar
    14    14    15   ar
    15    15    16    1
    16    16    17   am
    17    17    18    2
    18    17    19    1
    19    19    20    1
    20    15    21   ar
    21    11    21   ar
    22     1    22    1
    23     1    23    1
    24     1    24    1
    25     2    25    1
    26     2    26    1
    27     3    27    1
    28     3    28    1
    29     4    29    1
    30     4    30    1
    31     5    31    1
    32     6    32    1
    33     6    33    1
    34     7    34    1
    35     8    35    1
    36    12    36    1
    37    13    37    1
    38    14    38    1
    39    16    39    1
    40    19    40    1
    41    19    41    1
    42    20    42    1
    43    20    43    1
    44    20    44    1
    45    21    45    1
