@<TRIPOS>MOLECULE
*****
 44 47 0 0 0
SMALL
GASTEIGER

@<TRIPOS>ATOM
      1 O           1.0929   -0.2291   -0.0454 O.2     1  UNL1       -0.2686
      2 C           2.3194   -0.1222   -0.0441 C.2     1  UNL1        0.2604
      3 N           3.0298    0.2383   -1.1740 N.am    1  UNL1       -0.3101
      4 C           2.3600    0.5390   -2.4311 C.3     1  UNL1        0.0123
      5 C           3.3321    0.8175   -3.5780 C.3     1  UNL1       -0.0306
      6 C           2.5876    1.1300   -4.8808 C.3     1  UNL1        0.0068
      7 C           3.5356    1.4373   -5.9910 C.ar    1  UNL1        0.1082
      8 N           3.8370    2.6337   -6.4513 N.ar    1  UNL1       -0.2325
      9 C           4.7431    2.4260   -7.4624 C.ar    1  UNL1        0.0891
     10 C           5.3826    3.3512   -8.2994 C.ar    1  UNL1       -0.0342
     11 C           6.2767    2.8750   -9.2669 C.ar    1  UNL1       -0.0596
     12 C           6.5381    1.5076   -9.3884 C.ar    1  UNL1       -0.0597
     13 C           5.9105    0.5693   -8.5599 C.ar    1  UNL1       -0.0363
     14 C           5.0126    1.0711   -7.6154 C.ar    1  UNL1        0.0662
     15 N           4.2192    0.4624   -6.6774 N.ar    1  UNL1       -0.3418
     16 C           3.1191   -0.3858    1.1374 C.ar    1  UNL1        0.1029
     17 C           4.2338    0.2837    1.6101 C.ar    1  UNL1       -0.0239
     18 C           4.6097   -0.2788    2.8596 C.ar    1  UNL1        0.0071
     19 C           5.6251    0.0285    3.7867 C.ar    1  UNL1       -0.0521
     20 C           5.7315   -0.7002    4.9736 C.ar    1  UNL1       -0.0547
     21 C           4.8465   -1.7409    5.2424 C.ar    1  UNL1        0.0178
     22 C           3.8257   -2.0816    4.3284 C.ar    1  UNL1        0.2967
     23 N           2.9360   -3.2013    4.6647 N.pl3   1  UNL1        0.0818
     24 O           2.0618   -3.4986    3.8376 O.2     1  UNL1        0.0415
     25 O           3.1144   -3.7872    5.7431 O.co2   1  UNL1       -0.5760
     26 C           3.7204   -1.3183    3.1388 C.ar    1  UNL1        0.1251
     27 N           2.8253   -1.3578    2.0798 N.ar    1  UNL1       -0.3453
     28 H           4.0408    0.2290   -1.1357 H       1  UNL1        0.1490
     29 H           1.7120    1.4067   -2.2630 H       1  UNL1        0.0462
     30 H           1.7148   -0.3108   -2.6831 H       1  UNL1        0.0462
     31 H           3.9883   -0.0501   -3.7256 H       1  UNL1        0.0284
     32 H           3.9874    1.6580   -3.3154 H       1  UNL1        0.0284
     33 H           1.9285    1.9949   -4.7346 H       1  UNL1        0.0344
     34 H           1.9462    0.2881   -5.1688 H       1  UNL1        0.0344
     35 H           5.1781    4.4107   -8.1948 H       1  UNL1        0.0639
     36 H           6.7708    3.5808   -9.9303 H       1  UNL1        0.0618
     37 H           7.2411    1.1647  -10.1451 H       1  UNL1        0.0618
     38 H           6.1129   -0.4915   -8.6570 H       1  UNL1        0.0639
     39 H           4.1517   -0.5319   -6.5184 H       1  UNL1        0.1671
     40 H           4.6959    1.1410    1.1392 H       1  UNL1        0.0646
     41 H           6.3184    0.8408    3.5851 H       1  UNL1        0.0624
     42 H           6.5101   -0.4475    5.6909 H       1  UNL1        0.0620
     43 H           4.9618   -2.2824    6.1818 H       1  UNL1        0.0686
     44 H           2.0467   -2.0063    2.0123 H       1  UNL1        0.1662
@<TRIPOS>UNITY_ATOM_ATTR
23 1
charge 1
25 1
charge -1
@<TRIPOS>BOND
     1     1     2    2
     2     2     3   am
     3     3     4    1
     4     4     5    1
     5     5     6    1
     6     6     7    1
     7     7     8   ar
     8     8     9   ar
     9     9    10   ar
    10    10    11   ar
    11    11    12   ar
    12    12    13   ar
    13    13    14   ar
    14     9    14   ar
    15    14    15   ar
    16     7    15   ar
    17     2    16    1
    18    16    17   ar
    19    17    18   ar
    20    18    19   ar
    21    19    20   ar
    22    20    21   ar
    23    21    22   ar
    24    22    23    1
    25    23    24    2
    26    23    25    1
    27    22    26   ar
    28    18    26   ar
    29    26    27   ar
    30    16    27   ar
    31     3    28    1
    32     4    29    1
    33     4    30    1
    34     5    31    1
    35     5    32    1
    36     6    33    1
    37     6    34    1
    38    10    35    1
    39    11    36    1
    40    12    37    1
    41    13    38    1
    42    15    39    1
    43    17    40    1
    44    19    41    1
    45    20    42    1
    46    21    43    1
    47    27    44    1
