REMARK  6 active torsions:
REMARK  status: ('A' for Active; 'I' for Inactive)
REMARK       I    between atoms: C_2  and  N_3 
REMARK    1  A    between atoms: C_2  and  C_19 
REMARK    2  A    between atoms: N_3  and  C_4 
REMARK    3  A    between atoms: C_8  and  S_9 
REMARK    4  A    between atoms: S_9  and  N_12 
REMARK    5  A    between atoms: N_12  and  C_13 
REMARK    6  A    between atoms: C_25  and  N_26 
ROOT
ATOM      1  C   UNL d   1       2.357   2.039   1.474  0.00  0.00     0.036 A 
ATOM      2  C   UNL d   1       2.909   3.321   1.558  0.00  0.00     0.029 A 
ATOM      3  C   UNL d   1       2.385   4.256   2.462  0.00  0.00     0.004 A 
ATOM      4  C   UNL d   1       1.280   3.926   3.255  0.00  0.00     0.025 A 
ATOM      5  C   UNL d   1       0.719   2.648   3.151  0.00  0.00     0.083 A 
ATOM      6  C   UNL d   1       1.252   1.719   2.263  0.00  0.00     0.054 A 
ENDROOT
BRANCH   1   7
ATOM      7  N   UNL d   1       2.964   1.064   0.647  0.00  0.00    -0.323 N 
ATOM      8  C   UNL d   1       2.268   0.009   0.072  0.00  0.00     0.258 C 
ATOM      9  O   UNL d   1       1.065  -0.229   0.199  0.00  0.00    -0.267 OA
ATOM     10  H   UNL d   1       3.948   1.200   0.441  0.00  0.00     0.169 HD
BRANCH   8  11
ATOM     11  C   UNL d   1       3.048  -0.931  -0.757  0.00  0.00     0.067 A 
ATOM     12  C   UNL d   1       4.146  -1.559  -0.136  0.00  0.00     0.043 A 
ATOM     13  C   UNL d   1       4.932  -2.469  -0.844  0.00  0.00     0.035 A 
ATOM     14 CL   UNL d   1       6.378  -3.080  -0.143  0.00  0.00    -0.084 Cl
ATOM     15  C   UNL d   1       4.588  -2.844  -2.138  0.00  0.00     0.026 A 
ATOM     16  C   UNL d   1       3.483  -2.255  -2.754  0.00  0.00     0.039 A 
ATOM     17  C   UNL d   1       2.703  -1.294  -2.073  0.00  0.00     0.118 A 
BRANCH  17  18
ATOM     18  N   UNL d   1       1.574  -0.703  -2.821  0.00  0.00    -0.115 N 
ATOM     19  O   UNL d   1       1.333  -1.183  -3.939  0.00  0.00    -0.532 OA
ATOM     20  O   UNL d   1       0.966   0.262  -2.353  0.00  0.00    -0.532 OA
ENDBRANCH  17  18
ENDBRANCH   8  11
ENDBRANCH   1   7
BRANCH   5  21
ATOM     21  S   UNL d   1      -0.623   2.176   4.237  0.00  0.00     0.284 S 
ATOM     22  O   UNL d   1      -0.057   2.247   5.571  0.00  0.00    -0.198 OA
ATOM     23  O   UNL d   1      -1.737   3.037   3.873  0.00  0.00    -0.198 OA
BRANCH  21  24
ATOM     24  N   UNL d   1      -0.989   0.618   3.922  0.00  0.00    -0.147 NA
BRANCH  24  25
ATOM     25  C   UNL d   1      -1.721   0.290   2.916  0.00  0.00     0.113 C 
ATOM     26  C   UNL d   1      -2.065  -1.171   2.641  0.00  0.00     0.080 C 
ATOM     27  C   UNL d   1      -2.545  -1.112   1.184  0.00  0.00     0.027 C 
ATOM     28  C   UNL d   1      -3.128   0.293   1.040  0.00  0.00     0.121 C 
ATOM     29  N   UNL d   1      -2.312   1.054   1.952  0.00  0.00    -0.378 N 
ATOM     30  H   UNL d   1      -2.385   2.064   2.026  0.00  0.00     0.160 HD
ENDBRANCH  24  25
ENDBRANCH  21  24
ENDBRANCH   5  21
TORSDOF 6
