@<TRIPOS>MOLECULE
*****
 57 61 0 0 0
SMALL
GASTEIGER

@<TRIPOS>ATOM
      1 C           1.1447   -0.0694    0.0027 C.3     1  UNL1       -0.0201
      2 C           2.6424    0.0135    0.0116 C.2     1  UNL1        0.0702
      3 N           3.4215   -1.0376   -0.0200 N.2     1  UNL1       -0.1788
      4 N           4.7444   -0.5593   -0.1733 N.am    1  UNL1       -0.1578
      5 C           5.8739   -1.4209    0.1752 C.3     1  UNL1        0.1640
      6 N           6.9083   -1.5012   -0.8425 N.pl3   1  UNL1       -0.3149
      7 C           8.1873   -1.5722   -0.2916 C.ar    1  UNL1        0.0428
      8 C           9.3432   -1.9519   -0.9670 C.ar    1  UNL1       -0.0397
      9 C          10.5786   -1.9295   -0.2976 C.ar    1  UNL1       -0.0599
     10 C          10.6571   -1.5315    1.0425 C.ar    1  UNL1       -0.0606
     11 C           9.4958   -1.1948    1.7380 C.ar    1  UNL1       -0.0464
     12 C           8.2793   -1.2404    1.0671 C.ar    1  UNL1        0.0321
     13 S           6.6753   -0.9111    1.7451 S.3     1  UNL1       -0.0798
     14 C           4.8081    0.8259   -0.3081 C.2     1  UNL1        0.2715
     15 O           5.7552    1.5636   -0.5613 O.2     1  UNL1       -0.2680
     16 C           3.4169    1.2699    0.0104 C.2     1  UNL1        0.0774
     17 C           3.0640    2.5231    0.3723 C.2     1  UNL1        0.0148
     18 C           1.6717    2.8888    0.8784 C.3     1  UNL1       -0.0260
     19 N           3.9595    3.5965    0.3645 N.pl3   1  UNL1       -0.3464
     20 C           3.6286    4.8999    0.8767 C.3     1  UNL1        0.0128
     21 C           4.7713    5.8886    0.8946 C.3     1  UNL1       -0.0090
     22 C           4.3395    7.2372    1.4069 C.2     1  UNL1        0.0119
     23 C           3.4482    7.5538    2.3582 C.ar    1  UNL1        0.0512
     24 C           2.5973    6.8113    3.2310 C.ar    1  UNL1       -0.0482
     25 C           1.8038    7.4555    4.0924 C.ar    1  UNL1       -0.0608
     26 C           1.8141    8.8987    4.1890 C.ar    1  UNL1       -0.0555
     27 C           2.6030    9.6862    3.4311 C.ar    1  UNL1        0.0098
     28 C           3.4922    9.0296    2.4465 C.ar    1  UNL1        0.2088
     29 N           4.3350    9.5386    1.6282 N.2     1  UNL1       -0.2345
     30 C           4.9907    8.4694    0.8344 C.3     1  UNL1        0.1732
     31 C           6.4894    8.4423    1.0689 C.3     1  UNL1        0.0017
     32 H           0.8056   -1.0862   -0.1967 H       1  UNL1        0.0293
     33 H           0.7467    0.5851   -0.7833 H       1  UNL1        0.0293
     34 H           0.7294    0.2106    0.9738 H       1  UNL1        0.0293
     35 H           5.4733   -2.4303    0.3343 H       1  UNL1        0.0852
     36 H           6.7001   -1.6291   -1.8169 H       1  UNL1        0.1487
     37 H           9.3090   -2.2808   -2.0010 H       1  UNL1        0.0636
     38 H          11.4883   -2.2213   -0.8206 H       1  UNL1        0.0618
     39 H          11.6224   -1.4974    1.5442 H       1  UNL1        0.0618
     40 H           9.5468   -0.9063    2.7825 H       1  UNL1        0.0629
     41 H           0.9424    2.0969    0.8725 H       1  UNL1        0.0290
     42 H           1.2374    3.6814    0.2618 H       1  UNL1        0.0290
     43 H           1.7044    3.2281    1.9223 H       1  UNL1        0.0290
     44 H           4.9441    3.3616    0.1908 H       1  UNL1        0.1458
     45 H           3.3001    4.7338    1.8944 H       1  UNL1        0.0464
     46 H           2.8005    5.3246    0.2957 H       1  UNL1        0.0464
     47 H           5.1648    5.9877   -0.1239 H       1  UNL1        0.0328
     48 H           5.5948    5.5242    1.5206 H       1  UNL1        0.0328
     49 H           2.5659    5.7340    3.2496 H       1  UNL1        0.0626
     50 H           1.1532    6.8797    4.7485 H       1  UNL1        0.0618
     51 H           1.1459    9.3155    4.9404 H       1  UNL1        0.0620
     52 H           2.5860   10.7619    3.5528 H       1  UNL1        0.0683
     53 H           4.4945   10.5405    1.5366 H       1  UNL1        0.4462
     54 H           4.7321    8.6167   -0.2206 H       1  UNL1        0.1111
     55 H           6.7321    8.3493    2.1340 H       1  UNL1        0.0297
     56 H           6.9774    9.3392    0.6797 H       1  UNL1        0.0297
     57 H           6.9378    7.5784    0.5609 H       1  UNL1        0.0297
@<TRIPOS>UNITY_ATOM_ATTR
29 1
charge 1
@<TRIPOS>BOND
     1     1     2    1
     2     2     3    2
     3     3     4    1
     4     4     5    1
     5     5     6    1
     6     6     7    1
     7     7     8   ar
     8     8     9   ar
     9     9    10   ar
    10    10    11   ar
    11    11    12   ar
    12     7    12   ar
    13    12    13    1
    14     5    13    1
    15     4    14   am
    16    14    15    2
    17    14    16    1
    18     2    16    1
    19    16    17    2
    20    17    18    1
    21    17    19    1
    22    19    20    1
    23    20    21    1
    24    21    22    1
    25    22    23    2
    26    23    24   ar
    27    24    25   ar
    28    25    26   ar
    29    26    27   ar
    30    27    28   ar
    31    23    28   ar
    32    28    29    2
    33    29    30    1
    34    22    30    1
    35    30    31    1
    36     1    32    1
    37     1    33    1
    38     1    34    1
    39     5    35    1
    40     6    36    1
    41     8    37    1
    42     9    38    1
    43    10    39    1
    44    11    40    1
    45    18    41    1
    46    18    42    1
    47    18    43    1
    48    19    44    1
    49    20    45    1
    50    20    46    1
    51    21    47    1
    52    21    48    1
    53    24    49    1
    54    25    50    1
    55    26    51    1
    56    27    52    1
    57    29    53    1
    58    30    54    1
    59    31    55    1
    60    31    56    1
    61    31    57    1
