@<TRIPOS>MOLECULE
*****
 50 52 0 0 0
SMALL
GASTEIGER

@<TRIPOS>ATOM
      1 C           1.0755   -0.0596    0.0685 C.3     1  UNL1       -0.0468
      2 C           2.6090   -0.0186    0.0537 C.3     1  UNL1        0.0189
      3 C           3.0589    0.3460   -1.3665 C.3     1  UNL1       -0.0468
      4 N           3.1773    0.9058    1.0621 N.am    1  UNL1       -0.2968
      5 C           4.5534    0.9803    1.2376 C.2     1  UNL1        0.3041
      6 O           5.3091    0.2846    0.5711 O.2     1  UNL1       -0.2525
      7 N           4.9982    1.8737    2.2113 N.am    1  UNL1       -0.2695
      8 C           6.4052    2.1440    2.4045 C.ar    1  UNL1        0.0349
      9 C           7.0131    2.3333    3.6491 C.ar    1  UNL1       -0.0387
     10 C           8.4516    2.6312    3.7552 C.ar    1  UNL1       -0.0387
     11 C           9.3407    2.7070    2.6181 C.ar    1  UNL1        0.0336
     12 N          10.8897    2.8366    2.6881 N.am    1  UNL1       -0.2840
     13 C          11.9042    2.7901    1.5403 C.2     1  UNL1        0.2370
     14 O          11.4830    2.8142    0.3876 O.2     1  UNL1       -0.2735
     15 C          13.6905    2.7290    1.8603 C.3     1  UNL1        0.0998
     16 N          15.0193    2.8886    0.6965 N.ar    1  UNL1       -0.3378
     17 C          15.0422    4.2796    0.4978 C.ar    1  UNL1        0.0062
     18 C          15.1753    4.0659   -0.8392 C.ar    1  UNL1       -0.0362
     19 C          16.5107    3.7200   -0.7895 C.ar    1  UNL1        0.0063
     20 C          17.4612    4.3285   -1.7410 C.ar    1  UNL1        0.0247
     21 C          18.8135    4.2143   -1.8190 C.ar    1  UNL1        0.2738
     22 N          19.5930    4.8474   -2.9316 N.pl3   1  UNL1        0.0796
     23 O          18.9247    5.4998   -3.7879 O.2     1  UNL1        0.0414
     24 O          20.8024    4.6957   -2.9973 O.co2   1  UNL1       -0.5760
     25 C          19.2725    3.4348   -0.8030 C.ar    1  UNL1        0.0176
     26 C          18.2468    2.7621    0.1727 C.ar    1  UNL1       -0.0312
     27 C          16.6713    2.7225    0.5149 C.ar    1  UNL1        0.0499
     28 C           8.6541    2.5835    1.4115 C.ar    1  UNL1       -0.0387
     29 C           7.2521    2.2945    1.3063 C.ar    1  UNL1       -0.0387
     30 H           0.6983   -0.7688   -0.6822 H       1  UNL1        0.0247
     31 H           0.6497    0.9213   -0.1686 H       1  UNL1        0.0247
     32 H           0.6861   -0.3739    1.0409 H       1  UNL1        0.0247
     33 H           2.9779   -1.0253    0.2921 H       1  UNL1        0.0493
     34 H           2.7126    1.3493   -1.6344 H       1  UNL1        0.0247
     35 H           2.6651   -0.3645   -2.1018 H       1  UNL1        0.0247
     36 H           4.1461    0.3366   -1.4708 H       1  UNL1        0.0247
     37 H           2.5449    1.4332    1.6437 H       1  UNL1        0.1505
     38 H           4.3364    2.2194    2.8907 H       1  UNL1        0.1564
     39 H           6.4211    2.1672    4.5557 H       1  UNL1        0.0637
     40 H           8.8048    2.7852    4.7766 H       1  UNL1        0.0637
     41 H          11.2033    2.9341    3.6472 H       1  UNL1        0.1549
     42 H          13.9842    1.9406    2.5413 H       1  UNL1        0.0588
     43 H          13.8033    3.7315    2.3058 H       1  UNL1        0.0588
     44 H          15.6590    4.6994    1.3007 H       1  UNL1        0.0809
     45 H          14.5418    3.6179   -1.5940 H       1  UNL1        0.0639
     46 H          16.9927    5.0450   -2.4215 H       1  UNL1        0.0692
     47 H          20.3625    3.3033   -0.7216 H       1  UNL1        0.0686
     48 H          18.8657    2.1054    0.8256 H       1  UNL1        0.0640
     49 H           9.1727    2.7120    0.4729 H       1  UNL1        0.0637
     50 H           6.8329    2.2048    0.3053 H       1  UNL1        0.0637
@<TRIPOS>UNITY_ATOM_ATTR
22 1
charge 1
24 1
charge -1
@<TRIPOS>BOND
     1     1     2    1
     2     2     3    1
     3     2     4    1
     4     4     5   am
     5     5     6    2
     6     5     7   am
     7     7     8    1
     8     8     9   ar
     9     9    10   ar
    10    10    11   ar
    11    11    12    1
    12    12    13   am
    13    13    14    2
    14    13    15    1
    15    15    16    1
    16    16    17   ar
    17    17    18   ar
    18    18    19   ar
    19    19    20   ar
    20    20    21   ar
    21    21    22    1
    22    22    23    2
    23    22    24    1
    24    21    25   ar
    25    25    26   ar
    26    26    27   ar
    27    19    27   ar
    28    16    27   ar
    29    11    28   ar
    30    28    29   ar
    31     8    29   ar
    32     1    30    1
    33     1    31    1
    34     1    32    1
    35     2    33    1
    36     3    34    1
    37     3    35    1
    38     3    36    1
    39     4    37    1
    40     7    38    1
    41     9    39    1
    42    10    40    1
    43    12    41    1
    44    15    42    1
    45    15    43    1
    46    17    44    1
    47    18    45    1
    48    20    46    1
    49    25    47    1
    50    26    48    1
    51    28    49    1
    52    29    50    1
