@<TRIPOS>MOLECULE
*****
 37 38 0 0 0
SMALL
GASTEIGER

@<TRIPOS>ATOM
      1 C           0.9413   -0.0354    0.0363 C.3     1  UNL1       -0.0416
      2 C           2.4626   -0.0408    0.0243 C.3     1  UNL1        0.0455
      3 O           2.9483    0.5226    1.2419 O.3     1  UNL1       -0.3708
      4 C           4.3760    0.5611    1.3206 C.3     1  UNL1        0.1251
      5 C           4.8813    1.1758    2.6527 C.2     1  UNL1        0.2548
      6 O           4.1311    1.5802    3.5437 O.2     1  UNL1       -0.2718
      7 N           6.2627    1.2457    2.8007 N.am    1  UNL1       -0.2322
      8 N           6.7934    1.7714    4.0178 N.am    1  UNL1       -0.2290
      9 C           8.1695    1.9121    4.1838 C.2     1  UNL1        0.2802
     10 O           8.9544    1.5819    3.2856 O.2     1  UNL1       -0.2669
     11 C           8.6112    2.4367    5.5011 C.ar    1  UNL1        0.1488
     12 C           8.0422    2.1479    6.7738 C.ar    1  UNL1       -0.0041
     13 C           8.8307    2.7764    7.7166 C.ar    1  UNL1        0.0665
     14 C           8.7991    2.7281    9.1739 C.ar    1  UNL1       -0.0002
     15 C           8.7044    3.8929    9.9440 C.ar    1  UNL1       -0.0526
     16 C           8.7360    3.8201   11.3414 C.ar    1  UNL1       -0.0611
     17 C           8.7955    2.5812   11.9787 C.ar    1  UNL1       -0.0617
     18 C           8.8597    1.4147   11.2211 C.ar    1  UNL1       -0.0611
     19 C           8.8682    1.4891    9.8261 C.ar    1  UNL1       -0.0526
     20 N           9.8047    3.4084    6.9885 N.ar    1  UNL1       -0.2763
     21 N           9.6970    3.2232    5.6562 N.ar    1  UNL1       -0.1686
     22 H           0.5420   -0.4638   -0.8889 H       1  UNL1        0.0252
     23 H           0.5542    0.9836    0.1428 H       1  UNL1        0.0252
     24 H           0.5542   -0.6134    0.8822 H       1  UNL1        0.0252
     25 H           2.8205    0.5493   -0.8261 H       1  UNL1        0.0557
     26 H           2.8205   -1.0710   -0.0762 H       1  UNL1        0.0557
     27 H           4.7617    1.1614    0.4886 H       1  UNL1        0.0657
     28 H           4.7625   -0.4616    1.2396 H       1  UNL1        0.0657
     29 H           6.9405    0.9345    2.1064 H       1  UNL1        0.1729
     30 H           6.1126    2.1265    4.6884 H       1  UNL1        0.1732
     31 H           7.2003    1.5065    6.9850 H       1  UNL1        0.0662
     32 H           8.5819    4.8639    9.4702 H       1  UNL1        0.0624
     33 H           8.7124    4.7306   11.9356 H       1  UNL1        0.0618
     34 H           8.7849    2.5245   13.0647 H       1  UNL1        0.0618
     35 H           8.9134    0.4469   11.7138 H       1  UNL1        0.0618
     36 H           8.9368    0.5689    9.2501 H       1  UNL1        0.0624
     37 H          10.5944    3.9410    7.3439 H       1  UNL1        0.1889
@<TRIPOS>BOND
     1     1     2    1
     2     2     3    1
     3     3     4    1
     4     4     5    1
     5     5     6    2
     6     5     7   am
     7     7     8    1
     8     8     9   am
     9     9    10    2
    10     9    11    1
    11    11    12   ar
    12    12    13   ar
    13    13    14    1
    14    14    15   ar
    15    15    16   ar
    16    16    17   ar
    17    17    18   ar
    18    18    19   ar
    19    14    19   ar
    20    13    20   ar
    21    20    21   ar
    22    11    21   ar
    23     1    22    1
    24     1    23    1
    25     1    24    1
    26     2    25    1
    27     2    26    1
    28     4    27    1
    29     4    28    1
    30     7    29    1
    31     8    30    1
    32    12    31    1
    33    15    32    1
    34    16    33    1
    35    17    34    1
    36    18    35    1
    37    19    36    1
    38    20    37    1
