REMARK  6 active torsions:
REMARK  status: ('A' for Active; 'I' for Inactive)
REMARK       I    between atoms: C_2  and  N_3 
REMARK    1  A    between atoms: C_2  and  C_19 
REMARK    2  A    between atoms: N_3  and  C_4 
REMARK    3  A    between atoms: C_7  and  N_8 
REMARK    4  A    between atoms: C_14  and  N_15 
REMARK    5  A    between atoms: C_22  and  N_23 
REMARK    6  A    between atoms: C_28  and  N_29 
ROOT
ATOM      1  O   UNL d   1       1.054   0.025  -0.026  0.00  0.00    -0.267 OA
ATOM      2  C   UNL d   1       2.277   0.048   0.078  0.00  0.00     0.256 C 
ATOM      3  N   UNL d   1       2.976   0.758   1.057  0.00  0.00    -0.323 N 
ATOM      4  H   UNL d   1       3.968   0.914   0.928  0.00  0.00     0.169 HD
ENDROOT
BRANCH   3   5
ATOM      5  C   UNL d   1       2.347   1.393   2.160  0.00  0.00     0.037 A 
ATOM      6  C   UNL d   1       2.854   2.552   2.738  0.00  0.00     0.032 A 
ATOM      7  C   UNL d   1       2.268   3.088   3.916  0.00  0.00     0.034 A 
ATOM      8  C   UNL d   1       1.150   2.500   4.569  0.00  0.00     0.063 A 
ATOM      9  C   UNL d   1       0.688   1.298   3.965  0.00  0.00     0.131 A 
ATOM     10  C   UNL d   1       1.255   0.797   2.768  0.00  0.00     0.068 A 
BRANCH   8  11
ATOM     11  N   UNL d   1       0.632   3.162   5.683  0.00  0.00    -0.376 N 
ATOM     12  C   UNL d   1       0.446   2.537   7.012  0.00  0.00     0.150 C 
ATOM     13  C   UNL d   1      -1.048   2.533   7.461  0.00  0.00     0.252 C 
ATOM     14  N   UNL d   1      -1.648   3.904   7.327  0.00  0.00    -0.072 N 
ATOM     15  C   UNL d   1      -1.464   4.466   5.931  0.00  0.00     0.252 C 
ATOM     16  H   UNL d   1      -1.250   4.525   8.039  0.00  0.00     0.277 HD
ATOM     17  H   UNL d   1      -2.655   3.819   7.523  0.00  0.00     0.277 HD
ATOM     18  C   UNL d   1       0.036   4.509   5.545  0.00  0.00     0.150 C 
ENDBRANCH   8  11
BRANCH   9  19
ATOM     19  N   UNL d   1      -0.368   0.425   4.496  0.00  0.00    -0.113 N 
ATOM     20  O   UNL d   1      -0.824   0.657   5.616  0.00  0.00    -0.532 OA
ATOM     21  O   UNL d   1      -0.745  -0.541   3.832  0.00  0.00    -0.532 OA
ENDBRANCH   9  19
ENDBRANCH   3   5
BRANCH   2  22
ATOM     22  C   UNL d   1       3.080  -0.652  -0.968  0.00  0.00     0.034 A 
ATOM     23  C   UNL d   1       4.135  -1.497  -0.652  0.00  0.00     0.019 A 
ATOM     24  C   UNL d   1       4.849  -2.147  -1.683  0.00  0.00     0.033 A 
ATOM     25  C   UNL d   1       4.528  -2.032  -3.062  0.00  0.00     0.063 A 
ATOM     26  C   UNL d   1       3.437  -1.170  -3.354  0.00  0.00     0.130 A 
ATOM     27  C   UNL d   1       2.722  -0.509  -2.311  0.00  0.00     0.055 A 
BRANCH  25  28
ATOM     28  N   UNL d   1       5.319  -2.738  -3.944  0.00  0.00    -0.379 N 
ATOM     29  C   UNL d   1       5.972  -2.179  -5.123  0.00  0.00     0.123 C 
ATOM     30  C   UNL d   1       5.747  -3.248  -6.188  0.00  0.00     0.021 C 
ATOM     31  C   UNL d   1       5.934  -4.536  -5.401  0.00  0.00     0.021 C 
ATOM     32  C   UNL d   1       5.407  -4.211  -3.986  0.00  0.00     0.123 C 
ENDBRANCH  25  28
BRANCH  26  33
ATOM     33  N   UNL d   1       2.926  -0.898  -4.720  0.00  0.00    -0.113 N 
ATOM     34  O   UNL d   1       3.350  -1.538  -5.684  0.00  0.00    -0.532 OA
ATOM     35  O   UNL d   1       2.065  -0.012  -4.837  0.00  0.00    -0.532 OA
ENDBRANCH  26  33
ENDBRANCH   2  22
TORSDOF 6
