REMARK  12 active torsions:
REMARK  status: ('A' for Active; 'I' for Inactive)
REMARK    1  A    between atoms: C_15  and  O_16 
REMARK    2  A    between atoms: C_15  and  C_17 
REMARK    3  A    between atoms: C_17  and  C_19 
REMARK    4  A    between atoms: C_19  and  O_20 
REMARK    5  A    between atoms: O_20  and  C_21 
REMARK    6  A    between atoms: C_21  and  C_23 
REMARK    7  A    between atoms: C_23  and  C_24 
REMARK    8  A    between atoms: C_24  and  C_25 
REMARK       I    between atoms: C_25  and  N_27 
REMARK    9  A    between atoms: N_27  and  C_28 
REMARK   10  A    between atoms: C_28  and  C_29 
REMARK   11  A    between atoms: C_29  and  C_30 
REMARK   12  A    between atoms: C_30  and  N_31 
ROOT
ATOM      1  C   UNL d   1       0.925   0.052   0.013  0.00  0.00     0.016 C 
ATOM      2  C   UNL d   1       2.480  -0.008   0.179  0.00  0.00    -0.027 C 
ATOM      3  C   UNL d   1       2.761   0.652   1.532  0.00  0.00     0.018 C 
ATOM      4  C   UNL d   1       4.209   1.080   1.548  0.00  0.00     0.083 C 
ATOM      5  C   UNL d   1       4.132   2.383   0.755  0.00  0.00     0.146 C 
ATOM      6  O   UNL d   1       4.868   3.315   0.987  0.00  0.00    -0.294 OA
ATOM      7  C   UNL d   1       3.250   2.241  -0.535  0.00  0.00     0.035 C 
ATOM      8  C   UNL d   1       3.160   0.940  -0.853  0.00  0.00     0.000 C 
ATOM      9  C   UNL d   1       4.556   0.669  -1.286  0.00  0.00     0.016 C 
ATOM     10  C   UNL d   1       5.087  -0.647  -0.897  0.00  0.00     0.006 C 
ATOM     11  C   UNL d   1       4.619  -1.574   0.186  0.00  0.00    -0.005 C 
ATOM     12  C   UNL d   1       5.242  -2.944  -0.213  0.00  0.00     0.002 C 
ATOM     13  C   UNL d   1       6.773  -2.886  -0.701  0.00  0.00     0.009 C 
ATOM     14  C   UNL d   1       6.773  -3.286  -2.197  0.00  0.00     0.047 C 
ATOM     15  C   UNL d   1       5.357  -3.049  -2.725  0.00  0.00     0.128 C 
ATOM     16  C   UNL d   1       4.522  -3.575  -1.450  0.00  0.00    -0.002 C 
ATOM     17  C   UNL d   1       4.645  -5.113  -1.250  0.00  0.00     0.019 C 
ATOM     18  C   UNL d   1       3.020  -3.359  -1.639  0.00  0.00     0.013 C 
ATOM     19  C   UNL d   1       2.331  -2.231  -0.931  0.00  0.00     0.007 C 
ATOM     20  C   UNL d   1       3.040  -1.494   0.208  0.00  0.00    -0.001 C 
ENDROOT
BRANCH  15  21
ATOM     21  O   UNL d   1       5.116  -3.907  -3.841  0.00  0.00    -0.381 OA
ATOM     22  H   UNL d   1       5.461  -3.455  -4.630  0.00  0.00     0.211 HD
ENDBRANCH  15  21
BRANCH  15  23
ATOM     23  C   UNL d   1       5.006  -1.617  -3.424  0.00  0.00     0.185 C 
ATOM     24  O   UNL d   1       3.833  -1.237  -3.576  0.00  0.00    -0.292 OA
BRANCH  23  25
ATOM     25  C   UNL d   1       6.114  -0.694  -3.959  0.00  0.00     0.260 C 
BRANCH  25  26
ATOM     26  O   UNL d   1       5.811   0.706  -3.750  0.00  0.00    -0.314 OA
BRANCH  26  27
ATOM     27  C   UNL d   1       6.398   1.636  -4.548  0.00  0.00     0.259 C 
ATOM     28  O   UNL d   1       7.187   1.363  -5.395  0.00  0.00    -0.265 OA
BRANCH  27  29
ATOM     29  C   UNL d   1       5.921   3.061  -4.210  0.00  0.00     0.120 C 
BRANCH  29  30
ATOM     30  C   UNL d   1       6.607   4.014  -5.196  0.00  0.00     0.112 C 
BRANCH  30  31
ATOM     31  C   UNL d   1       6.233   5.470  -5.002  0.00  0.00     0.217 C 
ATOM     32  O   UNL d   1       5.452   5.857  -4.140  0.00  0.00    -0.274 OA
ATOM     33  N   UNL d   1       6.844   6.346  -5.884  0.00  0.00    -0.361 N 
ATOM     34  H   UNL d   1       7.482   5.982  -6.583  0.00  0.00     0.162 HD
BRANCH  33  35
ATOM     35  C   UNL d   1       6.563   7.768  -5.793  0.00  0.00     0.124 C 
BRANCH  35  36
ATOM     36  C   UNL d   1       7.314   8.578  -6.835  0.00  0.00     0.040 C 
BRANCH  36  37
ATOM     37  C   UNL d   1       7.012  10.072  -6.737  0.00  0.00     0.130 C 
BRANCH  37  38
ATOM     38  N   UNL d   1       7.705  10.869  -7.772  0.00  0.00    -0.352 N 
ATOM     39  C   UNL d   1       8.542  10.404  -8.785  0.00  0.00     0.108 A 
ATOM     40  C   UNL d   1       8.878  11.478  -9.555  0.00  0.00     0.106 A 
ATOM     41  N   UNL d   1       8.275  12.567  -8.977  0.00  0.00    -0.361 N 
ATOM     42  C   UNL d   1       7.584  12.204  -7.892  0.00  0.00     0.182 A 
ATOM     43  H   UNL d   1       8.337  13.522  -9.323  0.00  0.00     0.166 HD
ENDBRANCH  37  38
ENDBRANCH  36  37
ENDBRANCH  35  36
ENDBRANCH  33  35
ENDBRANCH  30  31
ENDBRANCH  29  30
ENDBRANCH  27  29
ENDBRANCH  26  27
ENDBRANCH  25  26
ENDBRANCH  23  25
ENDBRANCH  15  23
TORSDOF 12
