@<TRIPOS>MOLECULE
*****
 41 43 0 0 0
SMALL
GASTEIGER

@<TRIPOS>ATOM
      1 C           0.9932    0.0693    0.0519 C.3     1  UNL1       -0.0203
      2 C           2.5051    0.1773    0.0114 C.2     1  UNL1        0.0634
      3 N           3.1796    1.1679   -0.5114 N.2     1  UNL1       -0.1843
      4 N           2.5417    2.2361   -1.1022 N.am    1  UNL1       -0.2015
      5 C           3.2525    3.2477   -1.7466 C.2     1  UNL1        0.2810
      6 O           4.4766    3.2527   -1.9030 O.2     1  UNL1       -0.2668
      7 C           2.4278    4.3257   -2.2528 C.ar    1  UNL1        0.1224
      8 C           1.3130    4.9422   -1.7155 C.ar    1  UNL1       -0.0041
      9 C           0.9700    6.0000   -2.5975 C.ar    1  UNL1        0.0932
     10 C          -0.0841    6.9939   -2.4021 C.ar    1  UNL1        0.0021
     11 C          -1.0923    7.1809   -3.3551 C.ar    1  UNL1       -0.0525
     12 C          -2.0602    8.1761   -3.1731 C.ar    1  UNL1       -0.0611
     13 C          -2.0643    8.9482   -2.0115 C.ar    1  UNL1       -0.0617
     14 C          -1.0812    8.7506   -1.0443 C.ar    1  UNL1       -0.0611
     15 C          -0.0921    7.7823   -1.2413 C.ar    1  UNL1       -0.0525
     16 N           1.7914    6.0108   -3.6575 N.ar    1  UNL1       -0.1732
     17 N           2.6895    5.0360   -3.3973 N.ar    1  UNL1       -0.2719
     18 C           3.2775   -0.9708    0.6281 C.ar    1  UNL1       -0.0024
     19 C           4.4594   -0.7084    1.3271 C.ar    1  UNL1       -0.0511
     20 C           5.2936   -1.7609    1.7431 C.ar    1  UNL1       -0.0404
     21 C           4.9193   -3.0958    1.5728 C.ar    1  UNL1        0.0246
     22 N           5.8179   -4.1261    1.8676 N.pl3   1  UNL1       -0.3580
     23 C           3.7326   -3.3561    0.8832 C.ar    1  UNL1       -0.0404
     24 C           2.9058   -2.3081    0.4311 C.ar    1  UNL1       -0.0511
     25 H           0.4861    0.9178   -0.4045 H       1  UNL1        0.0293
     26 H           0.6635    0.0142    1.0938 H       1  UNL1        0.0293
     27 H           0.6588   -0.8234   -0.4817 H       1  UNL1        0.0293
     28 H           1.5338    2.2642   -1.1495 H       1  UNL1        0.1776
     29 H           0.8382    4.7116   -0.7749 H       1  UNL1        0.0662
     30 H          -1.1312    6.5528   -4.2418 H       1  UNL1        0.0624
     31 H          -2.8054    8.3575   -3.9438 H       1  UNL1        0.0618
     32 H          -2.8300    9.7061   -1.8626 H       1  UNL1        0.0618
     33 H          -1.0724    9.3625   -0.1456 H       1  UNL1        0.0618
     34 H           0.6841    7.6608   -0.4895 H       1  UNL1        0.0624
     35 H           3.4518    4.8951   -4.0558 H       1  UNL1        0.1891
     36 H           4.7577    0.3168    1.5322 H       1  UNL1        0.0625
     37 H           6.2591   -1.5209    2.1821 H       1  UNL1        0.0636
     38 H           6.5103   -3.9053    2.5773 H       1  UNL1        0.1423
     39 H           5.4095   -5.0468    1.9934 H       1  UNL1        0.1423
     40 H           3.4541   -4.3841    0.6594 H       1  UNL1        0.0636
     41 H           2.0068   -2.5708   -0.1176 H       1  UNL1        0.0625
@<TRIPOS>BOND
     1     1     2    1
     2     2     3    2
     3     3     4    1
     4     4     5   am
     5     5     6    2
     6     5     7    1
     7     7     8   ar
     8     8     9   ar
     9     9    10    1
    10    10    11   ar
    11    11    12   ar
    12    12    13   ar
    13    13    14   ar
    14    14    15   ar
    15    10    15   ar
    16     9    16   ar
    17    16    17   ar
    18     7    17   ar
    19     2    18    1
    20    18    19   ar
    21    19    20   ar
    22    20    21   ar
    23    21    22    1
    24    21    23   ar
    25    23    24   ar
    26    18    24   ar
    27     1    25    1
    28     1    26    1
    29     1    27    1
    30     4    28    1
    31     8    29    1
    32    11    30    1
    33    12    31    1
    34    13    32    1
    35    14    33    1
    36    15    34    1
    37    17    35    1
    38    19    36    1
    39    20    37    1
    40    22    38    1
    41    22    39    1
    42    23    40    1
    43    24    41    1
