REMARK  6 active torsions:
REMARK  status: ('A' for Active; 'I' for Inactive)
REMARK    1  A    between atoms: C_2  and  N_14 
REMARK    2  A    between atoms: C_3  and  C_4 
REMARK       I    between atoms: C_4  and  N_6 
REMARK    3  A    between atoms: N_6  and  C_7 
REMARK    4  A    between atoms: N_14  and  N_15 
REMARK       I    between atoms: N_15  and  C_16 
REMARK    5  A    between atoms: C_16  and  C_18 
REMARK       I    between atoms: C_18  and  N_20 
REMARK    6  A    between atoms: N_20  and  C_21 
ROOT
ATOM      1  N   UNL d   1       3.270  -0.164   1.214  0.00  0.00    -0.302 N 
ATOM      2  H   UNL d   1       2.725  -0.291   2.074  0.00  0.00     0.186 HD
ENDROOT
BRANCH   1   3
ATOM      3  C   UNL d   1       2.543  -0.062   0.009  0.00  0.00     0.027 C 
ATOM      4  C   UNL d   1       1.018  -0.070   0.199  0.00  0.00     0.070 C 
ATOM      5  C   UNL d   1       3.110   0.050  -1.223  0.00  0.00     0.100 C 
BRANCH   5   6
ATOM      6  C   UNL d   1       2.356   0.101  -2.522  0.00  0.00     0.247 C 
ATOM      7  O   UNL d   1       1.166  -0.198  -2.589  0.00  0.00    -0.268 OA
ATOM      8  N   UNL d   1       3.083   0.407  -3.663  0.00  0.00    -0.322 N 
ATOM      9  H   UNL d   1       4.070   0.185  -3.690  0.00  0.00     0.169 HD
BRANCH   8  10
ATOM     10  C   UNL d   1       2.385   0.583  -4.898  0.00  0.00     0.052 A 
ATOM     11  C   UNL d   1       2.793  -0.140  -6.032  0.00  0.00     0.031 A 
ATOM     12  C   UNL d   1       2.073  -0.039  -7.235  0.00  0.00     0.002 A 
ATOM     13  C   UNL d   1       0.965   0.802  -7.329  0.00  0.00     0.002 A 
ATOM     14  C   UNL d   1       0.569   1.544  -6.222  0.00  0.00     0.021 A 
ATOM     15  C   UNL d   1       1.274   1.448  -5.018  0.00  0.00     0.037 A 
ATOM     16 BR   UNL d   1       0.737   2.683  -3.662  0.00  0.00    -0.049 Br
ENDBRANCH   8  10
ENDBRANCH   5   6
ENDBRANCH   1   3
BRANCH   1  17
ATOM     17  N   UNL d   1       4.675  -0.213   1.363  0.00  0.00    -0.262 N 
ATOM     18  C   UNL d   1       5.301  -0.340   2.610  0.00  0.00     0.328 C 
ATOM     19  O   UNL d   1       4.742  -0.476   3.697  0.00  0.00    -0.261 OA
ATOM     20  H   UNL d   1       5.252  -0.107   0.534  0.00  0.00     0.190 HD
BRANCH  18  21
ATOM     21  C   UNL d   1       6.866  -0.297   2.519  0.00  0.00     0.315 C 
ATOM     22  O   UNL d   1       7.356  -0.155   1.401  0.00  0.00    -0.262 OA
ATOM     23  N   UNL d   1       7.587  -0.487   3.709  0.00  0.00    -0.319 N 
ATOM     24  H   UNL d   1       7.063  -0.797   4.524  0.00  0.00     0.169 HD
BRANCH  23  25
ATOM     25  C   UNL d   1       9.014  -0.480   3.772  0.00  0.00     0.036 A 
ATOM     26  C   UNL d   1       9.761   0.439   3.029  0.00  0.00     0.030 A 
ATOM     27  C   UNL d   1      11.165   0.453   3.072  0.00  0.00     0.011 A 
ATOM     28  C   UNL d   1      11.875  -0.475   3.842  0.00  0.00    -0.040 A 
ATOM     29  C   UNL d   1      13.383  -0.451   3.835  0.00  0.00     0.050 C 
ATOM     30  C   UNL d   1      11.130  -1.398   4.593  0.00  0.00     0.042 A 
ATOM     31 CL   UNL d   1      11.932  -2.616   5.529  0.00  0.00    -0.084 Cl
ATOM     32  C   UNL d   1       9.715  -1.380   4.588  0.00  0.00     0.053 A 
ENDBRANCH  23  25
ENDBRANCH  18  21
ENDBRANCH   1  17
TORSDOF 6
