REMARK  9 active torsions:
REMARK  status: ('A' for Active; 'I' for Inactive)
REMARK    1  A    between atoms: C_2  and  C_3 
REMARK       I    between atoms: C_2  and  N_14 
REMARK    2  A    between atoms: C_3  and  C_4 
REMARK    3  A    between atoms: C_7  and  O_8 
REMARK    4  A    between atoms: O_8  and  C_9 
REMARK    5  A    between atoms: N_14  and  N_15 
REMARK       I    between atoms: N_15  and  C_16 
REMARK       I    between atoms: C_16  and  N_18 
REMARK    6  A    between atoms: N_18  and  C_19 
REMARK    7  A    between atoms: C_19  and  C_20 
REMARK    8  A    between atoms: C_20  and  C_21 
REMARK    9  A    between atoms: C_21  and  N_22 
ROOT
ATOM      1  O   UNL d   1       1.148  -0.028  -0.313  0.00  0.00    -0.272 OA
ATOM      2  C   UNL d   1       2.373  -0.015  -0.191  0.00  0.00     0.240 C 
ATOM      3  N   UNL d   1       3.160  -0.047  -1.327  0.00  0.00    -0.266 N 
ATOM      4  H   UNL d   1       2.665  -0.074  -2.220  0.00  0.00     0.190 HD
ENDROOT
BRANCH   3   5
ATOM      5  N   UNL d   1       4.573  -0.048  -1.389  0.00  0.00    -0.249 N 
ATOM      6  C   UNL d   1       5.179  -0.078  -2.638  0.00  0.00     0.334 C 
ATOM      7  O   UNL d   1       4.549  -0.102  -3.694  0.00  0.00    -0.246 OA
ATOM      8  N   UNL d   1       6.562  -0.074  -2.599  0.00  0.00    -0.342 N 
ATOM      9  H   UNL d   1       7.024  -0.066  -1.701  0.00  0.00     0.164 HD
ATOM     10  H   UNL d   1       5.101  -0.035  -0.529  0.00  0.00     0.192 HD
BRANCH   8  11
ATOM     11  C   UNL d   1       7.350  -0.105  -3.831  0.00  0.00     0.126 C 
BRANCH  11  12
ATOM     12  C   UNL d   1       8.865  -0.099  -3.595  0.00  0.00     0.040 C 
BRANCH  12  13
ATOM     13  C   UNL d   1       9.658  -0.127  -4.905  0.00  0.00     0.130 C 
BRANCH  13  14
ATOM     14  N   UNL d   1      11.113  -0.135  -4.652  0.00  0.00    -0.352 N 
ATOM     15  C   UNL d   1      11.915  -1.266  -4.524  0.00  0.00     0.108 A 
ATOM     16  C   UNL d   1      13.189  -0.828  -4.298  0.00  0.00     0.106 A 
ATOM     17  N   UNL d   1      13.131   0.545  -4.306  0.00  0.00    -0.361 N 
ATOM     18  C   UNL d   1      11.881   0.962  -4.531  0.00  0.00     0.182 A 
ATOM     19  H   UNL d   1      13.925   1.167  -4.167  0.00  0.00     0.166 HD
ENDBRANCH  13  14
ENDBRANCH  12  13
ENDBRANCH  11  12
ENDBRANCH   8  11
ENDBRANCH   3   5
BRANCH   2  20
ATOM     20  C   UNL d   1       3.065   0.027   1.161  0.00  0.00     0.143 C 
BRANCH  20  21
ATOM     21  C   UNL d   1       2.133   0.032   2.357  0.00  0.00    -0.049 A 
ATOM     22  C   UNL d   1       1.692   1.226   2.942  0.00  0.00     0.010 A 
ATOM     23  C   UNL d   1       0.909   1.201   4.106  0.00  0.00     0.037 A 
ATOM     24  C   UNL d   1       0.476  -0.012   4.648  0.00  0.00     0.074 A 
ATOM     25  C   UNL d   1       0.887  -1.201   4.047  0.00  0.00     0.037 A 
ATOM     26  C   UNL d   1       1.706  -1.179   2.915  0.00  0.00     0.010 A 
BRANCH  24  27
ATOM     27  O   UNL d   1      -0.340   0.083   5.743  0.00  0.00    -0.290 OA
BRANCH  27  28
ATOM     28  C   UNL d   1      -0.928  -1.133   6.188  0.00  0.00     0.505 C 
ATOM     29  F   UNL d   1       0.039  -1.923   6.721  0.00  0.00    -0.184 F 
ATOM     30  F   UNL d   1      -1.782  -0.836   7.201  0.00  0.00    -0.184 F 
ENDBRANCH  27  28
ENDBRANCH  24  27
ENDBRANCH  20  21
ENDBRANCH   2  20
TORSDOF 9
