@<TRIPOS>MOLECULE
*****
 63 66 0 0 0
SMALL
GASTEIGER

@<TRIPOS>ATOM
      1 C           1.0416    0.6150    0.2455 C.3     1  UNL1        0.0790
      2 O           2.4425    0.3713    0.1672 O.3     1  UNL1       -0.4914
      3 C           3.0302   -0.8035    0.5618 C.ar    1  UNL1        0.1617
      4 C           4.2260   -0.6906    1.3059 C.ar    1  UNL1       -0.0131
      5 C           5.1064   -1.7995    1.5793 C.ar    1  UNL1       -0.0195
      6 C           4.8768   -3.0440    1.0148 C.ar    1  UNL1        0.1035
      7 N           5.5075   -4.2791    1.4265 N.pl3   1  UNL1       -0.2449
      8 C           5.0846   -5.6105    1.2007 C.2     1  UNL1        0.3842
      9 N           4.0370   -6.0645    0.5707 N.am    1  UNL1        0.0006
     10 C           2.9110   -5.2755    0.5955 C.2     1  UNL1        0.3408
     11 O           2.5605   -4.6755    1.5856 O.2     1  UNL1       -0.2483
     12 C           1.8959   -5.5082   -0.4982 C.ar    1  UNL1        0.0590
     13 C           1.7036   -4.7864   -1.7011 C.ar    1  UNL1       -0.0478
     14 C           0.4373   -4.7637   -2.3049 C.ar    1  UNL1       -0.0610
     15 C          -0.5712   -5.5761   -1.8074 C.ar    1  UNL1       -0.0615
     16 C          -0.3331   -6.3786   -0.6907 C.ar    1  UNL1       -0.0581
     17 C           0.8895   -6.3425   -0.0272 C.ar    1  UNL1       -0.0368
     18 C           1.1719   -7.1474    1.2072 C.3     1  UNL1       -0.0389
     19 N           5.8966   -6.6381    1.7200 N.pl3   1  UNL1       -0.2767
     20 C           5.4184   -8.0498    1.6393 C.3     1  UNL1        0.0684
     21 C           6.3490   -9.0768    2.2747 C.3     1  UNL1        0.0059
     22 C           6.0187  -10.5463    2.1136 C.2     1  UNL1        0.0106
     23 C           6.8660  -11.4712    2.5714 C.ar    1  UNL1        0.0510
     24 C           8.1155  -11.3250    3.2257 C.ar    1  UNL1       -0.0482
     25 C           8.8674  -12.4137    3.4073 C.ar    1  UNL1       -0.0608
     26 C           8.3589  -13.7392    3.0938 C.ar    1  UNL1       -0.0555
     27 C           7.1481  -13.9685    2.5395 C.ar    1  UNL1        0.0098
     28 C           6.3153  -12.7847    2.2188 C.ar    1  UNL1        0.2086
     29 N           5.1707  -12.6704    1.6578 N.2     1  UNL1       -0.2369
     30 C           4.8436  -11.2162    1.4462 C.3     1  UNL1        0.1661
     31 C           3.9012   -2.9730    0.0305 C.ar    1  UNL1        0.0222
     32 C           2.8192   -2.0412    0.0182 C.ar    1  UNL1        0.1647
     33 O           1.6740   -2.6136   -0.4362 O.3     1  UNL1       -0.4913
     34 C           0.5609   -1.8861   -0.8587 C.3     1  UNL1        0.0790
     35 H           0.8666    1.6841    0.1193 H       1  UNL1        0.0660
     36 H           0.6046    0.2581    1.1813 H       1  UNL1        0.0660
     37 H           0.4663    0.2741   -0.6137 H       1  UNL1        0.0660
     38 H           4.4853    0.2888    1.6976 H       1  UNL1        0.0656
     39 H           5.9948   -1.6271    2.1776 H       1  UNL1        0.0653
     40 H           6.1903   -4.1408    2.1586 H       1  UNL1        0.2646
     41 H           2.4201   -4.0642   -2.0961 H       1  UNL1        0.0626
     42 H           0.2014   -4.0267   -3.0771 H       1  UNL1        0.0618
     43 H          -1.5499   -5.5748   -2.2784 H       1  UNL1        0.0618
     44 H          -1.1229   -7.0065   -0.3012 H       1  UNL1        0.0620
     45 H           0.3674   -7.8329    1.4365 H       1  UNL1        0.0278
     46 H           1.3279   -6.5101    2.0860 H       1  UNL1        0.0278
     47 H           2.0877   -7.7260    1.0284 H       1  UNL1        0.0278
     48 H           6.5769   -6.4328    2.4432 H       1  UNL1        0.2577
     49 H           5.3276   -8.3095    0.5803 H       1  UNL1        0.0658
     50 H           4.4329   -8.1713    2.1100 H       1  UNL1        0.0658
     51 H           6.4180   -8.8822    3.3543 H       1  UNL1        0.0343
     52 H           7.3564   -8.9208    1.8650 H       1  UNL1        0.0343
     53 H           8.4548  -10.3373    3.5145 H       1  UNL1        0.0626
     54 H           9.8739  -12.3033    3.8015 H       1  UNL1        0.0618
     55 H           9.0215  -14.5585    3.3695 H       1  UNL1        0.0620
     56 H           6.8239  -14.9816    2.3295 H       1  UNL1        0.0683
     57 H           4.5998  -13.4796    1.4101 H       1  UNL1        0.4459
     58 H           3.8865  -10.9936    1.9241 H       1  UNL1        0.1077
     59 H           4.8002  -11.0355    0.3666 H       1  UNL1        0.1077
     60 H           3.8846   -3.7710   -0.6944 H       1  UNL1        0.0690
     61 H          -0.2021   -2.4696   -1.3794 H       1  UNL1        0.0660
     62 H           0.9235   -1.1885   -1.6138 H       1  UNL1        0.0660
     63 H           0.0247   -1.5226    0.0192 H       1  UNL1        0.0660
@<TRIPOS>UNITY_ATOM_ATTR
29 1
charge 1
@<TRIPOS>BOND
     1     1     2    1
     2     2     3    1
     3     3     4   ar
     4     4     5   ar
     5     5     6   ar
     6     6     7    1
     7     7     8    1
     8     8     9    2
     9     9    10    1
    10    10    11    2
    11    10    12    1
    12    12    13   ar
    13    13    14   ar
    14    14    15   ar
    15    15    16   ar
    16    16    17   ar
    17    12    17   ar
    18    17    18    1
    19     8    19    1
    20    19    20    1
    21    20    21    1
    22    21    22    1
    23    22    23    2
    24    23    24   ar
    25    24    25   ar
    26    25    26   ar
    27    26    27   ar
    28    27    28   ar
    29    23    28   ar
    30    28    29    2
    31    29    30    1
    32    22    30    1
    33     6    31   ar
    34    31    32   ar
    35     3    32   ar
    36    32    33    1
    37    33    34    1
    38     1    35    1
    39     1    36    1
    40     1    37    1
    41     4    38    1
    42     5    39    1
    43     7    40    1
    44    13    41    1
    45    14    42    1
    46    15    43    1
    47    16    44    1
    48    18    45    1
    49    18    46    1
    50    18    47    1
    51    19    48    1
    52    20    49    1
    53    20    50    1
    54    21    51    1
    55    21    52    1
    56    24    53    1
    57    25    54    1
    58    26    55    1
    59    27    56    1
    60    29    57    1
    61    30    58    1
    62    30    59    1
    63    31    60    1
    64    34    61    1
    65    34    62    1
    66    34    63    1
