@<TRIPOS>MOLECULE
*****
 33 35 0 0 0
SMALL
GASTEIGER

@<TRIPOS>ATOM
      1 O           3.9868    1.1704    6.3861 O.2     1  UNL1       -0.2671
      2 C           3.8326    2.2529    6.9681 C.2     1  UNL1        0.2764
      3 N           3.3495    3.3609    6.2833 N.am    1  UNL1       -0.2291
      4 N           3.0186    3.2707    4.8823 N.am    1  UNL1       -0.2310
      5 C           2.6429    4.4333    4.2198 C.2     1  UNL1        0.2701
      6 O           2.6081    5.5019    4.8406 O.2     1  UNL1       -0.2702
      7 C           2.3456    4.3443    2.6828 C.3     1  UNL1        0.1809
      8 C           2.5237    5.7452    2.0510 C.3     1  UNL1        0.0217
      9 C           1.5618    5.6619    0.9307 C.ar    1  UNL1       -0.0017
     10 C           1.3806    6.5277   -0.1405 C.ar    1  UNL1       -0.0550
     11 C           0.3940    6.2239   -1.0804 C.ar    1  UNL1       -0.0613
     12 C          -0.4068    5.0832   -0.9164 C.ar    1  UNL1       -0.0583
     13 C          -0.2438    4.2493    0.2027 C.ar    1  UNL1       -0.0196
     14 C           0.7515    4.5555    1.1161 C.ar    1  UNL1        0.1249
     15 O           1.0393    3.8562    2.2741 O.3     1  UNL1       -0.4790
     16 C           4.1463    2.4351    8.3828 C.ar    1  UNL1        0.1032
     17 C           5.2058    1.9040    9.1145 C.ar    1  UNL1       -0.0319
     18 C           5.0462    2.2551   10.4797 C.ar    1  UNL1       -0.0437
     19 C           3.8812    2.9771   10.5698 C.ar    1  UNL1        0.0023
     20 N           3.3524    3.0936    9.3061 N.ar    1  UNL1       -0.3571
     21 H           3.3831    4.3036    6.6700 H       1  UNL1        0.1732
     22 H           3.1233    2.3540    4.4479 H       1  UNL1        0.1729
     23 H           3.0747    3.6464    2.2455 H       1  UNL1        0.0835
     24 H           3.5515    5.8971    1.7108 H       1  UNL1        0.0355
     25 H           2.2290    6.5610    2.7169 H       1  UNL1        0.0355
     26 H           1.9849    7.4230   -0.2522 H       1  UNL1        0.0621
     27 H           0.2447    6.8730   -1.9420 H       1  UNL1        0.0618
     28 H          -1.1626    4.8537   -1.6660 H       1  UNL1        0.0619
     29 H          -0.8803    3.3809    0.3297 H       1  UNL1        0.0654
     30 H           6.0124    1.3042    8.7098 H       1  UNL1        0.0640
     31 H           5.6916    1.9856   11.3093 H       1  UNL1        0.0633
     32 H           3.3764    3.4007   11.4299 H       1  UNL1        0.0807
     33 H           2.4606    3.5226    9.1023 H       1  UNL1        0.1655
@<TRIPOS>BOND
     1     1     2    2
     2     2     3   am
     3     3     4    1
     4     4     5   am
     5     5     6    2
     6     7     8    1
     7     8     9    1
     8     9    10   ar
     9    10    11   ar
    10    11    12   ar
    11    12    13   ar
    12    13    14   ar
    13     9    14   ar
    14    14    15    1
    15     7    15    1
    16     2    16    1
    17    16    17   ar
    18    17    18   ar
    19    18    19   ar
    20    19    20   ar
    21    16    20   ar
    22     7     5    1
    23     3    21    1
    24     4    22    1
    25     7    23    1
    26     8    24    1
    27     8    25    1
    28    10    26    1
    29    11    27    1
    30    12    28    1
    31    13    29    1
    32    17    30    1
    33    18    31    1
    34    19    32    1
    35    20    33    1
