REMARK  9 active torsions:
REMARK  status: ('A' for Active; 'I' for Inactive)
REMARK    1  A    between atoms: CG_2  and  CB_4 
REMARK    2  A    between atoms: CA_5  and  CB_4 
REMARK    3  A    between atoms: CA_5  and  C_30 
REMARK    4  A    between atoms: CA_5  and  N_6 
REMARK       I    between atoms: N_6  and  C_7 
REMARK    5  A    between atoms: C_9  and  C_7 
REMARK       I    between atoms: C_30  and  N_32 
REMARK    6  A    between atoms: N_32  and  CA_33 
REMARK    7  A    between atoms: CA_33  and  C_34 
REMARK    8  A    between atoms: CA_33  and  CB_37 
REMARK    9  A    between atoms: CB_37  and  OG1_39 
ROOT
ATOM      1  C   UNK d   0       0.590   0.252   0.097  0.00  0.00     0.185 C 
ATOM      2  C   UNK d   0       0.242  -0.022   1.570  0.00  0.00     0.076 C 
ATOM      3  C   UNK d   0      -1.178   0.365   1.771  0.00  0.00    -0.018 A 
ATOM      4  C   UNK d   0      -1.855   1.166   0.866  0.00  0.00     0.045 A 
ATOM      5  N   UNK d   0      -3.151   1.244   1.271  0.00  0.00    -0.356 N 
ATOM      6  C   UNK d   0      -3.299   0.579   2.464  0.00  0.00     0.043 A 
ATOM      7  C   UNK d   0      -4.429   0.428   3.263  0.00  0.00     0.030 A 
ATOM      8  C   UNK d   0      -4.284  -0.332   4.426  0.00  0.00     0.002 A 
ATOM      9  C   UNK d   0      -3.067  -0.923   4.767  0.00  0.00     0.001 A 
ATOM     10  C   UNK d   0      -1.948  -0.769   3.952  0.00  0.00     0.014 A 
ATOM     11  C   UNK d   0      -2.071   0.005   2.791  0.00  0.00    -0.001 A 
ATOM     12  C   UNK d   0      -1.313   1.730  -0.396  0.00  0.00     0.173 C 
ATOM     13  C   UNK d   0      -1.423   3.186  -0.598  0.00  0.00    -0.014 A 
ATOM     14  C   UNK d   0      -2.566   3.951  -0.666  0.00  0.00     0.011 A 
ATOM     15  C   UNK d   0      -2.405   5.314  -0.863  0.00  0.00     0.001 A 
ATOM     16  C   UNK d   0      -1.122   5.876  -1.015  0.00  0.00     0.001 A 
ATOM     17  C   UNK d   0       0.030   5.085  -0.979  0.00  0.00     0.017 A 
ATOM     18  C   UNK d   0      -0.150   3.739  -0.775  0.00  0.00     0.041 A 
ATOM     19  C   UNK d   0       0.845   2.670  -0.625  0.00  0.00     0.256 C 
ATOM     20  O   UNK d   0       2.059   2.805  -0.721  0.00  0.00    -0.267 OA
ATOM     21  N   UNK d   0       0.124   1.559  -0.307  0.00  0.00    -0.320 N 
ATOM     22  H   UNK d   0      -3.894   1.715   0.779  0.00  0.00     0.166 HD
ENDROOT
BRANCH   1  23
ATOM     23  C   UNK d   0      -0.113  -0.676  -0.984  0.00  0.00     0.241 C 
ATOM     24  N   LEU d   1      -0.657  -1.872  -0.564  0.00  0.00    -0.346 N 
ATOM     25  H   LEU d   1      -1.030  -1.989   0.379  0.00  0.00     0.163 HD
ATOM     26  O   UNK d   0      -0.024  -0.403  -2.187  0.00  0.00    -0.271 OA
BRANCH  24  27
ATOM     27  CA  LEU d   1      -0.763  -3.060  -1.436  0.00  0.00     0.177 C 
BRANCH  27  28
ATOM     28  C   LEU d   1      -1.682  -4.084  -0.713  0.00  0.00     0.241 C 
ATOM     29  O   LEU d   1      -1.905  -3.940   0.489  0.00  0.00    -0.271 OA
ATOM     30  N   THR d   2      -2.075  -5.188  -1.457  0.00  0.00    -0.343 N 
ATOM     31  H   THR d   2      -1.813  -5.250  -2.430  0.00  0.00     0.163 HD
BRANCH  30  32
ATOM     32  CA  THR d   2      -3.102  -6.173  -0.956  0.00  0.00     0.214 C 
BRANCH  32  33
ATOM     33  C   THR d   2      -4.522  -5.517  -0.700  0.00  0.00     0.199 C 
ATOM     34  O   THR d   2      -5.483  -5.947  -1.397  0.00  0.00    -0.646 OA
ATOM     35  OXT THR d   2      -4.561  -4.601   0.169  0.00  0.00    -0.646 OA
ENDBRANCH  32  33
BRANCH  32  36
ATOM     36  CB  THR d   2      -3.248  -7.390  -1.926  0.00  0.00     0.147 C 
ATOM     37  CG2 THR d   2      -1.917  -8.076  -2.223  0.00  0.00     0.042 C 
BRANCH  36  38
ATOM     38  OG1 THR d   2      -4.056  -8.468  -1.425  0.00  0.00    -0.393 OA
ATOM     39  HG1 THR d   2      -3.860  -8.578  -0.482  0.00  0.00     0.210 HD
ENDBRANCH  36  38
ENDBRANCH  32  36
ENDBRANCH  30  32
ENDBRANCH  27  28
BRANCH  27  40
ATOM     40  CB  LEU d   1       0.611  -3.773  -1.671  0.00  0.00     0.038 C 
BRANCH  40  41
ATOM     41  CG  LEU d   1       1.746  -2.902  -2.249  0.00  0.00    -0.020 C 
ATOM     42  CD1 LEU d   1       2.310  -1.954  -1.206  0.00  0.00     0.009 C 
ATOM     43  CD2 LEU d   1       2.983  -3.674  -2.656  0.00  0.00     0.009 C 
ENDBRANCH  40  41
ENDBRANCH  27  40
ENDBRANCH  24  27
ENDBRANCH   1  23
TORSDOF 9
