REMARK  10 active torsions:
REMARK  status: ('A' for Active; 'I' for Inactive)
REMARK    1  A    between atoms: N_1  and  C_2 
REMARK    2  A    between atoms: C_6  and  N_7 
REMARK    3  A    between atoms: C_10  and  C_11 
REMARK    4  A    between atoms: C_11  and  N_12 
REMARK    5  A    between atoms: C_17  and  C_18 
REMARK       I    between atoms: C_18  and  N_20 
REMARK    6  A    between atoms: N_20  and  N_21 
REMARK    7  A    between atoms: C_22  and  C_23 
REMARK    8  A    between atoms: C_27  and  O_28 
REMARK    9  A    between atoms: O_28  and  C_29 
REMARK   10  A    between atoms: C_29  and  C_30 
ROOT
ATOM      1  N   UNL d   1       0.122  -2.669  -0.662  0.00  0.00    -0.207 N 
ATOM      2  N   UNL d   1      -0.261  -3.836  -1.260  0.00  0.00     0.012 NA
ATOM      3  N   UNL d   1       0.404  -4.913  -0.721  0.00  0.00    -0.160 NA
ATOM      4  C   UNL d   1       1.111  -4.480   0.356  0.00  0.00     0.112 C 
ATOM      5  C   UNL d   1       0.809  -3.066   0.373  0.00  0.00     0.153 C 
ENDROOT
BRANCH   5   6
ATOM      6  C   UNL d   1       0.976  -2.215   1.437  0.00  0.00     0.292 C 
ATOM      7  O   UNL d   1       1.524  -3.159   1.972  0.00  0.00    -0.264 OA
ATOM      8  N   UNL d   1       0.738  -0.858   2.051  0.00  0.00    -0.242 N 
ATOM      9  H   UNL d   1       0.427  -0.070   1.519  0.00  0.00     0.192 HD
BRANCH   8  10
ATOM     10  N   UNL d   1       1.337  -0.342   3.357  0.00  0.00    -0.183 NA
ATOM     11  C   UNL d   1       1.455   0.912   3.659  0.00  0.00     0.150 C 
BRANCH  11  12
ATOM     12  C   UNL d   1       2.175   1.445   4.882  0.00  0.00    -0.014 A 
ATOM     13  C   UNL d   1       1.552   2.467   5.596  0.00  0.00     0.013 A 
ATOM     14  C   UNL d   1       2.278   3.248   6.502  0.00  0.00     0.004 A 
ATOM     15  C   UNL d   1       3.604   2.933   6.804  0.00  0.00     0.037 A 
ATOM     16  C   UNL d   1       4.230   1.871   6.148  0.00  0.00     0.070 A 
ATOM     17  C   UNL d   1       3.509   1.125   5.197  0.00  0.00     0.049 A 
BRANCH  16  18
ATOM     18  O   UNL d   1       5.551   1.679   6.457  0.00  0.00    -0.347 OA
BRANCH  18  19
ATOM     19  C   UNL d   1       6.245   0.662   5.722  0.00  0.00     0.214 C 
BRANCH  19  20
ATOM     20  C   UNL d   1       7.684   0.621   6.158  0.00  0.00    -0.034 C 
ATOM     21  C   UNL d   1       8.339  -0.600   6.367  0.00  0.00     0.009 C 
ATOM     22  C   UNL d   1       9.603  -0.616   6.956  0.00  0.00     0.001 C 
ATOM     23  C   UNL d   1      10.281   0.578   7.190  0.00  0.00     0.000 C 
ATOM     24  C   UNL d   1       9.666   1.795   6.912  0.00  0.00     0.001 C 
ATOM     25  C   UNL d   1       8.375   1.815   6.394  0.00  0.00     0.009 C 
ENDBRANCH  19  20
ENDBRANCH  18  19
ENDBRANCH  16  18
ENDBRANCH  11  12
ENDBRANCH   8  10
ENDBRANCH   5   6
BRANCH   4  26
ATOM     26  C   UNL d   1       1.941  -5.423   1.505  0.00  0.00     0.297 C 
BRANCH  26  27
ATOM     27  N   UNL d   1       2.636  -4.675   2.947  0.00  0.00    -0.066 N 
ATOM     28  C   UNL d   1       1.372  -4.128   4.038  0.00  0.00     0.235 C 
ATOM     29  C   UNL d   1       1.153  -2.640   3.845  0.00  0.00     0.029 C 
ATOM     30  C   UNL d   1       2.829  -2.088   3.066  0.00  0.00     0.029 C 
ATOM     31  C   UNL d   1       3.584  -3.353   2.471  0.00  0.00     0.235 C 
ATOM     32  H   UNL d   1       3.205  -5.380   3.431  0.00  0.00     0.280 HD
ENDBRANCH  26  27
ENDBRANCH   4  26
BRANCH   1  33
ATOM     33  C   UNL d   1      -0.191  -1.250  -0.705  0.00  0.00     0.225 C 
ATOM     34  N   UNL d   1      -1.387  -0.872  -0.219  0.00  0.00    -0.081 NA
ATOM     35  O   UNL d   1      -1.288   0.510  -0.030  0.00  0.00    -0.103 OA
ATOM     36  N   UNL d   1       0.026   0.945  -0.118  0.00  0.00    -0.083 NA
ATOM     37  C   UNL d   1       0.740  -0.120  -0.497  0.00  0.00     0.201 C 
BRANCH  37  38
ATOM     38  N   UNL d   1       2.091  -0.101  -0.319  0.00  0.00    -0.379 N 
ATOM     39  H   UNL d   1       2.564   0.772  -0.053  0.00  0.00     0.158 HD
ATOM     40  H   UNL d   1       2.712  -0.899  -0.266  0.00  0.00     0.158 HD
ENDBRANCH  37  38
ENDBRANCH   1  33
TORSDOF 10
