REMARK  7 active torsions:
REMARK  status: ('A' for Active; 'I' for Inactive)
REMARK    1  A    between atoms: C_2  and  O_4 
REMARK    2  A    between atoms: O_4  and  C_5 
REMARK    3  A    between atoms: C_9  and  C_10 
REMARK    4  A    between atoms: C_10  and  C_11 
REMARK       I    between atoms: C_11  and  N_13 
REMARK    5  A    between atoms: N_13  and  N_14 
REMARK       I    between atoms: N_14  and  C_15 
REMARK       I    between atoms: C_15  and  N_17 
REMARK    6  A    between atoms: N_17  and  C_18 
REMARK    7  A    between atoms: C_18  and  C_19 
ROOT
ATOM      1  C   UNL d   1       6.485  -2.310   1.918  0.00  0.00     0.240 C 
ATOM      2  O   UNL d   1       5.281  -2.128   2.119  0.00  0.00    -0.272 OA
ATOM      3  N   UNL d   1       7.179  -2.786   3.004  0.00  0.00    -0.266 N 
ATOM      4  H   UNL d   1       8.150  -3.082   3.029  0.00  0.00     0.190 HD
ENDROOT
BRANCH   1   5
ATOM      5  C   UNL d   1       7.249  -2.061   0.576  0.00  0.00     0.143 C 
BRANCH   5   6
ATOM      6  C   UNL d   1       6.459  -1.477  -0.609  0.00  0.00    -0.047 C 
ATOM      7  C   UNL d   1       7.006  -1.205  -1.866  0.00  0.00     0.007 C 
ATOM      8  C   UNL d   1       6.176  -0.735  -2.910  0.00  0.00     0.003 C 
ATOM      9  C   UNL d   1       4.817  -0.430  -2.689  0.00  0.00     0.037 C 
ATOM     10  C   UNL d   1       4.260  -0.682  -1.449  0.00  0.00     0.069 C 
ATOM     11  C   UNL d   1       5.085  -1.270  -0.506  0.00  0.00     0.044 C 
BRANCH  10  12
ATOM     12  O   UNL d   1       2.910  -0.572  -1.232  0.00  0.00    -0.347 OA
BRANCH  12  13
ATOM     13  C   UNL d   1       2.443   0.003   0.021  0.00  0.00     0.120 C 
ATOM     14  C   UNL d   1       0.914   0.000  -0.022  0.00  0.00     0.040 C 
ATOM     15  C   UNL d   1       2.792  -0.711   1.330  0.00  0.00     0.040 C 
ENDBRANCH  12  13
ENDBRANCH  10  12
ENDBRANCH   5   6
ENDBRANCH   1   5
BRANCH   3  16
ATOM     16  N   UNL d   1       6.402  -3.002   4.184  0.00  0.00    -0.249 N 
ATOM     17  C   UNL d   1       6.988  -3.527   5.303  0.00  0.00     0.334 C 
ATOM     18  O   UNL d   1       8.180  -3.836   5.329  0.00  0.00    -0.246 OA
ATOM     19  N   UNL d   1       6.143  -3.664   6.371  0.00  0.00    -0.341 N 
ATOM     20  H   UNL d   1       5.171  -3.428   6.258  0.00  0.00     0.164 HD
ATOM     21  H   UNL d   1       5.418  -2.735   4.116  0.00  0.00     0.192 HD
BRANCH  19  22
ATOM     22  C   UNL d   1       6.613  -4.190   7.637  0.00  0.00     0.129 C 
BRANCH  22  23
ATOM     23  C   UNL d   1       5.566  -4.258   8.713  0.00  0.00     0.003 A 
ATOM     24  C   UNL d   1       4.193  -3.634   8.606  0.00  0.00     0.007 A 
ATOM     25  C   UNL d   1       4.344  -5.131   8.549  0.00  0.00     0.007 A 
ENDBRANCH  22  23
ENDBRANCH  19  22
ENDBRANCH   3  16
TORSDOF 7
