REMARK  5 active torsions:
REMARK  status: ('A' for Active; 'I' for Inactive)
REMARK    1  A    between atoms: N_1  and  N_2 
REMARK       I    between atoms: N_2  and  C_3 
REMARK    2  A    between atoms: C_3  and  C_5 
REMARK    3  A    between atoms: C_5  and  C_6 
REMARK    4  A    between atoms: C_6  and  N_7 
REMARK    5  A    between atoms: N_7  and  C_8 
ROOT
ATOM      1  N   UNL d   1       6.706   1.894  -1.864  0.00  0.00    -0.389 N 
ATOM      2  H   UNL d   1       7.244   1.177  -1.393  0.00  0.00     0.159 HD
ENDROOT
BRANCH   1   3
ATOM      3  C   UNL d   1       5.242   1.875  -1.826  0.00  0.00     0.129 C 
BRANCH   3   4
ATOM      4  C   UNL d   1       4.684   0.828  -0.859  0.00  0.00     0.123 C 
BRANCH   4   5
ATOM      5  C   UNL d   1       3.162   0.858  -0.902  0.00  0.00     0.233 C 
ATOM      6  N   UNL d   1       2.540  -0.070  -0.069  0.00  0.00    -0.294 N 
ATOM      7  H   UNL d   1       3.085  -0.642   0.573  0.00  0.00     0.183 HD
ATOM      8  O   UNL d   1       2.536   1.625  -1.639  0.00  0.00    -0.272 OA
BRANCH   6   9
ATOM      9  N   UNL d   1       1.130  -0.064   0.027  0.00  0.00    -0.247 NA
ATOM     10  H   UNL d   1       0.793  -0.824   0.617  0.00  0.00     0.143 HD
ATOM     11  H   UNL d   1       0.746  -0.224  -0.911  0.00  0.00     0.143 HD
ENDBRANCH   6   9
ENDBRANCH   4   5
ENDBRANCH   3   4
ENDBRANCH   1   3
BRANCH   1  12
ATOM     12  C   UNL d   1       7.366   2.810  -2.675  0.00  0.00     0.029 A 
ATOM     13  C   UNL d   1       6.948   4.144  -2.739  0.00  0.00     0.031 A 
ATOM     14  C   UNL d   1       7.568   5.071  -3.580  0.00  0.00     0.028 A 
ATOM     15  C   UNL d   1       8.613   4.670  -4.407  0.00  0.00     0.055 A 
ATOM     16 CL   UNL d   1       9.337   5.867  -5.421  0.00  0.00    -0.083 Cl
ATOM     17  C   UNL d   1       9.033   3.337  -4.384  0.00  0.00     0.058 A 
ATOM     18 CL   UNL d   1      10.288   2.759  -5.427  0.00  0.00    -0.082 Cl
ATOM     19  C   UNL d   1       8.419   2.418  -3.512  0.00  0.00     0.054 A 
ENDBRANCH   1  12
TORSDOF 5
