@<TRIPOS>MOLECULE
*****
 43 44 0 0 0
SMALL
GASTEIGER

@<TRIPOS>ATOM
      1 O           1.2063    0.0096    0.2320 O.2     1  UNL1       -0.2739
      2 C           2.4338    0.0472    0.1065 C.2     1  UNL1        0.2334
      3 C           3.1294    0.4865   -1.1695 C.3     1  UNL1        0.0505
      4 C           2.1688    0.8706   -2.2766 C.ar    1  UNL1       -0.0386
      5 C           1.9963    2.2108   -2.6497 C.ar    1  UNL1       -0.0581
      6 C           0.9908    2.5679   -3.5518 C.ar    1  UNL1       -0.0615
      7 C           0.2005    1.5860   -4.1467 C.ar    1  UNL1       -0.0617
      8 C           0.3904    0.2471   -3.8149 C.ar    1  UNL1       -0.0615
      9 C           1.3659   -0.1088   -2.8827 C.ar    1  UNL1       -0.0581
     10 N           3.2089   -0.3361    1.1723 N.am    1  UNL1       -0.2349
     11 N           4.6340   -0.3781    1.2882 N.am    1  UNL1       -0.2455
     12 C           5.1753   -0.8143    2.5171 C.2     1  UNL1        0.1531
     13 S           4.1354   -1.2566    3.7738 S.2     1  UNL1       -0.0170
     14 N           6.5912   -0.8394    2.5762 N.am    1  UNL1       -0.2639
     15 C           7.3680   -1.2413    3.6896 C.2     1  UNL1        0.2561
     16 O           6.8673   -1.5994    4.7580 O.2     1  UNL1       -0.2717
     17 C           8.9160   -1.2159    3.5743 C.3     1  UNL1        0.1655
     18 O           9.4496   -1.7918    4.7877 O.3     1  UNL1       -0.4828
     19 C          10.7876   -1.7350    5.0511 C.ar    1  UNL1        0.1216
     20 C          11.3150   -2.7960    5.8064 C.ar    1  UNL1       -0.0135
     21 C          12.6597   -2.8037    6.2073 C.ar    1  UNL1        0.0190
     22 C          13.4961   -1.7590    5.8020 C.ar    1  UNL1        0.2734
     23 N          14.9383   -1.8221    6.0834 N.pl3   1  UNL1        0.0796
     24 O          15.3687   -2.8036    6.6974 O.2     1  UNL1        0.0414
     25 O          15.6463   -0.8935    5.6545 O.co2   1  UNL1       -0.5760
     26 C          12.9713   -0.6795    5.0797 C.ar    1  UNL1        0.0190
     27 C          11.6156   -0.6664    4.7174 C.ar    1  UNL1       -0.0135
     28 H           3.7656   -0.3328   -1.5211 H       1  UNL1        0.0407
     29 H           3.7739    1.3378   -0.9239 H       1  UNL1        0.0407
     30 H           2.6183    2.9926   -2.2211 H       1  UNL1        0.0620
     31 H           0.8040    3.6161   -3.7710 H       1  UNL1        0.0618
     32 H          -0.5718    1.8651   -4.8585 H       1  UNL1        0.0618
     33 H          -0.2460   -0.5180   -4.2519 H       1  UNL1        0.0618
     34 H           1.4629   -1.1534   -2.5948 H       1  UNL1        0.0620
     35 H           2.6857   -0.6271    2.0034 H       1  UNL1        0.1728
     36 H           5.1774   -0.0970    0.4815 H       1  UNL1        0.1718
     37 H           7.0914   -0.5490    1.7484 H       1  UNL1        0.1566
     38 H           9.2363   -0.1790    3.4444 H       1  UNL1        0.0795
     39 H           9.2383   -1.8427    2.7385 H       1  UNL1        0.0795
     40 H          10.6779   -3.6359    6.0819 H       1  UNL1        0.0656
     41 H          13.0335   -3.6208    6.8221 H       1  UNL1        0.0686
     42 H          13.6007    0.1627    4.7976 H       1  UNL1        0.0686
     43 H          11.2306    0.2040    4.2000 H       1  UNL1        0.0656
@<TRIPOS>UNITY_ATOM_ATTR
23 1
charge 1
25 1
charge -1
@<TRIPOS>BOND
     1     1     2    2
     2     2     3    1
     3     3     4    1
     4     4     5   ar
     5     5     6   ar
     6     6     7   ar
     7     7     8   ar
     8     8     9   ar
     9     4     9   ar
    10     2    10   am
    11    10    11    1
    12    11    12    1
    13    12    13    2
    14    12    14    1
    15    14    15   am
    16    15    16    2
    17    15    17    1
    18    17    18    1
    19    18    19    1
    20    19    20   ar
    21    20    21   ar
    22    21    22   ar
    23    22    23    1
    24    23    24    2
    25    23    25    1
    26    22    26   ar
    27    26    27   ar
    28    19    27   ar
    29     3    28    1
    30     3    29    1
    31     5    30    1
    32     6    31    1
    33     7    32    1
    34     8    33    1
    35     9    34    1
    36    10    35    1
    37    11    36    1
    38    14    37    1
    39    17    38    1
    40    17    39    1
    41    20    40    1
    42    21    41    1
    43    26    42    1
    44    27    43    1
