@<TRIPOS>MOLECULE
*****
 53 57 0 0 0
SMALL
GASTEIGER

@<TRIPOS>ATOM
      1 O           1.4919    0.2467    0.1536 O.2     1  UNL1       -0.2717
      2 C           2.7140    0.2264   -0.0919 C.2     1  UNL1        0.2550
      3 C           3.2155   -0.7089   -1.1835 C.3     1  UNL1        0.1687
      4 O           2.1955   -1.3452   -2.0082 O.3     1  UNL1       -0.4506
      5 C           2.7003   -2.1720   -2.9823 C.2     1  UNL1        0.3583
      6 O           3.9049   -2.3524   -3.1432 O.2     1  UNL1       -0.2432
      7 C           1.6652   -2.7846   -3.7842 C.ar    1  UNL1        0.1518
      8 C           0.5388   -2.2240   -4.3649 C.ar    1  UNL1       -0.0015
      9 C          -0.0912   -3.2480   -5.1158 C.ar    1  UNL1        0.0939
     10 C          -1.3207   -3.1335   -5.9066 C.ar    1  UNL1        0.0021
     11 C          -2.4487   -3.9188   -5.6297 C.ar    1  UNL1       -0.0525
     12 C          -3.5709   -3.8682   -6.4689 C.ar    1  UNL1       -0.0611
     13 C          -3.6165   -2.9618   -7.5274 C.ar    1  UNL1       -0.0617
     14 C          -2.5185   -2.1442   -7.7831 C.ar    1  UNL1       -0.0611
     15 C          -1.3762   -2.2325   -6.9795 C.ar    1  UNL1       -0.0525
     16 N           0.6473   -4.3666   -5.0897 N.ar    1  UNL1       -0.1656
     17 N           1.7093   -4.0781   -4.2826 N.ar    1  UNL1       -0.2252
     18 C           2.6198   -5.1110   -3.9396 C.ar    1  UNL1        0.0663
     19 C           3.2357   -5.8686   -4.9438 C.ar    1  UNL1       -0.0362
     20 C           4.0538   -6.9464   -4.5903 C.ar    1  UNL1       -0.0598
     21 C           4.3006   -7.2287   -3.2458 C.ar    1  UNL1       -0.0616
     22 C           3.6894   -6.4684   -2.2486 C.ar    1  UNL1       -0.0598
     23 C           2.8506   -5.4061   -2.5910 C.ar    1  UNL1       -0.0362
     24 N           3.5399    0.9663    0.7488 N.am    1  UNL1       -0.2826
     25 C           4.8864    1.4350    1.1596 C.ar    1  UNL1        0.0356
     26 C           4.9166    1.1615    2.4818 C.ar    1  UNL1       -0.0384
     27 C           6.1020    0.6072    2.8754 C.ar    1  UNL1       -0.0345
     28 C           6.8649    1.6504    3.0806 C.ar    1  UNL1        0.0669
     29 N           6.8491    2.2913    4.2845 N.ar    1  UNL1       -0.3061
     30 C           7.8994    3.1113    4.2761 C.ar    1  UNL1        0.3250
     31 O           8.4888    3.4448    5.3435 O.2     1  UNL1       -0.2468
     32 N           8.2036    3.3264    2.8476 N.ar    1  UNL1       -0.3061
     33 C           7.4395    2.2001    1.9904 C.ar    1  UNL1        0.0686
     34 C           6.2950    1.9171    0.8356 C.ar    1  UNL1       -0.0150
     35 H           3.7661   -1.5022   -0.6676 H       1  UNL1        0.0796
     36 H           3.8329   -0.0866   -1.8213 H       1  UNL1        0.0796
     37 H           0.2198   -1.1955   -4.2905 H       1  UNL1        0.0663
     38 H          -2.4665   -4.5726   -4.7608 H       1  UNL1        0.0624
     39 H          -4.4045   -4.5484   -6.3091 H       1  UNL1        0.0618
     40 H          -4.5054   -2.8942   -8.1510 H       1  UNL1        0.0618
     41 H          -2.5399   -1.4555   -8.6240 H       1  UNL1        0.0618
     42 H          -0.5217   -1.6014   -7.2074 H       1  UNL1        0.0624
     43 H           3.1258   -5.6021   -5.9930 H       1  UNL1        0.0639
     44 H           4.4934   -7.5752   -5.3611 H       1  UNL1        0.0618
     45 H           4.9689   -8.0431   -2.9754 H       1  UNL1        0.0618
     46 H           3.8473   -6.7198   -1.2031 H       1  UNL1        0.0618
     47 H           2.3481   -4.8550   -1.8017 H       1  UNL1        0.0639
     48 H           2.8720    1.1902    1.5008 H       1  UNL1        0.1549
     49 H           4.4795    2.0013    3.0489 H       1  UNL1        0.0637
     50 H           6.6995   -0.0374    2.1826 H       1  UNL1        0.0639
     51 H           6.3597    1.9065    5.0772 H       1  UNL1        0.1704
     52 H           9.2284    3.4403    2.8314 H       1  UNL1        0.1704
     53 H           6.6337    1.2110    0.0200 H       1  UNL1        0.0657
@<TRIPOS>BOND
     1     1     2    2
     2     2     3    1
     3     3     4    1
     4     4     5    1
     5     5     6    2
     6     5     7    1
     7     7     8   ar
     8     8     9   ar
     9     9    10    1
    10    10    11   ar
    11    11    12   ar
    12    12    13   ar
    13    13    14   ar
    14    14    15   ar
    15    10    15   ar
    16     9    16   ar
    17    16    17   ar
    18     7    17   ar
    19    17    18    1
    20    18    19   ar
    21    19    20   ar
    22    20    21   ar
    23    21    22   ar
    24    22    23   ar
    25    18    23   ar
    26     2    24   am
    27    24    25    1
    28    25    26   ar
    29    26    27   ar
    30    27    28   ar
    31    28    29   ar
    32    29    30   ar
    33    30    31    2
    34    30    32   ar
    35    32    33   ar
    36    28    33   ar
    37    33    34   ar
    38    25    34   ar
    39     3    35    1
    40     3    36    1
    41     8    37    1
    42    11    38    1
    43    12    39    1
    44    13    40    1
    45    14    41    1
    46    15    42    1
    47    19    43    1
    48    20    44    1
    49    21    45    1
    50    22    46    1
    51    23    47    1
    52    24    48    1
    53    26    49    1
    54    27    50    1
    55    29    51    1
    56    32    52    1
    57    34    53    1
