@<TRIPOS>MOLECULE
*****
 51 54 0 0 0
SMALL
GASTEIGER

@<TRIPOS>ATOM
      1 O           1.0779   -0.0248    0.0533 O.2     1  UNL1       -0.2668
      2 C           2.3147   -0.0068    0.0931 C.2     1  UNL1        0.2810
      3 N           3.0340    1.0946    0.5685 N.am    1  UNL1       -0.2017
      4 N           2.3258    2.2051    0.9883 N.2     1  UNL1       -0.1873
      5 C           2.9696    3.2773    1.3284 C.2     1  UNL1        0.0563
      6 C           2.2722    4.5076    1.8078 C.ar    1  UNL1        0.0360
      7 C           2.7503    5.7624    1.3985 C.ar    1  UNL1       -0.0496
      8 C           2.1306    6.9380    1.8473 C.ar    1  UNL1       -0.0609
      9 C           1.0436    6.8690    2.7184 C.ar    1  UNL1       -0.0583
     10 C           0.5685    5.6256    3.1388 C.ar    1  UNL1       -0.0195
     11 C           1.1823    4.4514    2.6855 C.ar    1  UNL1        0.1255
     12 O           0.7531    3.2463    3.1629 O.3     1  UNL1       -0.5061
     13 C           3.0653   -1.1310   -0.4318 C.ar    1  UNL1        0.1224
     14 C           2.7430   -1.9107   -1.5309 C.ar    1  UNL1       -0.0041
     15 C           3.7092   -2.9439   -1.6084 C.ar    1  UNL1        0.0932
     16 C           3.8052   -3.9746   -2.6450 C.ar    1  UNL1        0.0023
     17 C           3.9187   -3.5992   -3.9913 C.ar    1  UNL1       -0.0491
     18 C           3.9984   -4.5619   -5.0072 C.ar    1  UNL1       -0.0193
     19 C           3.9560   -5.9183   -4.6935 C.ar    1  UNL1        0.1210
     20 O           4.0371   -6.9457   -5.5918 O.3     1  UNL1       -0.4874
     21 C           4.2109   -6.6005   -6.9696 C.3     1  UNL1        0.1146
     22 C           4.2972   -7.8836   -7.7617 C.ar    1  UNL1       -0.0103
     23 C           3.2483   -8.8137   -7.7025 C.ar    1  UNL1       -0.0540
     24 C           3.3635  -10.0512   -8.3360 C.ar    1  UNL1       -0.0430
     25 C           4.4931  -10.3330   -9.1000 C.ar    1  UNL1        0.0410
     26 CL          4.5962  -11.8256   -9.9495 Cl      1  UNL1       -0.0835
     27 C           5.5274   -9.4046   -9.2010 C.ar    1  UNL1       -0.0430
     28 C           5.4324   -8.1834   -8.5290 C.ar    1  UNL1       -0.0540
     29 C           3.8203   -6.3006   -3.3549 C.ar    1  UNL1       -0.0193
     30 C           3.7514   -5.3379   -2.3346 C.ar    1  UNL1       -0.0491
     31 N           4.5722   -2.8430   -0.5852 N.ar    1  UNL1       -0.1732
     32 N           4.1525   -1.7614    0.1106 N.ar    1  UNL1       -0.2719
     33 H           4.0415    1.1525    0.4936 H       1  UNL1        0.1776
     34 H           4.0699    3.3440    1.2680 H       1  UNL1        0.0852
     35 H           3.5923    5.8433    0.7166 H       1  UNL1        0.0625
     36 H           2.4929    7.9110    1.5192 H       1  UNL1        0.0618
     37 H           0.5717    7.7829    3.0758 H       1  UNL1        0.0619
     38 H          -0.2661    5.5909    3.8338 H       1  UNL1        0.0654
     39 H          -0.0930    3.3514    3.6242 H       1  UNL1        0.2922
     40 H           1.8995   -1.7535   -2.1894 H       1  UNL1        0.0662
     41 H           3.9591   -2.5478   -4.2650 H       1  UNL1        0.0625
     42 H           4.0941   -4.2142   -6.0300 H       1  UNL1        0.0654
     43 H           5.1360   -6.0248   -7.0974 H       1  UNL1        0.0748
     44 H           3.3576   -6.0160   -7.3351 H       1  UNL1        0.0748
     45 H           2.3471   -8.5822   -7.1375 H       1  UNL1        0.0622
     46 H           2.5755  -10.7898   -8.2199 H       1  UNL1        0.0632
     47 H           6.4139   -9.6303   -9.7876 H       1  UNL1        0.0632
     48 H           6.2553   -7.4753   -8.5997 H       1  UNL1        0.0622
     49 H           3.7692   -7.3580   -3.1016 H       1  UNL1        0.0654
     50 H           3.6432   -5.6619   -1.3022 H       1  UNL1        0.0625
     51 H           4.6340   -1.5498    0.9776 H       1  UNL1        0.1891
@<TRIPOS>BOND
     1     1     2    2
     2     2     3   am
     3     3     4    1
     4     4     5    2
     5     5     6    1
     6     6     7   ar
     7     7     8   ar
     8     8     9   ar
     9     9    10   ar
    10    10    11   ar
    11     6    11   ar
    12    11    12    1
    13     2    13    1
    14    13    14   ar
    15    14    15   ar
    16    15    16    1
    17    16    17   ar
    18    17    18   ar
    19    18    19   ar
    20    19    20    1
    21    20    21    1
    22    21    22    1
    23    22    23   ar
    24    23    24   ar
    25    24    25   ar
    26    25    26    1
    27    25    27   ar
    28    27    28   ar
    29    22    28   ar
    30    19    29   ar
    31    29    30   ar
    32    16    30   ar
    33    15    31   ar
    34    31    32   ar
    35    13    32   ar
    36     3    33    1
    37     5    34    1
    38     7    35    1
    39     8    36    1
    40     9    37    1
    41    10    38    1
    42    12    39    1
    43    14    40    1
    44    17    41    1
    45    18    42    1
    46    21    43    1
    47    21    44    1
    48    23    45    1
    49    24    46    1
    50    27    47    1
    51    28    48    1
    52    29    49    1
    53    30    50    1
    54    32    51    1
