@<TRIPOS>MOLECULE
*****
 57 58 0 0 0
SMALL
GASTEIGER

@<TRIPOS>ATOM
      1 C           3.1928   -1.3193    0.7309 C.3     1  UNL1       -0.0369
      2 C           2.6589   -0.0964    0.0106 C.3     1  UNL1        0.0796
      3 O           1.2553   -0.2986    0.1890 O.3     1  UNL1       -0.3899
      4 C           3.1351    0.0181   -1.4719 C.3     1  UNL1        0.1508
      5 N           2.5081    1.2215   -2.1826 N.3     1  UNL1       -0.1736
      6 S           0.7925    1.2535   -2.2188 S.O2    1  UNL1        0.0593
      7 O           0.3928    0.0836   -2.9606 O.2     1  UNL1       -0.1530
      8 O           0.2414    1.5799   -0.9232 O.2     1  UNL1       -0.1530
      9 C           0.3954    2.6942   -3.1439 C.ar    1  UNL1        0.1067
     10 C          -0.5544    2.6449   -4.1623 C.ar    1  UNL1       -0.0339
     11 C          -0.9435    3.8377   -4.7715 C.ar    1  UNL1       -0.0401
     12 C          -0.3971    5.0594   -4.3503 C.ar    1  UNL1        0.0594
     13 CL         -0.9124    6.4932   -5.1616 Cl      1  UNL1       -0.0820
     14 C           0.5306    5.0925   -3.3015 C.ar    1  UNL1        0.0611
     15 CL          1.2532    6.5529   -2.7334 Cl      1  UNL1       -0.0820
     16 C           0.9121    3.9079   -2.6831 C.ar    1  UNL1       -0.0156
     17 C           4.6970    0.0999   -1.4842 C.2     1  UNL1        0.3289
     18 O           5.4004    0.1779   -0.4824 O.2     1  UNL1       -0.2489
     19 O           5.2438    0.0300   -2.7348 O.3     1  UNL1       -0.4540
     20 C           6.7018    0.0210   -2.7620 C.3     1  UNL1        0.1681
     21 C           7.2212    0.0178   -4.2127 C.2     1  UNL1        0.2508
     22 O           6.4509    0.0166   -5.1723 O.2     1  UNL1       -0.2721
     23 N           8.5996    0.0217   -4.3865 N.am    1  UNL1       -0.3122
     24 C           9.1626    0.0238   -5.7358 C.3     1  UNL1        0.0154
     25 C          10.6957    0.0228   -5.7748 C.3     1  UNL1       -0.0161
     26 C          11.2119   -0.0012   -7.1965 C.2     1  UNL1       -0.0720
     27 C          11.3748   -1.1652   -7.8524 C.2     1  UNL1       -0.0847
     28 C          11.8702   -1.2634   -9.2642 C.3     1  UNL1       -0.0345
     29 C          12.5377    0.0236   -9.7447 C.3     1  UNL1       -0.0493
     30 C          11.7110    1.2459   -9.3615 C.3     1  UNL1       -0.0491
     31 C          11.5232    1.3302   -7.8432 C.3     1  UNL1       -0.0317
     32 H           4.2755   -1.3713    0.7937 H       1  UNL1        0.0255
     33 H           2.8185   -2.2207    0.2328 H       1  UNL1        0.0255
     34 H           2.7914   -1.3331    1.7510 H       1  UNL1        0.0255
     35 H           2.9283    0.8257    0.5424 H       1  UNL1        0.0612
     36 H           0.8867   -0.8503   -0.5195 H       1  UNL1        0.2099
     37 H           2.8416   -0.8833   -2.0252 H       1  UNL1        0.0619
     38 H           2.8624    1.2624   -3.1453 H       1  UNL1        0.1490
     39 H          -1.0214    1.7044   -4.4508 H       1  UNL1        0.0637
     40 H          -1.6807    3.8125   -5.5711 H       1  UNL1        0.0633
     41 H           1.5746    3.9219   -1.8180 H       1  UNL1        0.0652
     42 H           7.0746   -0.8811   -2.2581 H       1  UNL1        0.0796
     43 H           7.0906    0.9147   -2.2576 H       1  UNL1        0.0796
     44 H           9.2307    0.0107   -3.5946 H       1  UNL1        0.1488
     45 H           8.7713    0.9029   -6.2623 H       1  UNL1        0.0465
     46 H           8.7746   -0.8611   -6.2568 H       1  UNL1        0.0465
     47 H          11.0781   -0.8517   -5.2324 H       1  UNL1        0.0325
     48 H          11.0969    0.8974   -5.2484 H       1  UNL1        0.0325
     49 H          11.1259   -2.1043   -7.3629 H       1  UNL1        0.0572
     50 H          11.0188   -1.5080   -9.9113 H       1  UNL1        0.0307
     51 H          12.5839   -2.0907   -9.3432 H       1  UNL1        0.0307
     52 H          12.6792   -0.0139  -10.8302 H       1  UNL1        0.0268
     53 H          13.5342    0.1071   -9.2924 H       1  UNL1        0.0268
     54 H          10.7305    1.1952   -9.8524 H       1  UNL1        0.0268
     55 H          12.2010    2.1569   -9.7240 H       1  UNL1        0.0268
     56 H          10.7246    2.0504   -7.6310 H       1  UNL1        0.0310
     57 H          12.4425    1.7260   -7.3929 H       1  UNL1        0.0310
@<TRIPOS>BOND
     1     2     4    1
     2     4     5    1
     3     5     6    1
     4     6     7    2
     5     6     8    2
     6     6     9    1
     7     9    10   ar
     8    10    11   ar
     9    11    12   ar
    10    12    13    1
    11    12    14   ar
    12    14    15    1
    13    14    16   ar
    14     9    16   ar
    15     4    17    1
    16    17    18    2
    17    17    19    1
    18    19    20    1
    19    20    21    1
    20    21    22    2
    21    21    23   am
    22    23    24    1
    23    24    25    1
    24    25    26    1
    25    26    27    2
    26    27    28    1
    27    28    29    1
    28    29    30    1
    29    30    31    1
    30    26    31    1
    31     2     3    1
    32     2     1    1
    33     1    32    1
    34     1    33    1
    35     1    34    1
    36     2    35    1
    37     3    36    1
    38     4    37    1
    39     5    38    1
    40    10    39    1
    41    11    40    1
    42    16    41    1
    43    20    42    1
    44    20    43    1
    45    23    44    1
    46    24    45    1
    47    24    46    1
    48    25    47    1
    49    25    48    1
    50    27    49    1
    51    28    50    1
    52    28    51    1
    53    29    52    1
    54    29    53    1
    55    30    54    1
    56    30    55    1
    57    31    56    1
    58    31    57    1
