@<TRIPOS>MOLECULE
*****
 60 64 0 0 0
SMALL
GASTEIGER

@<TRIPOS>ATOM
      1 C          -0.8889    0.0657   -1.8753 C.3     1  UNL1       -0.0427
      2 N          -0.7320    0.0505   -0.3792 N.4     1  UNL1        0.2376
      3 C           0.0596    1.2163    0.1528 C.3     1  UNL1       -0.0316
      4 C           1.5023    0.7806   -0.0353 C.3     1  UNL1       -0.0073
      5 C           1.4978   -0.7482    0.0099 C.3     1  UNL1       -0.0017
      6 C           0.0311   -1.1609    0.1425 C.3     1  UNL1        0.0139
      7 C          -0.3825   -1.4536    1.6055 C.3     1  UNL1        0.1320
      8 O           0.3374   -0.6179    2.5359 O.3     1  UNL1       -0.4849
      9 C           0.1772   -0.9276    3.8680 C.ar    1  UNL1        0.1408
     10 C          -0.0408    0.1649    4.7535 C.ar    1  UNL1        0.0028
     11 C          -0.2949   -0.0379    6.1345 C.ar    1  UNL1        0.0385
     12 N          -0.4507    1.0502    7.0410 N.pl3   1  UNL1       -0.2688
     13 C          -0.8704    0.9317    8.3345 C.ar    1  UNL1        0.2928
     14 N          -1.9309    1.4717    8.9111 N.ar    1  UNL1       -0.1951
     15 C          -1.8286    1.1109   10.2459 C.ar    1  UNL1        0.1147
     16 C          -2.6501    1.3595   11.3730 C.ar    1  UNL1        0.0098
     17 C          -2.2436    0.8862   12.6461 C.ar    1  UNL1        0.1307
     18 O          -3.0963    1.1453   13.7173 O.3     1  UNL1       -0.4558
     19 C          -2.7369    0.7551   14.9976 C.ar    1  UNL1        0.1321
     20 C          -1.5946    1.2412   15.6313 C.ar    1  UNL1       -0.0012
     21 C          -1.2916    0.7682   16.9023 C.ar    1  UNL1        0.0319
     22 N          -2.0583   -0.1079   17.5917 N.ar    1  UNL1       -0.2501
     23 C          -3.2022   -0.5180   16.9760 C.ar    1  UNL1        0.1286
     24 C          -4.0704   -1.4862   17.7284 C.2     1  UNL1        0.2600
     25 N          -3.6564   -1.8803   18.9724 N.am    1  UNL1       -0.3241
     26 O          -5.1175   -1.9236   17.2486 O.2     1  UNL1       -0.2687
     27 C          -3.5812   -0.1063   15.6970 C.ar    1  UNL1        0.0112
     28 C          -1.0436    0.1707   12.7593 C.ar    1  UNL1       -0.0157
     29 C          -0.2173   -0.0853   11.6545 C.ar    1  UNL1       -0.0136
     30 C          -0.6608    0.3908   10.4273 C.ar    1  UNL1        0.1572
     31 O          -0.0533    0.2538    9.2098 O.2     1  UNL1       -0.4243
     32 C          -0.3009   -1.3599    6.5875 C.ar    1  UNL1       -0.0388
     33 C          -0.0105   -2.4288    5.7420 C.ar    1  UNL1       -0.0381
     34 C           0.2810   -2.2179    4.4019 C.ar    1  UNL1        0.0826
     35 CL          0.8783   -3.6035    3.5554 Cl      1  UNL1       -0.0798
     36 H          -1.4707    0.9523   -2.1380 H       1  UNL1        0.0778
     37 H          -1.4283   -0.8382   -2.1704 H       1  UNL1        0.0778
     38 H           0.0977    0.0951   -2.3449 H       1  UNL1        0.0778
     39 H          -1.6794    0.0662    0.0215 H       1  UNL1        0.2035
     40 H          -0.2057    1.3266    1.2090 H       1  UNL1        0.0814
     41 H          -0.2230    2.1280   -0.3773 H       1  UNL1        0.0814
     42 H           2.1563    1.2102    0.7287 H       1  UNL1        0.0319
     43 H           1.8710    1.1186   -1.0104 H       1  UNL1        0.0319
     44 H           2.1146   -1.1315    0.8304 H       1  UNL1        0.0323
     45 H           1.9307   -1.1542   -0.9123 H       1  UNL1        0.0323
     46 H          -0.2315   -2.0160   -0.4927 H       1  UNL1        0.0885
     47 H          -1.4603   -1.3160    1.7490 H       1  UNL1        0.0754
     48 H          -0.1678   -2.5086    1.7256 H       1  UNL1        0.0754
     49 H          -0.0170    1.1789    4.3550 H       1  UNL1        0.0673
     50 H          -0.7635    1.9003    6.5884 H       1  UNL1        0.1565
     51 H          -3.5795    1.9066   11.2472 H       1  UNL1        0.0677
     52 H          -0.9299    1.9410   15.1369 H       1  UNL1        0.0669
     53 H          -0.3828    1.0876   17.4080 H       1  UNL1        0.0831
     54 H          -2.7984   -1.5290   19.3815 H       1  UNL1        0.1453
     55 H          -4.2300   -2.5311   19.4932 H       1  UNL1        0.1453
     56 H          -4.5065   -0.4658   15.2599 H       1  UNL1        0.0677
     57 H          -0.7125   -0.2180   13.7177 H       1  UNL1        0.0655
     58 H           0.7145   -0.6256   11.7656 H       1  UNL1        0.0656
     59 H          -0.5093   -1.5939    7.6266 H       1  UNL1        0.0637
     60 H           0.0162   -3.4339    6.1533 H       1  UNL1        0.0634
@<TRIPOS>UNITY_ATOM_ATTR
2 1
charge 1
@<TRIPOS>BOND
     1     2     3    1
     2     3     4    1
     3     4     5    1
     4     5     6    1
     5     2     6    1
     6     7     8    1
     7     8     9    1
     8     9    10   ar
     9    10    11   ar
    10    11    12    1
    11    12    13    1
    12    13    14   ar
    13    14    15   ar
    14    15    16   ar
    15    16    17   ar
    16    17    18    1
    17    18    19    1
    18    19    20   ar
    19    20    21   ar
    20    21    22   ar
    21    22    23   ar
    22    23    24    1
    23    24    25   am
    24    24    26    2
    25    23    27   ar
    26    19    27   ar
    27    17    28   ar
    28    28    29   ar
    29    29    30   ar
    30    15    30   ar
    31    30    31   ar
    32    13    31   ar
    33    11    32   ar
    34    32    33   ar
    35    33    34   ar
    36     9    34   ar
    37    34    35    1
    38     2     1    1
    39     6     7    1
    40     1    36    1
    41     1    37    1
    42     1    38    1
    43     2    39    1
    44     3    40    1
    45     3    41    1
    46     4    42    1
    47     4    43    1
    48     5    44    1
    49     5    45    1
    50     6    46    1
    51     7    47    1
    52     7    48    1
    53    10    49    1
    54    12    50    1
    55    16    51    1
    56    20    52    1
    57    21    53    1
    58    25    54    1
    59    25    55    1
    60    27    56    1
    61    28    57    1
    62    29    58    1
    63    32    59    1
    64    33    60    1
