@<TRIPOS>MOLECULE
*****
 53 55 0 0 0
SMALL
GASTEIGER

@<TRIPOS>ATOM
      1 C           0.9832   -0.0573    0.0683 C.3     1  UNL1       -0.0572
      2 C           2.5155   -0.0971    0.0210 C.3     1  UNL1       -0.0043
      3 C           3.0015   -1.4961    0.4042 C.3     1  UNL1       -0.0572
      4 C           3.0074    0.3636   -1.3493 C.ar    1  UNL1        0.0453
      5 C           3.5021   -0.5131   -2.3206 C.ar    1  UNL1       -0.0274
      6 C           3.8756   -0.0543   -3.6013 C.ar    1  UNL1        0.0490
      7 C           4.3708   -1.1475   -4.5784 C.2     1  UNL1        0.2609
      8 O           4.4405   -2.3236   -4.2000 O.2     1  UNL1       -0.2686
      9 N           4.7241   -0.8182   -5.8763 N.am    1  UNL1       -0.2292
     10 N           5.2083   -1.7095   -6.8575 N.am    1  UNL1       -0.2180
     11 C           5.5205   -1.1349   -8.0846 C.2     1  UNL1        0.3160
     12 O           5.3931    0.0722   -8.2992 O.2     1  UNL1       -0.2513
     13 N           5.9768   -2.0059   -9.0392 N.am    1  UNL1       -0.2982
     14 C           6.3557   -1.5482  -10.3777 C.3     1  UNL1        0.0147
     15 C           6.8194   -2.7025  -11.2537 C.3     1  UNL1       -0.0191
     16 C           7.2171   -2.3016  -12.6793 C.3     1  UNL1        0.0296
     17 N           7.6012   -3.4776  -13.5019 N.ar    1  UNL1       -0.2957
     18 C           7.3053   -4.8119  -13.2245 C.ar    1  UNL1        0.0732
     19 C           7.7445   -5.5562  -14.2764 C.ar    1  UNL1        0.1870
     20 N           8.3223   -4.6725  -15.1514 N.ar    1  UNL1       -0.2011
     21 C           8.2522   -3.4211  -14.6800 C.ar    1  UNL1        0.2463
     22 C           3.7422    1.3467   -3.8504 C.ar    1  UNL1        0.0125
     23 C           4.0766    2.0270   -5.0423 C.ar    1  UNL1       -0.0518
     24 C           3.8890    3.3817   -5.2497 C.ar    1  UNL1       -0.0611
     25 C           3.3847    4.1473   -4.2319 C.ar    1  UNL1       -0.0597
     26 C           3.0695    3.5342   -3.0188 C.ar    1  UNL1       -0.0357
     27 C           3.2319    2.1628   -2.8047 C.ar    1  UNL1        0.0720
     28 N           2.8864    1.6850   -1.5999 N.ar    1  UNL1       -0.2513
     29 H           0.6074   -0.3906    1.0428 H       1  UNL1        0.0236
     30 H           0.5529   -0.7089   -0.6999 H       1  UNL1        0.0236
     31 H           0.6014    0.9557   -0.1024 H       1  UNL1        0.0236
     32 H           2.8937    0.6042    0.7804 H       1  UNL1        0.0358
     33 H           2.6245   -2.2474   -0.2984 H       1  UNL1        0.0236
     34 H           2.6530   -1.7878    1.3996 H       1  UNL1        0.0236
     35 H           4.0961   -1.5379    0.3994 H       1  UNL1        0.0236
     36 H           3.5919   -1.5707   -2.0929 H       1  UNL1        0.0643
     37 H           4.5821    0.0759   -6.2968 H       1  UNL1        0.1732
     38 H           5.2715   -2.6894   -6.6080 H       1  UNL1        0.1744
     39 H           6.0433   -2.9805   -8.7859 H       1  UNL1        0.1503
     40 H           7.1475   -0.7973  -10.2818 H       1  UNL1        0.0463
     41 H           5.4860   -1.0599  -10.8339 H       1  UNL1        0.0463
     42 H           5.9972   -3.4256  -11.3008 H       1  UNL1        0.0297
     43 H           7.6665   -3.2145  -10.7801 H       1  UNL1        0.0297
     44 H           8.0620   -1.6022  -12.6680 H       1  UNL1        0.0494
     45 H           6.3806   -1.8142  -13.1943 H       1  UNL1        0.0494
     46 H           6.8016   -5.0815  -12.3137 H       1  UNL1        0.0871
     47 H           7.7121   -6.6070  -14.5045 H       1  UNL1        0.1392
     48 H           8.7436   -4.9300  -16.0414 H       1  UNL1        0.4538
     49 H           8.6383   -2.5364  -15.1752 H       1  UNL1        0.1600
     50 H           4.5399    1.5884   -5.8946 H       1  UNL1        0.0624
     51 H           4.1666    3.7968   -6.2139 H       1  UNL1        0.0618
     52 H           3.2537    5.2125   -4.3851 H       1  UNL1        0.0618
     53 H           2.6797    4.1573   -2.2158 H       1  UNL1        0.0639
@<TRIPOS>UNITY_ATOM_ATTR
20 1
charge 1
@<TRIPOS>BOND
     1     1     2    1
     2     2     3    1
     3     2     4    1
     4     4     5   ar
     5     5     6   ar
     6     6     7    1
     7     7     8    2
     8     7     9   am
     9     9    10    1
    10    10    11   am
    11    11    12    2
    12    11    13   am
    13    13    14    1
    14    14    15    1
    15    15    16    1
    16    16    17    1
    17    17    18   ar
    18    18    19   ar
    19    19    20   ar
    20    20    21   ar
    21    17    21   ar
    22     6    22   ar
    23    22    23   ar
    24    23    24   ar
    25    24    25   ar
    26    25    26   ar
    27    26    27   ar
    28    22    27   ar
    29    27    28   ar
    30     4    28   ar
    31     1    29    1
    32     1    30    1
    33     1    31    1
    34     2    32    1
    35     3    33    1
    36     3    34    1
    37     3    35    1
    38     5    36    1
    39     9    37    1
    40    10    38    1
    41    13    39    1
    42    14    40    1
    43    14    41    1
    44    15    42    1
    45    15    43    1
    46    16    44    1
    47    16    45    1
    48    18    46    1
    49    19    47    1
    50    20    48    1
    51    21    49    1
    52    23    50    1
    53    24    51    1
    54    25    52    1
    55    26    53    1
