REMARK  7 active torsions:
REMARK  status: ('A' for Active; 'I' for Inactive)
REMARK    1  A    between atoms: C_2  and  O_3 
REMARK    2  A    between atoms: O_3  and  C_4 
REMARK       I    between atoms: C_4  and  N_6 
REMARK       I    between atoms: N_9  and  C_10 
REMARK    3  A    between atoms: C_10  and  C_12 
REMARK    4  A    between atoms: C_21  and  C_22 
REMARK    5  A    between atoms: C_22  and  S_23 
REMARK    6  A    between atoms: S_23  and  C_24 
REMARK    7  A    between atoms: C_24  and  C_25 
ROOT
ATOM      1  C   UNL d   1       4.747  -5.445  -5.841  0.00  0.00     0.034 A 
ATOM      2  C   UNL d   1       4.172  -6.634  -6.320  0.00  0.00     0.019 A 
ATOM      3  C   UNL d   1       3.642  -6.697  -7.618  0.00  0.00     0.032 A 
ATOM      4  C   UNL d   1       3.692  -5.582  -8.450  0.00  0.00     0.056 A 
ATOM      5  C   UNL d   1       4.265  -4.390  -7.954  0.00  0.00     0.062 A 
ATOM      6  C   UNL d   1       4.823  -4.327  -6.678  0.00  0.00     0.049 A 
ATOM      7  N   UNL d   1       4.262  -3.248  -8.773  0.00  0.00    -0.323 N 
ATOM      8  C   UNL d   1       3.442  -3.152  -9.883  0.00  0.00     0.245 C 
ATOM      9  O   UNL d   1       3.449  -2.145 -10.591  0.00  0.00    -0.271 OA
ATOM     10  C   UNL d   1       2.421  -4.317 -10.064  0.00  0.00     0.183 C 
ATOM     11  N   UNL d   1       3.057  -5.590  -9.689  0.00  0.00    -0.374 N 
ATOM     12  H   UNL d   1       4.783  -2.420  -8.524  0.00  0.00     0.169 HD
ATOM     13  H   UNL d   1       3.109  -6.372 -10.327  0.00  0.00     0.160 HD
ENDROOT
BRANCH   1  14
ATOM     14  C   UNL d   1       5.344  -5.408  -4.474  0.00  0.00     0.254 C 
ATOM     15  N   UNL d   1       4.898  -4.471  -3.539  0.00  0.00    -0.345 N 
ATOM     16  C   UNL d   1       5.514  -4.396  -2.193  0.00  0.00     0.146 C 
ATOM     17  C   UNL d   1       3.765  -3.546  -3.710  0.00  0.00     0.146 C 
ATOM     18  C   UNL d   1       5.932  -2.938  -1.857  0.00  0.00     0.148 C 
ATOM     19  N   UNL d   1       4.784  -2.035  -2.046  0.00  0.00    -0.325 N 
ATOM     20  C   UNL d   1       4.408  -1.095  -1.103  0.00  0.00     0.362 C 
ATOM     21  C   UNL d   1       4.194  -2.109  -3.382  0.00  0.00     0.148 C 
ATOM     22  O   UNL d   1       5.196  -0.589  -0.300  0.00  0.00    -0.238 OA
ATOM     23  O   UNL d   1       6.238  -6.219  -4.240  0.00  0.00    -0.267 OA
BRANCH  20  24
ATOM     24  O   UNL d   1       3.058  -0.851  -1.086  0.00  0.00    -0.304 OA
BRANCH  24  25
ATOM     25  C   UNL d   1       2.586   0.031  -0.036  0.00  0.00     0.176 C 
ATOM     26  C   UNL d   1       1.059   0.047   0.013  0.00  0.00     0.034 C 
ENDBRANCH  24  25
ENDBRANCH  20  24
ENDBRANCH   1  14
BRANCH  10  27
ATOM     27  C   UNL d   1       1.116  -4.175  -9.191  0.00  0.00     0.109 C 
BRANCH  27  28
ATOM     28  S   UNL d   1       1.123  -2.684  -8.143  0.00  0.00    -0.162 SA
BRANCH  28  29
ATOM     29  C   UNL d   1      -0.586  -2.278  -7.766  0.00  0.00     0.112 C 
BRANCH  29  30
ATOM     30  C   UNL d   1      -0.989  -0.805  -7.905  0.00  0.00    -0.043 A 
ATOM     31  C   UNL d   1      -2.143  -0.404  -7.189  0.00  0.00     0.008 A 
ATOM     32  C   UNL d   1      -2.628   0.908  -7.246  0.00  0.00     0.001 A 
ATOM     33  C   UNL d   1      -1.976   1.859  -8.019  0.00  0.00     0.001 A 
ATOM     34  C   UNL d   1      -0.838   1.499  -8.726  0.00  0.00     0.007 A 
ATOM     35  C   UNL d   1      -0.339   0.183  -8.690  0.00  0.00    -0.055 A 
ATOM     36  C   UNL d   1       0.899  -0.054  -9.512  0.00  0.00     0.049 C 
ENDBRANCH  29  30
ENDBRANCH  28  29
ENDBRANCH  27  28
ENDBRANCH  10  27
TORSDOF 7
