REMARK  5 active torsions:
REMARK  status: ('A' for Active; 'I' for Inactive)
REMARK       I    between atoms: N_1  and  C_2 
REMARK    1  A    between atoms: C_2  and  C_4 
REMARK    2  A    between atoms: C_6  and  N_7 
REMARK    3  A    between atoms: N_7  and  C_8 
REMARK    4  A    between atoms: C_15  and  N_16 
REMARK       I    between atoms: N_16  and  C_17 
REMARK    5  A    between atoms: C_17  and  C_19 
ROOT
ATOM      1  C   UNL d   1       3.112  -1.095  -0.405  0.00  0.00     0.161 A 
ATOM      2  N   UNL d   1       2.782  -1.940  -1.451  0.00  0.00    -0.216 NA
ATOM      3  C   UNL d   1       3.604  -2.955  -1.543  0.00  0.00     0.174 A 
ATOM      4  S   UNL d   1       4.801  -2.982  -0.272  0.00  0.00    -0.032 SA
ATOM      5  C   UNL d   1       4.147  -1.538   0.408  0.00  0.00     0.115 A 
ENDROOT
BRANCH   5   6
ATOM      6  N   UNL d   1       4.722  -1.045   1.592  0.00  0.00    -0.315 N 
ATOM      7  C   UNL d   1       4.070  -0.055   2.326  0.00  0.00     0.262 C 
ATOM      8  O   UNL d   1       2.891   0.253   2.143  0.00  0.00    -0.267 OA
ATOM      9  H   UNL d   1       5.573  -1.472   1.940  0.00  0.00     0.170 HD
BRANCH   7  10
ATOM     10  C   UNL d   1       4.728   0.682   3.422  0.00  0.00     0.109 A 
ATOM     11  C   UNL d   1       3.905   1.392   4.317  0.00  0.00     0.135 A 
ATOM     12  F   UNL d   1       2.572   1.236   4.324  0.00  0.00    -0.205 F 
ATOM     13  C   UNL d   1       4.427   2.275   5.256  0.00  0.00     0.043 A 
ATOM     14  C   UNL d   1       5.803   2.406   5.376  0.00  0.00     0.006 A 
ATOM     15  C   UNL d   1       6.641   1.691   4.514  0.00  0.00     0.043 A 
ATOM     16  C   UNL d   1       6.103   0.846   3.533  0.00  0.00     0.135 A 
ATOM     17  F   UNL d   1       6.943   0.220   2.698  0.00  0.00    -0.205 F 
ENDBRANCH   7  10
ENDBRANCH   5   6
BRANCH   1  18
ATOM     18  C   UNL d   1       2.390   0.164  -0.292  0.00  0.00     0.271 C 
ATOM     19  N   UNL d   1       1.036   0.030  -0.128  0.00  0.00    -0.365 N 
ATOM     20  H   UNL d   1       0.556   0.828   0.261  0.00  0.00     0.159 HD
ATOM     21  H   UNL d   1       0.592  -0.876  -0.121  0.00  0.00     0.159 HD
ATOM     22  O   UNL d   1       2.938   1.262  -0.343  0.00  0.00    -0.266 OA
ENDBRANCH   1  18
BRANCH   3  23
ATOM     23  N   UNL d   1       3.485  -3.906  -2.511  0.00  0.00    -0.335 N 
ATOM     24  H   UNL d   1       4.128  -4.684  -2.574  0.00  0.00     0.168 HD
BRANCH  23  25
ATOM     25  C   UNL d   1       2.608  -3.776  -3.618  0.00  0.00     0.034 A 
ATOM     26  C   UNL d   1       1.688  -4.790  -3.922  0.00  0.00     0.029 A 
ATOM     27  C   UNL d   1       0.820  -4.674  -5.020  0.00  0.00     0.002 A 
ATOM     28  C   UNL d   1       0.834  -3.525  -5.808  0.00  0.00     0.000 A 
ATOM     29  C   UNL d   1       1.745  -2.512  -5.525  0.00  0.00     0.002 A 
ATOM     30  C   UNL d   1       2.629  -2.643  -4.446  0.00  0.00     0.029 A 
ENDBRANCH  23  25
ENDBRANCH   3  23
TORSDOF 5
