@<TRIPOS>MOLECULE
*****
 38 40 0 0 0
SMALL
GASTEIGER

@<TRIPOS>ATOM
      1 C           3.2545    0.0381   -1.4687 C.3     1  UNL1       -0.0296
      2 C           2.5996    0.0389   -0.0954 C.3     1  UNL1        0.1743
      3 N           2.9342    1.3230    0.5318 N.2     1  UNL1       -0.1362
      4 N           3.7220    1.3262    1.5740 N.2     1  UNL1       -0.1603
      5 C           4.2060    0.0190    2.2248 C.2     1  UNL1        0.4137
      6 N           5.0144    0.1497    3.3151 N.pl3   1  UNL1       -0.1448
      7 N           5.4081    1.3602    3.9263 N.am    1  UNL1       -0.1834
      8 C           6.2282    1.1901    5.0334 C.2     1  UNL1        0.2614
      9 O           6.5002    0.0346    5.3550 O.2     1  UNL1       -0.2712
     10 C           6.6881    2.5096    5.6985 C.3     1  UNL1        0.1238
     11 N           7.4976    2.3517    6.8935 N.ar    1  UNL1       -0.2200
     12 N           7.6460    1.0804    7.3651 N.ar    1  UNL1       -0.1756
     13 C           8.3761    0.8568    8.4019 C.ar    1  UNL1        0.0559
     14 C           9.0510    1.9073    9.1295 C.ar    1  UNL1        0.0071
     15 C           9.9153    1.5842   10.1665 C.ar    1  UNL1       -0.0524
     16 C          10.7193    2.5930   10.6805 C.ar    1  UNL1       -0.0611
     17 C          10.4745    3.9269   10.3381 C.ar    1  UNL1       -0.0610
     18 C           9.5151    4.2478    9.3766 C.ar    1  UNL1       -0.0487
     19 C           8.8677    3.2166    8.7045 C.ar    1  UNL1        0.0495
     20 C           8.0421    3.4753    7.5095 C.ar    1  UNL1        0.2754
     21 O           7.8880    4.6200    7.0884 O.2     1  UNL1       -0.2655
     22 N           3.8555   -1.1309    1.7569 N.am    1  UNL1       -0.0009
     23 C           3.0454   -1.2094    0.6546 C.2     1  UNL1        0.3364
     24 O           2.7024   -2.3086    0.2095 O.2     1  UNL1       -0.2516
     25 H           3.0078    0.9476   -2.0256 H       1  UNL1        0.0256
     26 H           2.9394   -0.8295   -2.0552 H       1  UNL1        0.0256
     27 H           4.3456   -0.0055   -1.3680 H       1  UNL1        0.0256
     28 H           1.5075    0.0008   -0.1812 H       1  UNL1        0.0686
     29 H           4.0263    2.1862    2.0146 H       1  UNL1        0.2915
     30 H           5.3416   -0.7025    3.8025 H       1  UNL1        0.2734
     31 H           5.2017    2.2885    3.5906 H       1  UNL1        0.1891
     32 H           5.8082    3.1050    5.9754 H       1  UNL1        0.0607
     33 H           7.2573    3.1018    4.9684 H       1  UNL1        0.0607
     34 H           8.5042   -0.1880    8.7282 H       1  UNL1        0.0853
     35 H           9.9975    0.5670   10.5392 H       1  UNL1        0.0624
     36 H          11.5445    2.3399   11.3414 H       1  UNL1        0.0618
     37 H          11.0437    4.7196   10.8164 H       1  UNL1        0.0618
     38 H           9.3143    5.2852    9.1220 H       1  UNL1        0.0625
@<TRIPOS>UNITY_ATOM_ATTR
4 1
charge 1
@<TRIPOS>BOND
     1     2     3    1
     2     3     4    2
     3     4     5    1
     4     5     6    1
     5     6     7    1
     6     7     8   am
     7     8     9    2
     8     8    10    1
     9    10    11    1
    10    11    12   ar
    11    12    13   ar
    12    13    14   ar
    13    14    15   ar
    14    15    16   ar
    15    16    17   ar
    16    17    18   ar
    17    18    19   ar
    18    14    19   ar
    19    19    20   ar
    20    11    20   ar
    21    20    21    2
    22     5    22    2
    23    22    23    1
    24     2    23    1
    25    23    24    2
    26     2     1    1
    27     1    25    1
    28     1    26    1
    29     1    27    1
    30     2    28    1
    31     4    29    1
    32     6    30    1
    33     7    31    1
    34    10    32    1
    35    10    33    1
    36    13    34    1
    37    15    35    1
    38    16    36    1
    39    17    37    1
    40    18    38    1
