REMARK  3 active torsions:
REMARK  status: ('A' for Active; 'I' for Inactive)
REMARK    1  A    between atoms: C_3  and  C_4 
REMARK       I    between atoms: C_4  and  N_6 
REMARK    2  A    between atoms: N_6  and  N_7 
REMARK       I    between atoms: N_7  and  C_8 
REMARK    3  A    between atoms: C_8  and  C_10 
ROOT
ATOM      1  C   UNL d   1       2.745   2.546   0.043  0.00  0.00     0.294 C 
ATOM      2  O   UNL d   1       3.585   3.455   0.038  0.00  0.00    -0.264 OA
ATOM      3  N   UNL d   1       1.384   2.868   0.043  0.00  0.00    -0.261 N 
ATOM      4  H   UNL d   1       0.647   2.188   0.064  0.00  0.00     0.190 HD
ENDROOT
BRANCH   1   5
ATOM      5  C   UNL d   1       3.089   1.101   0.048  0.00  0.00     0.152 A 
ATOM      6  C   UNL d   1       2.317  -0.061   0.048  0.00  0.00    -0.009 A 
ATOM      7  C   UNL d   1       0.852  -0.276   0.046  0.00  0.00     0.052 C 
ATOM      8  C   UNL d   1       3.214  -1.174   0.048  0.00  0.00     0.007 A 
ATOM      9  C   UNL d   1       3.006  -2.569   0.048  0.00  0.00     0.015 A 
ATOM     10  C   UNL d   1       4.506  -0.671   0.047  0.00  0.00     0.093 A 
ATOM     11  C   UNL d   1       4.097  -3.430   0.045  0.00  0.00     0.002 A 
ATOM     12  C   UNL d   1       5.387  -2.911   0.046  0.00  0.00     0.009 A 
ATOM     13  C   UNL d   1       5.642  -1.513   0.046  0.00  0.00    -0.027 A 
ATOM     14  C   UNL d   1       7.077  -1.075   0.043  0.00  0.00     0.051 C 
ATOM     15  O   UNL d   1       4.436   0.710   0.047  0.00  0.00    -0.303 OA
ENDBRANCH   1   5
BRANCH   3  16
ATOM     16  N   UNL d   1       0.864   4.178  -0.010  0.00  0.00    -0.263 N 
ATOM     17  C   UNL d   1      -0.527   4.312   0.044  0.00  0.00     0.270 C 
ATOM     18  O   UNL d   1      -1.292   3.350   0.104  0.00  0.00    -0.266 OA
ATOM     19  H   UNL d   1       1.520   4.949   0.072  0.00  0.00     0.190 HD
BRANCH  17  20
ATOM     20  C   UNL d   1      -1.057   5.701   0.068  0.00  0.00     0.033 C 
ATOM     21  C   UNL d   1      -2.047   6.063   0.991  0.00  0.00     0.017 C 
ATOM     22  C   UNL d   1      -2.362   7.413   1.168  0.00  0.00     0.001 C 
ATOM     23  C   UNL d   1      -1.892   8.360   0.260  0.00  0.00     0.000 C 
ATOM     24  C   UNL d   1      -1.027   7.972  -0.762  0.00  0.00     0.001 C 
ATOM     25  C   UNL d   1      -0.549   6.661  -0.811  0.00  0.00     0.017 C 
ENDBRANCH  17  20
ENDBRANCH   3  16
TORSDOF 3
