@<TRIPOS>MOLECULE
*****
 54 57 0 0 0
SMALL
GASTEIGER

@<TRIPOS>ATOM
      1 C           0.9799   -0.0328    0.0049 C.3     1  UNL1        0.0788
      2 O           2.4034   -0.0407   -0.1497 O.3     1  UNL1       -0.4950
      3 C           3.0385    1.1410    0.1188 C.ar    1  UNL1        0.1221
      4 C           4.1954    1.4377   -0.5728 C.ar    1  UNL1       -0.0164
      5 C           4.9230    2.5882   -0.2365 C.ar    1  UNL1       -0.0147
      6 C           4.4817    3.4940    0.7611 C.ar    1  UNL1        0.1414
      7 O           5.3066    4.5880    0.8491 O.3     1  UNL1       -0.4933
      8 C           4.9361    5.6715    1.6801 C.3     1  UNL1        0.0789
      9 C           3.3166    3.1781    1.4913 C.ar    1  UNL1        0.0791
     10 N           2.8105    3.9398    2.5904 N.am    1  UNL1       -0.2818
     11 C           1.6748    3.6235    3.3541 C.2     1  UNL1        0.2276
     12 O           0.9466    2.6881    3.1769 O.2     1  UNL1       -0.2746
     13 C           1.4169    4.6261    4.4848 C.3     1  UNL1        0.0780
     14 S           0.0202    3.9962    5.4798 S.3     1  UNL1       -0.0750
     15 C          -0.1650    5.2904    6.6592 C.ar    1  UNL1        0.2116
     16 N          -1.4226    5.4266    7.1488 N.ar    1  UNL1       -0.1217
     17 N          -2.0017    6.6539    7.0721 N.ar    1  UNL1       -0.1429
     18 C          -1.1194    7.6898    6.8380 C.ar    1  UNL1        0.1374
     19 C           0.1207    7.3107    7.3388 C.ar    1  UNL1        0.1623
     20 N           0.7618    6.2635    6.7633 N.ar    1  UNL1       -0.2011
     21 N           0.4935    8.5366    7.8103 N.ar    1  UNL1       -0.3377
     22 C           0.5788    9.2063    6.6083 C.ar    1  UNL1        0.0502
     23 C           1.6453    9.9952    6.2397 C.ar    1  UNL1       -0.0374
     24 C           1.7586   10.4071    4.9407 C.ar    1  UNL1       -0.0563
     25 C           0.8336   10.0071    3.9728 C.ar    1  UNL1       -0.0440
     26 C           1.3496   10.4754    2.5528 C.3     1  UNL1       -0.0215
     27 C           2.7590    9.9087    2.1479 C.3     1  UNL1       -0.0586
     28 C           0.4227   10.2670    1.3718 C.3     1  UNL1       -0.0586
     29 C          -0.3732    9.2159    4.4156 C.ar    1  UNL1       -0.0470
     30 C          -0.4893    8.7212    5.8266 C.ar    1  UNL1        0.0293
     31 C           2.6382    2.0031    1.1283 C.ar    1  UNL1        0.0049
     32 H           0.6217   -1.0584   -0.1232 H       1  UNL1        0.0660
     33 H           0.5328    0.5907   -0.7746 H       1  UNL1        0.0660
     34 H           0.6265    0.2827    0.9924 H       1  UNL1        0.0660
     35 H           4.5257    0.7818   -1.3730 H       1  UNL1        0.0655
     36 H           5.8592    2.7742   -0.7622 H       1  UNL1        0.0656
     37 H           5.6099    6.5166    1.5172 H       1  UNL1        0.0660
     38 H           5.0621    5.3822    2.7279 H       1  UNL1        0.0660
     39 H           3.9237    6.0247    1.4511 H       1  UNL1        0.0660
     40 H           3.3178    4.7443    2.8947 H       1  UNL1        0.1549
     41 H           1.2007    5.6063    4.0455 H       1  UNL1        0.0475
     42 H           2.2947    4.6842    5.1308 H       1  UNL1        0.0475
     43 H          -0.0855    8.9809    8.5093 H       1  UNL1        0.1674
     44 H           2.4582   10.1304    6.9380 H       1  UNL1        0.0638
     45 H           2.6404   10.9986    4.6962 H       1  UNL1        0.0621
     46 H           1.5157   11.5681    2.6173 H       1  UNL1        0.0343
     47 H           2.7402    8.8175    2.0817 H       1  UNL1        0.0235
     48 H           3.5586   10.1887    2.8457 H       1  UNL1        0.0235
     49 H           3.0924   10.2889    1.1676 H       1  UNL1        0.0235
     50 H           0.2226    9.2039    1.2355 H       1  UNL1        0.0235
     51 H           0.8764   10.6429    0.4406 H       1  UNL1        0.0235
     52 H          -0.5101   10.8124    1.5193 H       1  UNL1        0.0235
     53 H          -1.1086    8.9393    3.6567 H       1  UNL1        0.0628
     54 H           1.7679    1.6970    1.6723 H       1  UNL1        0.0674
@<TRIPOS>BOND
     1     1     2    1
     2     2     3    1
     3     3     4   ar
     4     4     5   ar
     5     5     6   ar
     6     6     7    1
     7     7     8    1
     8     6     9   ar
     9     9    10    1
    10    10    11   am
    11    11    12    2
    12    11    13    1
    13    13    14    1
    14    14    15    1
    15    15    16   ar
    16    16    17   ar
    17    17    18   ar
    18    18    19   ar
    19    19    20   ar
    20    15    20   ar
    21    19    21   ar
    22    21    22   ar
    23    22    23   ar
    24    23    24   ar
    25    24    25   ar
    26    25    26    1
    27    26    27    1
    28    26    28    1
    29    25    29   ar
    30    29    30   ar
    31    22    30   ar
    32    18    30   ar
    33     9    31   ar
    34     3    31   ar
    35     1    32    1
    36     1    33    1
    37     1    34    1
    38     4    35    1
    39     5    36    1
    40     8    37    1
    41     8    38    1
    42     8    39    1
    43    10    40    1
    44    13    41    1
    45    13    42    1
    46    21    43    1
    47    23    44    1
    48    24    45    1
    49    26    46    1
    50    27    47    1
    51    27    48    1
    52    27    49    1
    53    28    50    1
    54    28    51    1
    55    28    52    1
    56    29    53    1
    57    31    54    1
