@<TRIPOS>MOLECULE
*****
 72 74 0 0 0
SMALL
GASTEIGER

@<TRIPOS>ATOM
      1 C           0.9759   -0.0082   -0.0404 C.3     1  UNL1       -0.0600
      2 C           2.5093   -0.1217   -0.1138 C.3     1  UNL1       -0.0369
      3 C           2.8552   -1.4943    0.4736 C.3     1  UNL1       -0.0600
      4 C           2.8618   -0.0841   -1.6058 C.3     1  UNL1       -0.0600
      5 C           3.1659    1.0511    0.6823 C.3     1  UNL1       -0.0389
      6 C           4.7399    1.1504    0.7528 C.3     1  UNL1       -0.0094
      7 C           5.3708   -0.0849    1.4184 C.3     1  UNL1       -0.0558
      8 C           5.3899    1.3269   -0.6334 C.3     1  UNL1       -0.0558
      9 C           5.0759    2.3975    1.5841 C.ar    1  UNL1       -0.0415
     10 C           5.5397    2.3171    2.9053 C.ar    1  UNL1       -0.0546
     11 C           5.6918    3.4675    3.6727 C.ar    1  UNL1       -0.0196
     12 C           5.4923    4.7253    3.1038 C.ar    1  UNL1        0.1212
     13 O           5.7345    5.7890    3.9215 O.3     1  UNL1       -0.4827
     14 C           5.6759    7.0982    3.3435 C.3     1  UNL1        0.1668
     15 C           6.0931    8.1348    4.4004 C.2     1  UNL1        0.2698
     16 O           6.4620    7.7923    5.5248 O.2     1  UNL1       -0.2703
     17 N           6.0059    9.4751    3.9963 N.am    1  UNL1       -0.2042
     18 N           6.3523   10.4466    4.9089 N.2     1  UNL1       -0.1876
     19 C           6.2270   11.6969    4.5899 C.2     1  UNL1        0.0529
     20 C           6.6656   12.7779    5.5198 C.ar    1  UNL1       -0.0020
     21 C           6.0808   14.0408    5.5462 C.ar    1  UNL1       -0.0529
     22 C           6.6965   15.0731    6.2759 C.ar    1  UNL1       -0.0577
     23 C           7.8662   14.8325    7.0198 C.ar    1  UNL1       -0.0192
     24 C           8.4272   13.5512    7.0189 C.ar    1  UNL1        0.1326
     25 O           9.6470   13.3474    7.7313 O.3     1  UNL1       -0.4223
     26 C          10.3248   12.1311    7.6229 C.2     1  UNL1        0.3444
     27 O          10.0151   11.1401    6.9942 O.2     1  UNL1       -0.2445
     28 C          11.5931   12.0612    8.3639 C.ar    1  UNL1        0.0598
     29 C          12.6049   11.2667    7.7890 C.ar    1  UNL1       -0.0413
     30 C          13.7241   10.9007    8.5318 C.ar    1  UNL1        0.0164
     31 C          13.8678   11.4059    9.8271 C.ar    1  UNL1        0.2732
     32 N          15.1148   11.1557   10.5606 N.pl3   1  UNL1        0.0796
     33 O          15.9897   10.4815    9.9986 O.2     1  UNL1        0.0414
     34 O          15.2322   11.6668   11.6829 O.co2   1  UNL1       -0.5760
     35 C          12.8597   12.1989   10.4062 C.ar    1  UNL1        0.0164
     36 C          11.7122   12.5223    9.6722 C.ar    1  UNL1       -0.0413
     37 C           7.8018   12.5385    6.2864 C.ar    1  UNL1       -0.0106
     38 C           5.0795    4.8193    1.7808 C.ar    1  UNL1       -0.0196
     39 C           4.8675    3.6691    1.0329 C.ar    1  UNL1       -0.0546
     40 H           0.5217   -0.8363   -0.6003 H       1  UNL1        0.0235
     41 H           0.6175    0.9249   -0.4852 H       1  UNL1        0.0235
     42 H           0.6155   -0.0714    0.9907 H       1  UNL1        0.0235
     43 H           2.2666   -2.2898    0.0120 H       1  UNL1        0.0235
     44 H           2.6872   -1.5141    1.5570 H       1  UNL1        0.0235
     45 H           3.8751   -1.7933    0.2628 H       1  UNL1        0.0235
     46 H           2.2778   -0.8113   -2.1743 H       1  UNL1        0.0235
     47 H           3.8858   -0.3816   -1.8007 H       1  UNL1        0.0235
     48 H           2.6888    0.9128   -2.0287 H       1  UNL1        0.0235
     49 H           2.7733    1.0338    1.7144 H       1  UNL1        0.0279
     50 H           2.7660    1.9960    0.2754 H       1  UNL1        0.0279
     51 H           5.3743   -0.9593    0.7788 H       1  UNL1        0.0238
     52 H           4.8575   -0.3354    2.3563 H       1  UNL1        0.0238
     53 H           6.4343    0.0682    1.6241 H       1  UNL1        0.0238
     54 H           5.4045    0.4053   -1.2062 H       1  UNL1        0.0238
     55 H           6.4454    1.5996   -0.5510 H       1  UNL1        0.0238
     56 H           4.8803    2.0896   -1.2348 H       1  UNL1        0.0238
     57 H           5.7865    1.3676    3.3745 H       1  UNL1        0.0622
     58 H           5.9592    3.3640    4.7215 H       1  UNL1        0.0654
     59 H           4.6462    7.3051    3.0305 H       1  UNL1        0.0795
     60 H           6.3626    7.1666    2.4902 H       1  UNL1        0.0795
     61 H           5.7230    9.7458    3.0622 H       1  UNL1        0.1773
     62 H           5.8439   12.0253    3.6102 H       1  UNL1        0.0851
     63 H           5.1495   14.2307    5.0209 H       1  UNL1        0.0624
     64 H           6.2748   16.0774    6.2418 H       1  UNL1        0.0619
     65 H           8.3177   15.6481    7.5818 H       1  UNL1        0.0654
     66 H          12.4948   10.8941    6.7693 H       1  UNL1        0.0628
     67 H          14.4515   10.2179    8.0964 H       1  UNL1        0.0685
     68 H          12.9448   12.5485   11.4330 H       1  UNL1        0.0685
     69 H          10.9066   13.0850   10.1365 H       1  UNL1        0.0628
     70 H           8.1827   11.5297    6.2430 H       1  UNL1        0.0661
     71 H           4.8846    5.7671    1.2979 H       1  UNL1        0.0654
     72 H           4.5253    3.7842    0.0082 H       1  UNL1        0.0622
@<TRIPOS>UNITY_ATOM_ATTR
32 1
charge 1
34 1
charge -1
@<TRIPOS>BOND
     1     1     2    1
     2     2     3    1
     3     2     4    1
     4     2     5    1
     5     5     6    1
     6     6     7    1
     7     6     8    1
     8     6     9    1
     9     9    10   ar
    10    10    11   ar
    11    11    12   ar
    12    12    13    1
    13    13    14    1
    14    14    15    1
    15    15    16    2
    16    15    17   am
    17    17    18    1
    18    18    19    2
    19    19    20    1
    20    20    21   ar
    21    21    22   ar
    22    22    23   ar
    23    23    24   ar
    24    24    25    1
    25    25    26    1
    26    26    27    2
    27    26    28    1
    28    28    29   ar
    29    29    30   ar
    30    30    31   ar
    31    31    32    1
    32    32    33    2
    33    32    34    1
    34    31    35   ar
    35    35    36   ar
    36    28    36   ar
    37    24    37   ar
    38    20    37   ar
    39    12    38   ar
    40    38    39   ar
    41     9    39   ar
    42     1    40    1
    43     1    41    1
    44     1    42    1
    45     3    43    1
    46     3    44    1
    47     3    45    1
    48     4    46    1
    49     4    47    1
    50     4    48    1
    51     5    49    1
    52     5    50    1
    53     7    51    1
    54     7    52    1
    55     7    53    1
    56     8    54    1
    57     8    55    1
    58     8    56    1
    59    10    57    1
    60    11    58    1
    61    14    59    1
    62    14    60    1
    63    17    61    1
    64    19    62    1
    65    21    63    1
    66    22    64    1
    67    23    65    1
    68    29    66    1
    69    30    67    1
    70    35    68    1
    71    36    69    1
    72    37    70    1
    73    38    71    1
    74    39    72    1
