REMARK  16 active torsions:
REMARK  status: ('A' for Active; 'I' for Inactive)
REMARK    1  A    between atoms: C_2  and  C_3 
REMARK    2  A    between atoms: C_5  and  C_6 
REMARK    3  A    between atoms: C_9  and  O_10 
REMARK    4  A    between atoms: C_12  and  O_13 
REMARK    5  A    between atoms: O_13  and  C_14 
REMARK    6  A    between atoms: C_14  and  C_15 
REMARK    7  A    between atoms: C_19  and  C_20 
REMARK       I    between atoms: C_20  and  N_22 
REMARK    8  A    between atoms: N_22  and  C_24 
REMARK    9  A    between atoms: C_24  and  C_25 
REMARK   10  A    between atoms: C_25  and  C_26 
REMARK   11  A    between atoms: C_26  and  C_27 
REMARK   12  A    between atoms: C_27  and  C_28 
REMARK   13  A    between atoms: C_28  and  C_29 
REMARK   14  A    between atoms: C_29  and  C_30 
REMARK   15  A    between atoms: C_30  and  C_31 
REMARK   16  A    between atoms: C_31  and  C_32 
REMARK       I    between atoms: C_32  and  N_33 
ROOT
ATOM      1  C   UNL d   1       0.999   2.428  -2.508  0.00  0.00     0.059 C 
ATOM      2  C   UNL d   1       0.304   1.462  -3.249  0.00  0.00     0.029 C 
ATOM      3  C   UNL d   1      -0.316   1.872  -4.378  0.00  0.00     0.005 C 
ATOM      4  C   UNL d   1      -0.188   3.204  -4.704  0.00  0.00     0.037 C 
ATOM      5  C   UNL d   1       0.409   4.156  -3.878  0.00  0.00     0.124 C 
ATOM      6  N   UNL d   1       1.026   3.743  -2.769  0.00  0.00    -0.246 NA
ENDROOT
BRANCH   5   7
ATOM      7  C   UNL d   1       0.514   5.654  -4.085  0.00  0.00     0.272 C 
ATOM      8  O   UNL d   1       1.125   6.331  -3.252  0.00  0.00    -0.266 OA
ATOM      9  N   UNL d   1      -0.072   6.284  -5.187  0.00  0.00    -0.351 N 
ATOM     10  C   UNL d   1      -0.836   5.684  -6.254  0.00  0.00     0.152 C 
BRANCH   9  11
ATOM     11  C   UNL d   1       0.097   7.736  -5.299  0.00  0.00     0.125 C 
BRANCH  11  12
ATOM     12  C   UNL d   1      -0.576   8.252  -6.563  0.00  0.00     0.020 C 
BRANCH  12  13
ATOM     13  C   UNL d   1      -0.470   9.725  -6.762  0.00  0.00     0.002 C 
BRANCH  13  14
ATOM     14  C   UNL d   1      -1.195  10.058  -8.056  0.00  0.00     0.000 C 
BRANCH  14  15
ATOM     15  C   UNL d   1      -1.104  11.544  -8.283  0.00  0.00     0.000 C 
BRANCH  15  16
ATOM     16  C   UNL d   1      -1.814  11.922  -9.568  0.00  0.00     0.000 C 
BRANCH  16  17
ATOM     17  C   UNL d   1      -1.696  13.420  -9.753  0.00  0.00     0.009 C 
BRANCH  17  18
ATOM     18  C   UNL d   1      -2.381  13.891 -11.022  0.00  0.00     0.102 C 
BRANCH  18  19
ATOM     19  C   UNL d   1      -2.285  15.384 -11.244  0.00  0.00     0.215 C 
ATOM     20  N   UNL d   1      -1.623  16.134 -10.327  0.00  0.00    -0.370 N 
ATOM     21  H   UNL d   1      -1.183  15.765  -9.495  0.00  0.00     0.159 HD
ATOM     22  H   UNL d   1      -1.563  17.131 -10.482  0.00  0.00     0.159 HD
ATOM     23  O   UNL d   1      -2.794  15.928 -12.235  0.00  0.00    -0.274 OA
ENDBRANCH  18  19
ENDBRANCH  17  18
ENDBRANCH  16  17
ENDBRANCH  15  16
ENDBRANCH  14  15
ENDBRANCH  13  14
ENDBRANCH  12  13
ENDBRANCH  11  12
ENDBRANCH   9  11
ENDBRANCH   5   7
BRANCH   1  24
ATOM     24  C   UNL d   1       1.898   1.949  -1.435  0.00  0.00     0.235 C 
BRANCH  24  25
ATOM     25  O   UNL d   1       1.946   2.784  -0.289  0.00  0.00    -0.345 OA
BRANCH  25  26
ATOM     26  C   UNL d   1       2.651   2.341   0.800  0.00  0.00     0.078 A 
ATOM     27  C   UNL d   1       2.965   3.338   1.733  0.00  0.00     0.074 A 
ATOM     28  C   UNL d   1       3.651   3.030   2.914  0.00  0.00     0.082 A 
ATOM     29  C   UNL d   1       4.051   1.715   3.188  0.00  0.00     0.043 A 
ATOM     30  C   UNL d   1       3.727   0.727   2.256  0.00  0.00     0.027 A 
ATOM     31  C   UNL d   1       2.995   1.012   1.091  0.00  0.00    -0.024 A 
BRANCH  28  32
ATOM     32  O   UNL d   1       3.890   4.079   3.765  0.00  0.00    -0.360 OA
ATOM     33  H   UNL d   1       4.376   3.736   4.549  0.00  0.00     0.217 HD
ENDBRANCH  28  32
BRANCH  29  34
ATOM     34  C   UNL d   1       4.754   1.371   4.462  0.00  0.00     0.158 C 
ATOM     35  C   UNL d   1       5.165  -0.053   4.774  0.00  0.00     0.097 C 
ATOM     36  O   UNL d   1       4.990   2.276   5.268  0.00  0.00    -0.293 OA
ENDBRANCH  29  34
BRANCH  31  37
ATOM     37  C   UNL d   1       2.503  -0.178   0.308  0.00  0.00     0.037 C 
ATOM     38  C   UNL d   1       0.970  -0.267   0.422  0.00  0.00     0.010 C 
ENDBRANCH  31  37
ENDBRANCH  25  26
ENDBRANCH  24  25
ENDBRANCH   1  24
TORSDOF 16
