REMARK  6 active torsions:
REMARK  status: ('A' for Active; 'I' for Inactive)
REMARK    1  A    between atoms: C_2  and  O_3 
REMARK    2  A    between atoms: C_2  and  C_11 
REMARK    3  A    between atoms: O_3  and  C_4 
REMARK       I    between atoms: C_11  and  N_13 
REMARK    4  A    between atoms: N_13  and  N_14 
REMARK       I    between atoms: N_14  and  C_15 
REMARK    5  A    between atoms: C_15  and  C_17 
REMARK    6  A    between atoms: C_21  and  C_22 
ROOT
ATOM      1  N   UNL d   1       4.961   3.013  -0.685  0.00  0.00    -0.263 N 
ATOM      2  C   UNL d   1       6.332   3.197  -0.743  0.00  0.00     0.273 C 
ATOM      3  O   UNL d   1       7.085   2.250  -0.545  0.00  0.00    -0.266 OA
ATOM      4  H   UNL d   1       4.286   3.730  -0.939  0.00  0.00     0.190 HD
ENDROOT
BRANCH   1   5
ATOM      5  N   UNL d   1       4.462   1.693  -0.465  0.00  0.00    -0.265 N 
ATOM      6  C   UNL d   1       3.095   1.503  -0.454  0.00  0.00     0.265 C 
ATOM      7  O   UNL d   1       2.344   2.466  -0.644  0.00  0.00    -0.269 OA
ATOM      8  H   UNL d   1       5.149   0.952  -0.337  0.00  0.00     0.190 HD
BRANCH   6   9
ATOM      9  C   UNL d   1       2.575   0.062  -0.127  0.00  0.00     0.218 C 
ATOM     10  C   UNL d   1       1.060   0.200   0.035  0.00  0.00     0.050 C 
BRANCH   9  11
ATOM     11  O   UNL d   1       2.981  -0.883  -1.145  0.00  0.00    -0.334 OA
BRANCH  11  12
ATOM     12  C   UNL d   1       2.631  -2.208  -0.995  0.00  0.00     0.108 C 
ATOM     13  C   UNL d   1       3.638  -3.167  -1.161  0.00  0.00     0.040 C 
ATOM     14  C   UNL d   1       3.344  -4.543  -1.079  0.00  0.00     0.003 C 
ATOM     15  C   UNL d   1       2.049  -4.979  -0.799  0.00  0.00     0.003 C 
ATOM     16  C   UNL d   1       1.038  -4.043  -0.677  0.00  0.00     0.045 C 
ATOM     17  C   UNL d   1       1.323  -2.692  -0.857  0.00  0.00     0.149 C 
ATOM     18  F   UNL d   1       0.254  -1.907  -1.022  0.00  0.00    -0.203 F 
ENDBRANCH  11  12
ENDBRANCH   9  11
ENDBRANCH   6   9
ENDBRANCH   1   5
BRANCH   2  19
ATOM     19  C   UNL d   1       6.799   4.547  -1.075  0.00  0.00     0.077 A 
ATOM     20  C   UNL d   1       6.341   5.745  -0.561  0.00  0.00     0.128 A 
ATOM     21  N   UNL d   1       7.087   6.736  -1.132  0.00  0.00    -0.288 N 
ATOM     22  N   UNL d   1       8.001   6.282  -1.998  0.00  0.00    -0.178 NA
ATOM     23  H   UNL d   1       7.029   7.739  -0.978  0.00  0.00     0.188 HD
ATOM     24  C   UNL d   1       7.857   4.949  -1.959  0.00  0.00     0.076 A 
BRANCH  24  25
ATOM     25  C   UNL d   1       8.704   4.087  -2.862  0.00  0.00     0.040 C 
ATOM     26  C   UNL d   1       9.641   3.168  -2.062  0.00  0.00     0.011 C 
ATOM     27  C   UNL d   1      10.351   2.137  -2.929  0.00  0.00     0.001 C 
ATOM     28  C   UNL d   1       9.370   1.359  -3.802  0.00  0.00     0.000 C 
ATOM     29  C   UNL d   1       8.551   2.302  -4.673  0.00  0.00     0.001 C 
ATOM     30  C   UNL d   1       7.792   3.307  -3.824  0.00  0.00     0.011 C 
ENDBRANCH  24  25
ENDBRANCH   2  19
TORSDOF 6
