REMARK  9 active torsions:
REMARK  status: ('A' for Active; 'I' for Inactive)
REMARK       I    between atoms: C_2  and  N_3 
REMARK       I    between atoms: C_2  and  N_12 
REMARK    1  A    between atoms: N_3  and  C_4 
REMARK    2  A    between atoms: C_4  and  C_5 
REMARK    3  A    between atoms: C_5  and  C_6 
REMARK    4  A    between atoms: C_6  and  N_7 
REMARK    5  A    between atoms: N_12  and  C_13 
REMARK    6  A    between atoms: C_15  and  C_16 
REMARK    7  A    between atoms: N_26  and  C_27 
REMARK    8  A    between atoms: C_27  and  C_28 
REMARK    9  A    between atoms: C_28  and  O_29 
ROOT
ATOM      1  C   UNL d   1       4.393   0.781  -0.750  0.00  0.00     0.130 C 
ATOM      2  C   UNL d   1       5.267  -0.274  -0.850  0.00  0.00     0.086 C 
ATOM      3  C   UNL d   1       6.564   0.267  -0.689  0.00  0.00     0.114 C 
ATOM      4  N   UNL d   1       6.508   1.606  -0.589  0.00  0.00    -0.168 NA
ATOM      5  N   UNL d   1       5.183   1.915  -0.705  0.00  0.00    -0.251 N 
ENDROOT
BRANCH   1   6
ATOM      6  N   UNL d   1       3.013   0.670  -0.744  0.00  0.00    -0.293 N 
ATOM      7  C   UNL d   1       2.223  -0.194   0.060  0.00  0.00     0.321 C 
ATOM      8  O   UNL d   1       1.030  -0.078  -0.008  0.00  0.00    -0.247 OA
ATOM      9  N   UNL d   1       2.925  -1.041   0.873  0.00  0.00    -0.343 N 
ATOM     10  H   UNL d   1       3.925  -0.978   0.926  0.00  0.00     0.164 HD
ATOM     11  H   UNL d   1       2.429   1.305  -1.279  0.00  0.00     0.172 HD
BRANCH   9  12
ATOM     12  C   UNL d   1       2.233  -1.994   1.703  0.00  0.00     0.126 C 
BRANCH  12  13
ATOM     13  C   UNL d   1       3.218  -2.874   2.460  0.00  0.00     0.040 C 
BRANCH  13  14
ATOM     14  C   UNL d   1       2.484  -3.879   3.336  0.00  0.00     0.130 C 
BRANCH  14  15
ATOM     15  N   UNL d   1       3.407  -4.762   4.060  0.00  0.00    -0.352 N 
ATOM     16  C   UNL d   1       3.298  -6.149   4.123  0.00  0.00     0.108 A 
ATOM     17  C   UNL d   1       4.308  -6.593   4.927  0.00  0.00     0.106 A 
ATOM     18  N   UNL d   1       4.999  -5.475   5.327  0.00  0.00    -0.361 N 
ATOM     19  C   UNL d   1       4.449  -4.371   4.815  0.00  0.00     0.182 A 
ATOM     20  H   UNL d   1       5.812  -5.479   5.941  0.00  0.00     0.166 HD
ENDBRANCH  14  15
ENDBRANCH  13  14
ENDBRANCH  12  13
ENDBRANCH   9  12
ENDBRANCH   1   6
BRANCH   5  21
ATOM     21  C   UNL d   1       4.755   3.307  -0.586  0.00  0.00     0.179 C 
BRANCH  21  22
ATOM     22  C   UNL d   1       3.241   3.485  -0.553  0.00  0.00     0.186 C 
BRANCH  22  23
ATOM     23  O   UNL d   1       2.819   4.825  -0.431  0.00  0.00    -0.399 OA
ATOM     24  H   UNL d   1       3.108   5.173   0.429  0.00  0.00     0.209 HD
ENDBRANCH  22  23
ENDBRANCH  21  22
ENDBRANCH   5  21
BRANCH   3  25
ATOM     25  C   UNL d   1       7.821  -0.533  -0.933  0.00  0.00     0.107 C 
ATOM     26  C   UNL d   1       8.005  -1.159  -2.149  0.00  0.00     0.050 C 
ATOM     27  C   UNL d   1       9.395  -1.361  -2.248  0.00  0.00    -0.016 C 
ATOM     28  C   UNL d   1      10.284  -1.935  -3.177  0.00  0.00     0.039 C 
ATOM     29  C   UNL d   1       9.642  -1.768  -0.940  0.00  0.00     0.082 C 
ATOM     30  C   UNL d   1       9.786  -3.186  -3.284  0.00  0.00     0.026 C 
ATOM     31  C   UNL d   1      10.240  -3.794  -2.118  0.00  0.00    -0.018 C 
ATOM     32  C   UNL d   1      10.345  -2.989  -0.839  0.00  0.00     0.034 C 
ATOM     33  O   UNL d   1       8.865  -0.975  -0.092  0.00  0.00    -0.308 OA
ENDBRANCH   3  25
TORSDOF 9
