REMARK  11 active torsions:
REMARK  status: ('A' for Active; 'I' for Inactive)
REMARK    1  A    between atoms: C_5  and  O_6 
REMARK    2  A    between atoms: O_6  and  C_7 
REMARK    3  A    between atoms: C_7  and  C_8 
REMARK    4  A    between atoms: C_8  and  N_9 
REMARK       I    between atoms: N_9  and  C_10 
REMARK       I    between atoms: C_10  and  N_12 
REMARK    5  A    between atoms: N_12  and  C_13 
REMARK    6  A    between atoms: C_14  and  C_13 
REMARK    7  A    between atoms: C_14  and  C_16 
REMARK    8  A    between atoms: C_14  and  O_15 
REMARK    9  A    between atoms: C_16  and  O_17 
REMARK   10  A    between atoms: O_17  and  C_18 
REMARK   11  A    between atoms: C_21  and  N_22 
ROOT
ATOM      1  N   UNL d   1     -10.079   9.370  -2.203  0.00  0.00    -0.341 N 
ATOM      2  C   UNL d   1      -9.766   8.049  -2.421  0.00  0.00     0.316 C 
ATOM      3  O   UNL d   1      -9.329   7.630  -3.490  0.00  0.00    -0.247 OA
ATOM      4  N   UNL d   1      -9.970   7.239  -1.335  0.00  0.00    -0.341 N 
ATOM      5  H   UNL d   1     -10.438   9.652  -1.303  0.00  0.00     0.164 HD
ATOM      6  H   UNL d   1     -10.495   7.594  -0.549  0.00  0.00     0.164 HD
ENDROOT
BRANCH   4   7
ATOM      7  C   UNL d   1      -9.777   5.789  -1.422  0.00  0.00     0.158 C 
BRANCH   7   8
ATOM      8  C   UNL d   1     -10.347   5.004  -0.223  0.00  0.00     0.160 C 
BRANCH   8   9
ATOM      9  C   UNL d   1     -11.884   4.994  -0.232  0.00  0.00     0.209 C 
BRANCH   9  10
ATOM     10  O   UNL d   1     -12.352   6.343  -0.292  0.00  0.00    -0.349 OA
BRANCH  10  11
ATOM     11  C   UNL d   1     -13.703   6.521  -0.258  0.00  0.00     0.069 A 
ATOM     12  C   UNL d   1     -14.208   7.561  -1.045  0.00  0.00     0.039 A 
ATOM     13  C   UNL d   1     -15.553   7.927  -0.952  0.00  0.00     0.039 A 
ATOM     14  C   UNL d   1     -16.405   7.193  -0.118  0.00  0.00     0.103 A 
ATOM     15  C   UNL d   1     -15.902   6.153   0.674  0.00  0.00     0.039 A 
ATOM     16  C   UNL d   1     -14.546   5.825   0.606  0.00  0.00     0.039 A 
BRANCH  14  17
ATOM     17  N   UNL d   1     -17.846   7.475  -0.112  0.00  0.00    -0.116 N 
ATOM     18  O   UNL d   1     -18.258   8.387  -0.842  0.00  0.00    -0.532 OA
ATOM     19  O   UNL d   1     -18.567   6.767   0.605  0.00  0.00    -0.532 OA
ENDBRANCH  14  17
ENDBRANCH  10  11
ENDBRANCH   9  10
ENDBRANCH   8   9
BRANCH   8  20
ATOM     20  O   UNL d   1      -9.859   3.657  -0.197  0.00  0.00    -0.392 OA
ATOM     21  H   UNL d   1     -10.144   3.202  -1.008  0.00  0.00     0.210 HD
ENDBRANCH   8  20
ENDBRANCH   7   8
ENDBRANCH   4   7
BRANCH   1  22
ATOM     22  C   UNL d   1      -9.846  10.372  -3.248  0.00  0.00     0.151 C 
BRANCH  22  23
ATOM     23  C   UNL d   1     -10.217  11.812  -2.858  0.00  0.00     0.195 C 
BRANCH  23  24
ATOM     24  O   UNL d   1      -9.944  12.722  -3.940  0.00  0.00    -0.350 OA
BRANCH  24  25
ATOM     25  C   UNL d   1     -10.244  14.047  -3.720  0.00  0.00     0.068 A 
ATOM     26  C   UNL d   1      -9.993  14.932  -4.776  0.00  0.00     0.037 A 
ATOM     27  C   UNL d   1     -10.281  16.302  -4.652  0.00  0.00     0.009 A 
ATOM     28  C   UNL d   1     -10.826  16.807  -3.468  0.00  0.00    -0.062 A 
ATOM     29  C   UNL d   1     -11.164  18.261  -3.311  0.00  0.00     0.048 C 
ATOM     30  C   UNL d   1     -11.066  15.924  -2.412  0.00  0.00     0.009 A 
ATOM     31  C   UNL d   1     -10.777  14.560  -2.537  0.00  0.00     0.037 A 
ENDBRANCH  24  25
ENDBRANCH  23  24
ENDBRANCH  22  23
ENDBRANCH   1  22
TORSDOF 11
