REMARK  7 active torsions:
REMARK  status: ('A' for Active; 'I' for Inactive)
REMARK    1  A    between atoms: C_2  and  O_5 
REMARK    2  A    between atoms: O_5  and  C_6 
REMARK       I    between atoms: C_6  and  N_8 
REMARK    3  A    between atoms: N_8  and  C_9 
REMARK    4  A    between atoms: C_9  and  C_10 
REMARK    5  A    between atoms: C_10  and  C_11 
REMARK       I    between atoms: C_11  and  N_13 
REMARK    6  A    between atoms: N_13  and  N_14 
REMARK    7  A    between atoms: N_14  and  C_15 
ROOT
ATOM      1  C   UNL d   1       8.062   0.108  -5.045  0.00  0.00     0.237 C 
ATOM      2  O   UNL d   1       8.887   0.054  -4.133  0.00  0.00    -0.272 OA
ATOM      3  N   UNL d   1       8.447   0.213  -6.388  0.00  0.00    -0.270 N 
ATOM      4  H   UNL d   1       7.797   0.024  -7.144  0.00  0.00     0.190 HD
ENDROOT
BRANCH   1   5
ATOM      5  C   UNL d   1       6.544   0.086  -4.787  0.00  0.00     0.124 C 
BRANCH   5   6
ATOM      6  C   UNL d   1       6.217   0.078  -3.283  0.00  0.00     0.134 C 
BRANCH   6   7
ATOM      7  N   UNL d   1       4.789   0.077  -2.933  0.00  0.00    -0.336 N 
ATOM      8  C   UNL d   1       4.413   0.076  -1.606  0.00  0.00     0.361 C 
ATOM      9  O   UNL d   1       5.240   0.076  -0.698  0.00  0.00    -0.238 OA
ATOM     10  H   UNL d   1       4.060   0.076  -3.633  0.00  0.00     0.164 HD
BRANCH   8  11
ATOM     11  O   UNL d   1       3.054   0.076  -1.420  0.00  0.00    -0.294 OA
BRANCH  11  12
ATOM     12  C   UNL d   1       2.538   0.076  -0.041  0.00  0.00     0.061 C 
ATOM     13  C   UNL d   1       0.991   0.076  -0.068  0.00  0.00     0.046 C 
ATOM     14  C   UNL d   1       2.971   1.342   0.714  0.00  0.00     0.046 C 
ATOM     15  C   UNL d   1       2.971  -1.191   0.713  0.00  0.00     0.046 C 
ENDBRANCH  11  12
ENDBRANCH   8  11
ENDBRANCH   6   7
ENDBRANCH   5   6
ENDBRANCH   1   5
BRANCH   3  16
ATOM     16  N   UNL d   1       9.804  -0.038  -6.678  0.00  0.00    -0.298 N 
ATOM     17  H   UNL d   1      10.461   0.000  -5.893  0.00  0.00     0.187 HD
BRANCH  16  18
ATOM     18  C   UNL d   1      10.297   0.076  -7.991  0.00  0.00     0.049 A 
ATOM     19  C   UNL d   1       9.738   0.916  -8.962  0.00  0.00     0.031 A 
ATOM     20  C   UNL d   1      10.229   0.940 -10.279  0.00  0.00     0.004 A 
ATOM     21  C   UNL d   1      11.270   0.096 -10.658  0.00  0.00     0.024 A 
ATOM     22  C   UNL d   1      11.830  -0.752  -9.710  0.00  0.00     0.036 A 
ATOM     23 CL   UNL d   1      13.091  -1.827 -10.183  0.00  0.00    -0.084 Cl
ATOM     24  C   UNL d   1      11.366  -0.750  -8.387  0.00  0.00     0.054 A 
ENDBRANCH  16  18
ENDBRANCH   3  16
TORSDOF 7
