@<TRIPOS>MOLECULE
*****
 43 45 0 0 0
SMALL
GASTEIGER

@<TRIPOS>ATOM
      1 O           0.9734   -0.0270   -0.0404 O.2     1  UNL1       -0.2705
      2 C           2.1994    0.0591   -0.0527 C.2     1  UNL1        0.2411
      3 C           2.8887    1.3117    0.3850 C.2     1  UNL1        0.0010
      4 C           2.2663    2.3916    0.8799 C.2     1  UNL1       -0.0497
      5 C           3.0173    3.6048    1.2594 C.ar    1  UNL1       -0.0245
      6 C           2.6080    4.3868    2.3483 C.ar    1  UNL1       -0.0482
      7 C           3.2236    5.6195    2.6141 C.ar    1  UNL1        0.0161
      8 C           4.3178    6.0298    1.8415 C.ar    1  UNL1        0.2732
      9 N           5.0496    7.2542    2.1906 N.pl3   1  UNL1        0.0796
     10 O           4.6476    7.9114    3.1611 O.2     1  UNL1        0.0414
     11 O           6.0433    7.5464    1.5085 O.co2   1  UNL1       -0.5760
     12 C           4.7550    5.2508    0.7680 C.ar    1  UNL1        0.0161
     13 C           4.0996    4.0517    0.4811 C.ar    1  UNL1       -0.0482
     14 N           2.9664   -0.9650   -0.5800 N.am    1  UNL1       -0.2819
     15 C           4.3618   -1.1269   -0.5286 C.ar    1  UNL1        0.0354
     16 C           5.0806   -1.7220   -1.5531 C.ar    1  UNL1       -0.0404
     17 C           6.4740   -1.8470   -1.4285 C.ar    1  UNL1       -0.0583
     18 C           7.1501   -1.3351   -0.3041 C.ar    1  UNL1       -0.0404
     19 C           6.4186   -0.7749    0.7415 C.ar    1  UNL1        0.0351
     20 N           7.0360   -0.2899    1.9177 N.am    1  UNL1       -0.2852
     21 C           6.3609    0.2955    2.9826 C.2     1  UNL1        0.2203
     22 O           5.1588    0.5360    3.0690 O.2     1  UNL1       -0.2752
     23 C           7.1537    0.6744    4.1678 C.3     1  UNL1        0.0359
     24 C           8.6432    0.8179    4.2087 C.3     1  UNL1       -0.0412
     25 C           7.7805    2.0501    4.1965 C.3     1  UNL1       -0.0412
     26 C           5.0390   -0.7356    0.6136 C.ar    1  UNL1       -0.0192
     27 H           3.9624    1.3536    0.2904 H       1  UNL1        0.0670
     28 H           1.1849    2.4152    0.9775 H       1  UNL1        0.0625
     29 H           1.8150    4.0398    3.0092 H       1  UNL1        0.0626
     30 H           2.8390    6.2438    3.4182 H       1  UNL1        0.0685
     31 H           5.5861    5.5602    0.1385 H       1  UNL1        0.0685
     32 H           4.4464    3.4684   -0.3691 H       1  UNL1        0.0626
     33 H           2.4264   -1.7218   -0.9811 H       1  UNL1        0.1551
     34 H           4.5865   -2.0397   -2.4668 H       1  UNL1        0.0636
     35 H           7.0365   -2.3446   -2.2164 H       1  UNL1        0.0619
     36 H           8.2346   -1.4020   -0.2682 H       1  UNL1        0.0636
     37 H           8.0382   -0.3987    1.9842 H       1  UNL1        0.1548
     38 H           6.6529    0.3773    5.0877 H       1  UNL1        0.0394
     39 H           9.2272    0.6072    3.3251 H       1  UNL1        0.0273
     40 H           9.1270    0.5251    5.1332 H       1  UNL1        0.0273
     41 H           7.7394    2.6478    3.2914 H       1  UNL1        0.0273
     42 H           7.6786    2.6345    5.1041 H       1  UNL1        0.0273
     43 H           4.4226   -0.4129    1.4365 H       1  UNL1        0.0655
@<TRIPOS>UNITY_ATOM_ATTR
9 1
charge 1
11 1
charge -1
@<TRIPOS>BOND
     1     1     2    2
     2     2     3    1
     3     3     4    2
     4     4     5    1
     5     5     6   ar
     6     6     7   ar
     7     7     8   ar
     8     8     9    1
     9     9    10    2
    10     9    11    1
    11     8    12   ar
    12    12    13   ar
    13     5    13   ar
    14     2    14   am
    15    14    15    1
    16    15    16   ar
    17    16    17   ar
    18    17    18   ar
    19    18    19   ar
    20    19    20    1
    21    20    21   am
    22    21    22    2
    23    21    23    1
    24    23    24    1
    25    24    25    1
    26    23    25    1
    27    19    26   ar
    28    15    26   ar
    29     3    27    1
    30     4    28    1
    31     6    29    1
    32     7    30    1
    33    12    31    1
    34    13    32    1
    35    14    33    1
    36    16    34    1
    37    17    35    1
    38    18    36    1
    39    20    37    1
    40    23    38    1
    41    24    39    1
    42    24    40    1
    43    25    41    1
    44    25    42    1
    45    26    43    1
