@<TRIPOS>MOLECULE
*****
 37 39 0 0 0
SMALL
GASTEIGER

@<TRIPOS>ATOM
      1 O           1.0311   -0.0489   -0.0436 O.2     1  UNL1       -0.2683
      2 C           2.2574    0.0335    0.0699 C.2     1  UNL1        0.2668
      3 N           2.9513    1.1705    0.4971 N.am    1  UNL1       -0.2029
      4 N           2.2538    2.2845    0.9137 N.2     1  UNL1       -0.1874
      5 C           2.9221    3.3443    1.2558 C.2     1  UNL1        0.0534
      6 C           2.2071    4.5821    1.7010 C.ar    1  UNL1        0.0022
      7 C           1.1194    4.4128    2.5689 C.ar    1  UNL1       -0.0525
      8 C           0.3510    5.5073    2.9616 C.ar    1  UNL1       -0.0606
      9 C           0.6588    6.7812    2.4896 C.ar    1  UNL1       -0.0540
     10 C           1.7684    6.9892    1.6583 C.ar    1  UNL1       -0.0173
     11 C           2.0739    8.2916    1.2239 C.ar    1  UNL1       -0.0540
     12 C           3.1692    8.5304    0.3985 C.ar    1  UNL1       -0.0612
     13 C           3.9670    7.4677   -0.0062 C.ar    1  UNL1       -0.0611
     14 C           3.6702    6.1639    0.4082 C.ar    1  UNL1       -0.0534
     15 C           2.5726    5.8845    1.2540 C.ar    1  UNL1       -0.0092
     16 C           3.0724   -1.1688   -0.2992 C.ar    1  UNL1        0.0799
     17 C           2.7161   -1.9397   -1.4261 C.ar    1  UNL1       -0.0426
     18 C           3.4395   -3.0959   -1.7707 C.ar    1  UNL1       -0.0192
     19 C           4.5019   -3.4971   -0.9683 C.ar    1  UNL1        0.1204
     20 O           5.2507   -4.6022   -1.2536 O.3     1  UNL1       -0.5066
     21 C           4.8432   -2.7702    0.1697 C.ar    1  UNL1        0.0221
     22 C           4.1368   -1.6056    0.4952 C.ar    1  UNL1        0.1325
     23 O           4.4866   -0.8934    1.6093 O.3     1  UNL1       -0.5059
     24 H           3.9626    1.1425    0.5828 H       1  UNL1        0.1776
     25 H           4.0252    3.3875    1.2192 H       1  UNL1        0.0851
     26 H           0.8647    3.4216    2.9380 H       1  UNL1        0.0624
     27 H          -0.4993    5.3667    3.6245 H       1  UNL1        0.0618
     28 H           0.0191    7.6149    2.7778 H       1  UNL1        0.0624
     29 H           1.4588    9.1375    1.5288 H       1  UNL1        0.0624
     30 H           3.3950    9.5424    0.0708 H       1  UNL1        0.0618
     31 H           4.8221    7.6498   -0.6520 H       1  UNL1        0.0618
     32 H           4.3131    5.3633    0.0537 H       1  UNL1        0.0624
     33 H           1.8697   -1.6414   -2.0440 H       1  UNL1        0.0627
     34 H           3.1565   -3.6668   -2.6521 H       1  UNL1        0.0654
     35 H           4.9358   -5.0105   -2.0779 H       1  UNL1        0.2921
     36 H           5.6614   -3.1271    0.7874 H       1  UNL1        0.0691
     37 H           5.1324   -1.4065    2.1241 H       1  UNL1        0.2922
@<TRIPOS>BOND
     1     1     2    2
     2     2     3   am
     3     3     4    1
     4     4     5    2
     5     5     6    1
     6     6     7   ar
     7     7     8   ar
     8     8     9   ar
     9     9    10   ar
    10    10    11   ar
    11    11    12   ar
    12    12    13   ar
    13    13    14   ar
    14    14    15   ar
    15     6    15   ar
    16    10    15   ar
    17     2    16    1
    18    16    17   ar
    19    17    18   ar
    20    18    19   ar
    21    19    20    1
    22    19    21   ar
    23    21    22   ar
    24    16    22   ar
    25    22    23    1
    26     3    24    1
    27     5    25    1
    28     7    26    1
    29     8    27    1
    30     9    28    1
    31    11    29    1
    32    12    30    1
    33    13    31    1
    34    14    32    1
    35    17    33    1
    36    18    34    1
    37    20    35    1
    38    21    36    1
    39    23    37    1
