@<TRIPOS>MOLECULE
*****
 45 46 0 0 0
SMALL
GASTEIGER

@<TRIPOS>ATOM
      1 C           1.1744    0.0647    0.0507 C.3     1  UNL1       -0.0135
      2 S           2.9941   -0.1071    0.0461 S.3     1  UNL1       -0.1285
      3 C           3.4108    1.0860    1.3044 C.ar    1  UNL1        0.0094
      4 C           3.7849    0.7078    2.5852 C.ar    1  UNL1       -0.0482
      5 C           3.9257    1.6806    3.5811 C.ar    1  UNL1       -0.0590
      6 C           3.7751    3.0457    3.2788 C.ar    1  UNL1       -0.0404
      7 C           3.4628    3.4393    1.9715 C.ar    1  UNL1        0.0345
      8 N           3.2555    4.8106    1.6558 N.am    1  UNL1       -0.2839
      9 C           2.8915    5.2851    0.3923 C.2     1  UNL1        0.2372
     10 O           2.6775    4.5834   -0.6010 O.2     1  UNL1       -0.2734
     11 C           2.7173    6.8153    0.2360 C.3     1  UNL1        0.0948
     12 C           4.0064    7.4937    0.6518 C.3     1  UNL1       -0.0381
     13 N           2.3881    7.0741   -1.1842 N.pl3   1  UNL1       -0.3331
     14 C           2.0824    8.2803   -1.7672 C.ar    1  UNL1        0.0284
     15 C           0.9738    8.3976   -2.6002 C.ar    1  UNL1       -0.0406
     16 C           0.6818    9.6118   -3.2272 C.ar    1  UNL1       -0.0564
     17 C           1.4264   10.7752   -2.9573 C.ar    1  UNL1       -0.0382
     18 C           0.9402   12.0541   -3.5523 C.3     1  UNL1       -0.0390
     19 C           2.5554   10.6848   -2.1323 C.ar    1  UNL1        0.0411
     20 C           3.5292   11.7846   -1.7946 C.2     1  UNL1        0.2418
     21 N           3.3898   13.0373   -2.3142 N.am    1  UNL1       -0.3253
     22 O           4.4890   11.5807   -1.0431 O.2     1  UNL1       -0.2704
     23 C           2.8552    9.4292   -1.5740 C.ar    1  UNL1       -0.0285
     24 C           3.3162    2.4406    1.0047 C.ar    1  UNL1       -0.0271
     25 H           0.7557   -0.5973   -0.7137 H       1  UNL1        0.0344
     26 H           0.8407    1.0847   -0.1700 H       1  UNL1        0.0344
     27 H           0.7704   -0.2402    1.0205 H       1  UNL1        0.0344
     28 H           3.9547   -0.3407    2.8129 H       1  UNL1        0.0629
     29 H           4.1273    1.3623    4.6020 H       1  UNL1        0.0618
     30 H           3.9088    3.7672    4.0821 H       1  UNL1        0.0636
     31 H           3.3483    5.4713    2.4192 H       1  UNL1        0.1549
     32 H           1.8722    7.1162    0.8660 H       1  UNL1        0.0591
     33 H           4.8159    7.2351   -0.0413 H       1  UNL1        0.0252
     34 H           4.3157    7.2220    1.6612 H       1  UNL1        0.0252
     35 H           3.8864    8.5746    0.6856 H       1  UNL1        0.0252
     36 H           2.1949    6.2223   -1.7192 H       1  UNL1        0.1468
     37 H           0.3157    7.5477   -2.7699 H       1  UNL1        0.0636
     38 H          -0.1458    9.6496   -3.9330 H       1  UNL1        0.0621
     39 H           0.0069   11.9328   -4.1053 H       1  UNL1        0.0278
     40 H           1.6791   12.4399   -4.2597 H       1  UNL1        0.0278
     41 H           0.7346   12.7633   -2.7420 H       1  UNL1        0.0278
     42 H           2.6490   13.3625   -2.9048 H       1  UNL1        0.1453
     43 H           4.0902   13.7246   -2.0740 H       1  UNL1        0.1453
     44 H           3.7878    9.3542   -1.0325 H       1  UNL1        0.0644
     45 H           3.1117    2.6764   -0.0288 H       1  UNL1        0.0647
@<TRIPOS>BOND
     1     1     2    1
     2     2     3    1
     3     3     4   ar
     4     4     5   ar
     5     5     6   ar
     6     6     7   ar
     7     7     8    1
     8     8     9   am
     9     9    10    2
    10     9    11    1
    11    11    12    1
    12    11    13    1
    13    13    14    1
    14    14    15   ar
    15    15    16   ar
    16    16    17   ar
    17    17    18    1
    18    17    19   ar
    19    19    20    1
    20    20    21   am
    21    20    22    2
    22    19    23   ar
    23    14    23   ar
    24     7    24   ar
    25     3    24   ar
    26     1    25    1
    27     1    26    1
    28     1    27    1
    29     4    28    1
    30     5    29    1
    31     6    30    1
    32     8    31    1
    33    11    32    1
    34    12    33    1
    35    12    34    1
    36    12    35    1
    37    13    36    1
    38    15    37    1
    39    16    38    1
    40    18    39    1
    41    18    40    1
    42    18    41    1
    43    21    42    1
    44    21    43    1
    45    23    44    1
    46    24    45    1
