REMARK  6 active torsions:
REMARK  status: ('A' for Active; 'I' for Inactive)
REMARK    1  A    between atoms: C_7  and  C_8 
REMARK       I    between atoms: C_8  and  N_10 
REMARK    2  A    between atoms: C_11  and  N_10 
REMARK    3  A    between atoms: C_11  and  C_13 
REMARK    4  A    between atoms: C_13  and  O_14 
REMARK    5  A    between atoms: C_13  and  C_15 
REMARK    6  A    between atoms: C_18  and  O_19 
ROOT
ATOM      1  C   UNL d   1       1.345  -5.816  -0.001  0.00  0.00     0.114 C 
ATOM      2  C   UNL d   1       1.477  -4.456   0.453  0.00  0.00     0.035 C 
ENDROOT
BRANCH   1   3
ATOM      3  C   UNL d   1       2.819  -6.206  -0.044  0.00  0.00     0.173 C 
BRANCH   3   4
ATOM      4  O   UNL d   1       3.564  -5.737   1.101  0.00  0.00    -0.389 OA
ATOM      5  H   UNL d   1       2.985  -5.788   1.883  0.00  0.00     0.210 HD
ENDBRANCH   3   4
BRANCH   3   6
ATOM      6  C   UNL d   1       2.814  -7.677  -0.022  0.00  0.00    -0.028 A 
ATOM      7  C   UNL d   1       2.773  -8.345  -1.242  0.00  0.00     0.012 A 
ATOM      8  C   UNL d   1       2.687  -9.720  -1.238  0.00  0.00     0.037 A 
ATOM      9  C   UNL d   1       2.630 -10.391  -0.015  0.00  0.00     0.065 A 
ATOM     10  C   UNL d   1       2.602  -9.720   1.199  0.00  0.00     0.037 A 
ATOM     11  C   UNL d   1       2.679  -8.350   1.199  0.00  0.00     0.012 A 
BRANCH   9  12
ATOM     12  O   UNL d   1       2.598 -11.748   0.045  0.00  0.00    -0.361 OA
ATOM     13  H   UNL d   1       2.687 -12.085  -0.859  0.00  0.00     0.217 HD
ENDBRANCH   9  12
ENDBRANCH   3   6
ENDBRANCH   1   3
BRANCH   1  14
ATOM     14  N   UNL d   1       0.553  -5.843  -1.263  0.00  0.00    -0.350 N 
ATOM     15  C   UNL d   1      -0.121  -4.899  -2.070  0.00  0.00     0.252 C 
ATOM     16  O   UNL d   1      -0.638  -5.366  -3.075  0.00  0.00    -0.268 OA
ATOM     17  H   UNL d   1       0.382  -6.785  -1.612  0.00  0.00     0.163 HD
BRANCH  15  18
ATOM     18  C   UNL d   1      -0.256  -3.363  -1.837  0.00  0.00     0.033 A 
ATOM     19  C   UNL d   1      -0.879  -2.555  -2.760  0.00  0.00     0.023 A 
ATOM     20  C   UNL d   1      -0.980  -1.140  -2.512  0.00  0.00    -0.061 A 
ATOM     21  C   UNL d   1      -0.441  -0.481  -1.373  0.00  0.00     0.013 A 
ATOM     22  C   UNL d   1      -1.693  -0.295  -3.504  0.00  0.00     0.048 C 
ATOM     23  C   UNL d   1       0.176  -1.238  -0.452  0.00  0.00    -0.061 A 
ATOM     24  C   UNL d   1       0.843  -0.897   0.866  0.00  0.00     0.048 C 
ATOM     25  C   UNL d   1       0.150  -2.587  -0.753  0.00  0.00     0.023 A 
ENDBRANCH  15  18
ENDBRANCH   1  14
TORSDOF 6
