REMARK  6 active torsions:
REMARK  status: ('A' for Active; 'I' for Inactive)
REMARK    1  A    between atoms: N_4  and  C_5 
REMARK    2  A    between atoms: C_7  and  N_8 
REMARK    3  A    between atoms: N_11  and  C_12 
REMARK    4  A    between atoms: C_12  and  C_13 
REMARK    5  A    between atoms: C_22  and  N_23 
REMARK    6  A    between atoms: C_24  and  N_25 
ROOT
ATOM      1  C   UNL d   1       1.887   1.378  -3.250  0.00  0.00     0.182 A 
ATOM      2  N   UNL d   1       0.644   0.903  -3.586  0.00  0.00    -0.042 NA
ATOM      3  C   UNL d   1      -0.162   1.663  -4.349  0.00  0.00     0.728 A 
ATOM      4  N   UNL d   1       0.179   2.879  -4.776  0.00  0.00    -0.043 NA
ATOM      5  C   UNL d   1       1.382   3.375  -4.422  0.00  0.00     0.177 A 
ATOM      6  C   UNL d   1       2.301   2.632  -3.692  0.00  0.00     0.195 A 
ENDROOT
BRANCH   3   7
ATOM      7  N   UNL d   1      -1.383   1.179  -4.747  0.00  0.00    -0.211 N 
ATOM      8  C   UNL d   1      -1.732   1.140  -6.167  0.00  0.00     0.169 C 
ATOM      9  C   UNL d   1      -2.175  -0.301  -6.555  0.00  0.00     0.255 C 
ATOM     10  N   UNL d   1      -3.290  -0.792  -5.625  0.00  0.00    -0.064 N 
ATOM     11  C   UNL d   1      -2.719  -0.789  -4.195  0.00  0.00     0.255 C 
ATOM     12  H   UNL d   1      -3.507  -1.769  -5.861  0.00  0.00     0.280 HD
ATOM     13  C   UNL d   1      -2.340   0.653  -3.784  0.00  0.00     0.169 C 
BRANCH  10  14
ATOM     14  C   UNL d   1      -4.579  -0.013  -5.843  0.00  0.00     0.273 C 
BRANCH  14  15
ATOM     15  C   UNL d   1      -5.742  -0.445  -4.999  0.00  0.00    -0.033 C 
ATOM     16  C   UNL d   1      -6.949  -0.836  -5.585  0.00  0.00     0.009 C 
ATOM     17  C   UNL d   1      -8.051  -1.111  -4.773  0.00  0.00     0.001 C 
ATOM     18  C   UNL d   1      -7.926  -1.133  -3.383  0.00  0.00     0.000 C 
ATOM     19  C   UNL d   1      -6.728  -0.778  -2.792  0.00  0.00     0.001 C 
ATOM     20  C   UNL d   1      -5.686  -0.357  -3.598  0.00  0.00     0.009 C 
ENDBRANCH  14  15
ENDBRANCH  10  14
ENDBRANCH   3   7
BRANCH   1  21
ATOM     21  N   UNL d   1       2.631   0.572  -2.425  0.00  0.00    -0.358 N 
ATOM     22  C   UNL d   1       3.033   0.964  -1.065  0.00  0.00     0.156 C 
ATOM     23  C   UNL d   1       2.532  -0.102  -0.069  0.00  0.00     0.136 C 
ATOM     24  C   UNL d   1       1.009  -0.067   0.047  0.00  0.00     0.041 C 
ATOM     25  O   UNL d   1       2.995  -1.423  -0.438  0.00  0.00    -0.378 OA
ATOM     26  C   UNL d   1       2.602  -1.790  -1.776  0.00  0.00     0.136 C 
ATOM     27  C   UNL d   1       3.086  -0.761  -2.816  0.00  0.00     0.156 C 
ATOM     28  C   UNL d   1       3.143  -3.175  -2.096  0.00  0.00     0.041 C 
ENDBRANCH   1  21
BRANCH   5  29
ATOM     29  N   UNL d   1       1.561   4.694  -4.781  0.00  0.00    -0.381 N 
ATOM     30  H   UNL d   1       0.842   5.164  -5.310  0.00  0.00     0.157 HD
ATOM     31  H   UNL d   1       2.472   5.137  -4.671  0.00  0.00     0.157 HD
ENDBRANCH   5  29
BRANCH   6  32
ATOM     32  N   UNL d   1       3.670   3.125  -3.505  0.00  0.00    -0.108 N 
ATOM     33  O   UNL d   1       4.529   2.392  -3.014  0.00  0.00    -0.532 OA
ATOM     34  O   UNL d   1       3.931   4.282  -3.890  0.00  0.00    -0.532 OA
ENDBRANCH   6  32
TORSDOF 6
