@<TRIPOS>MOLECULE
*****
 54 56 0 0 0
SMALL
GASTEIGER

@<TRIPOS>ATOM
      1 C           1.1079   -0.0117   -0.0718 C.3     1  UNL1        0.0820
      2 O           2.5446    0.0028   -0.0699 O.3     1  UNL1       -0.4645
      3 C           3.1063   -0.8578    0.8146 C.2     1  UNL1        0.3389
      4 O           2.4929   -1.6102    1.5700 O.2     1  UNL1       -0.2450
      5 C           4.5905   -0.8008    0.7810 C.ar    1  UNL1        0.0591
      6 C           5.3366   -1.9713    0.9609 C.ar    1  UNL1       -0.0460
      7 C           6.7356   -1.9087    1.1152 C.ar    1  UNL1       -0.0401
      8 C           7.4309   -0.6938    1.0108 C.ar    1  UNL1        0.0275
      9 N           8.8076   -0.6566    1.1532 N.pl3   1  UNL1       -0.3354
     10 C           9.6232    0.5421    0.8996 C.3     1  UNL1        0.0861
     11 C          11.1215    0.1861    0.9151 C.2     1  UNL1        0.2343
     12 O          11.4822   -0.9901    1.0098 O.2     1  UNL1       -0.2738
     13 N          12.0045    1.2657    0.8312 N.am    1  UNL1       -0.2842
     14 C          13.4102    1.0894    0.7812 C.ar    1  UNL1        0.0341
     15 C          14.2738    1.9868    1.4141 C.ar    1  UNL1       -0.0404
     16 C          15.6603    1.8171    1.3031 C.ar    1  UNL1       -0.0593
     17 C          16.1824    0.7414    0.5787 C.ar    1  UNL1       -0.0495
     18 C          15.3256   -0.1545   -0.0741 C.ar    1  UNL1        0.0388
     19 C          15.9201   -1.2433   -0.9086 C.2     1  UNL1        0.2483
     20 O          17.1446   -1.3366   -0.9569 O.2     1  UNL1       -0.2699
     21 N          15.0480   -2.0300   -1.6532 N.am    1  UNL1       -0.2815
     22 C          15.4872   -3.0374   -2.5277 C.ar    1  UNL1        0.0342
     23 C          14.8635   -3.1840   -3.7685 C.ar    1  UNL1       -0.0404
     24 C          15.2698   -4.1976   -4.6380 C.ar    1  UNL1       -0.0595
     25 C          16.3067   -5.0550   -4.2711 C.ar    1  UNL1       -0.0500
     26 C          16.9097   -4.9392   -3.0100 C.ar    1  UNL1        0.0566
     27 C          17.9556   -5.9263   -2.5717 C.3     1  UNL1        0.4175
     28 F          17.4921   -7.2077   -2.6087 F       1  UNL1       -0.1659
     29 F          19.0614   -5.9062   -3.3642 F       1  UNL1       -0.1659
     30 F          18.3983   -5.7324   -1.2986 F       1  UNL1       -0.1659
     31 C          16.4982   -3.9164   -2.1486 C.ar    1  UNL1       -0.0288
     32 C          13.9465    0.0305    0.0427 C.ar    1  UNL1       -0.0284
     33 C           6.6613    0.4635    0.8438 C.ar    1  UNL1       -0.0401
     34 C           5.2624    0.4198    0.7222 C.ar    1  UNL1       -0.0460
     35 H           0.7522    0.6717   -0.8495 H       1  UNL1        0.0661
     36 H           0.7186    0.3372    0.8909 H       1  UNL1        0.0661
     37 H           0.7225   -1.0122   -0.2988 H       1  UNL1        0.0661
     38 H           4.8344   -2.9367    0.9970 H       1  UNL1        0.0626
     39 H           7.2737   -2.8296    1.3370 H       1  UNL1        0.0636
     40 H           9.3270   -1.5357    1.1171 H       1  UNL1        0.1466
     41 H           9.4316    1.2742    1.6891 H       1  UNL1        0.0557
     42 H           9.3909    0.9744   -0.0809 H       1  UNL1        0.0557
     43 H          11.6592    2.2127    0.9372 H       1  UNL1        0.1549
     44 H          13.8968    2.7806    2.0538 H       1  UNL1        0.0636
     45 H          16.3432    2.5187    1.7795 H       1  UNL1        0.0618
     46 H          17.2626    0.6074    0.5202 H       1  UNL1        0.0625
     47 H          14.0768   -1.7732   -1.7398 H       1  UNL1        0.1551
     48 H          14.1109   -2.4737   -4.1004 H       1  UNL1        0.0636
     49 H          14.7824   -4.3196   -5.6023 H       1  UNL1        0.0618
     50 H          16.6433   -5.8222   -4.9668 H       1  UNL1        0.0623
     51 H          16.9438   -3.8321   -1.1584 H       1  UNL1        0.0642
     52 H          13.2569   -0.6278   -0.4662 H       1  UNL1        0.0644
     53 H           7.1395    1.4373    0.8315 H       1  UNL1        0.0636
     54 H           4.7115    1.3497    0.6188 H       1  UNL1        0.0626
@<TRIPOS>BOND
     1     1     2    1
     2     2     3    1
     3     3     4    2
     4     3     5    1
     5     5     6   ar
     6     6     7   ar
     7     7     8   ar
     8     8     9    1
     9     9    10    1
    10    10    11    1
    11    11    12    2
    12    11    13   am
    13    13    14    1
    14    14    15   ar
    15    15    16   ar
    16    16    17   ar
    17    17    18   ar
    18    18    19    1
    19    19    20    2
    20    19    21   am
    21    21    22    1
    22    22    23   ar
    23    23    24   ar
    24    24    25   ar
    25    25    26   ar
    26    26    27    1
    27    27    28    1
    28    27    29    1
    29    27    30    1
    30    26    31   ar
    31    22    31   ar
    32    18    32   ar
    33    14    32   ar
    34     8    33   ar
    35    33    34   ar
    36     5    34   ar
    37     1    35    1
    38     1    36    1
    39     1    37    1
    40     6    38    1
    41     7    39    1
    42     9    40    1
    43    10    41    1
    44    10    42    1
    45    13    43    1
    46    15    44    1
    47    16    45    1
    48    17    46    1
    49    21    47    1
    50    23    48    1
    51    24    49    1
    52    25    50    1
    53    31    51    1
    54    32    52    1
    55    33    53    1
    56    34    54    1
