REMARK  6 active torsions:
REMARK  status: ('A' for Active; 'I' for Inactive)
REMARK    1  A    between atoms: O_2  and  C_3 
REMARK    2  A    between atoms: C_8  and  N_9 
REMARK       I    between atoms: N_9  and  C_10 
REMARK    3  A    between atoms: C_10  and  C_12 
REMARK    4  A    between atoms: C_17  and  N_18 
REMARK    5  A    between atoms: N_18  and  S_19 
REMARK    6  A    between atoms: S_19  and  C_22 
ROOT
ATOM      1  C   UNL d   1      -0.565  -2.314  -1.133  0.00  0.00     0.059 C 
ATOM      2  C   UNL d   1      -1.244  -1.640  -2.181  0.00  0.00     0.019 C 
ATOM      3  C   UNL d   1      -2.590  -1.838  -2.465  0.00  0.00     0.001 C 
ATOM      4  C   UNL d   1      -3.308  -2.756  -1.726  0.00  0.00     0.002 C 
ATOM      5  C   UNL d   1      -2.725  -3.354  -0.611  0.00  0.00     0.031 C 
ATOM      6  C   UNL d   1      -1.373  -3.142  -0.260  0.00  0.00     0.058 C 
ENDROOT
BRANCH   6   7
ATOM      7  N   UNL d   1      -1.097  -3.753   1.044  0.00  0.00    -0.280 N 
ATOM      8  H   UNL d   1      -1.736  -4.416   1.464  0.00  0.00     0.179 HD
BRANCH   7   9
ATOM      9  S   UNL d   1       0.420  -3.694   1.609  0.00  0.00     0.263 S 
ATOM     10  O   UNL d   1       1.150  -4.556   0.667  0.00  0.00    -0.200 OA
ATOM     11  O   UNL d   1       0.609  -2.293   1.821  0.00  0.00    -0.200 OA
BRANCH   9  12
ATOM     12  C   UNL d   1       0.805  -4.424   3.099  0.00  0.00     0.082 C 
ATOM     13  C   UNL d   1       1.000  -5.756   3.402  0.00  0.00     0.028 C 
ATOM     14  C   UNL d   1       1.084  -6.127   4.808  0.00  0.00     0.041 C 
ATOM     15  C   UNL d   1       1.075  -5.096   5.816  0.00  0.00     0.102 C 
ATOM     16  C   UNL d   1       1.029  -3.873   5.255  0.00  0.00     0.103 C 
ATOM     17  O   UNL d   1       0.990  -4.891   7.219  0.00  0.00    -0.346 OA
ATOM     18  C   UNL d   1       1.196  -3.494   3.991  0.00  0.00     0.065 C 
ATOM     19  O   UNL d   1       0.019  -3.072   5.730  0.00  0.00    -0.346 OA
ATOM     20  C   UNL d   1       0.748  -2.283   6.602  0.00  0.00     0.202 C 
ATOM     21  C   UNL d   1       0.846  -3.296   7.736  0.00  0.00     0.202 C 
ENDBRANCH   9  12
ENDBRANCH   7   9
ENDBRANCH   6   7
BRANCH   1  22
ATOM     22  C   UNL d   1       0.935  -1.897  -1.182  0.00  0.00     0.258 C 
ATOM     23  N   UNL d   1       1.870  -2.637  -0.510  0.00  0.00    -0.320 N 
ATOM     24  H   UNL d   1       1.648  -3.622  -0.423  0.00  0.00     0.169 HD
ATOM     25  O   UNL d   1       1.272  -0.923  -1.858  0.00  0.00    -0.267 OA
BRANCH  23  26
ATOM     26  C   UNL d   1       2.882  -2.175   0.397  0.00  0.00     0.068 C 
ATOM     27  C   UNL d   1       3.671  -3.173   1.061  0.00  0.00     0.032 C 
ATOM     28  C   UNL d   1       4.794  -2.855   1.821  0.00  0.00     0.002 C 
ATOM     29  C   UNL d   1       5.156  -1.526   1.903  0.00  0.00     0.003 C 
ATOM     30  C   UNL d   1       4.271  -0.537   1.442  0.00  0.00     0.039 C 
ATOM     31  C   UNL d   1       3.083  -0.843   0.752  0.00  0.00     0.095 C 
BRANCH  31  32
ATOM     32  O   UNL d   1       2.330   0.243   0.400  0.00  0.00    -0.354 OA
ATOM     33  C   UNL d   1       0.914   0.304   0.615  0.00  0.00     0.210 C 
ENDBRANCH  31  32
ENDBRANCH  23  26
ENDBRANCH   1  22
TORSDOF 6
