@<TRIPOS>MOLECULE
*****
 42 43 0 0 0
SMALL
GASTEIGER

@<TRIPOS>ATOM
      1 C           7.3295    3.2020   -1.9618 C.3     1  UNL1        0.0833
      2 O           7.8334    2.4979   -0.8086 O.3     1  UNL1       -0.4527
      3 C           7.9820    1.1509   -0.9610 C.2     1  UNL1        0.4165
      4 O           7.7138    0.5374   -1.9940 O.2     1  UNL1       -0.2249
      5 N           8.4720    0.5410    0.1802 N.am    1  UNL1       -0.1984
      6 N           8.7091   -0.8581    0.1786 N.am    1  UNL1       -0.2156
      7 C           9.2047   -1.5165    1.2836 C.2     1  UNL1        0.3165
      8 O           9.4880   -0.9457    2.3351 O.2     1  UNL1       -0.2513
      9 N           9.3736   -2.8779    1.1676 N.am    1  UNL1       -0.2917
     10 C           8.8777   -3.7491    0.1015 C.3     1  UNL1        0.0470
     11 C           7.3402   -3.7088    0.1061 C.3     1  UNL1       -0.0424
     12 C           9.4012   -5.1888    0.1755 C.ar    1  UNL1       -0.0272
     13 C          10.7527   -5.4901    0.3882 C.ar    1  UNL1       -0.0565
     14 C          11.1966   -6.8267    0.4191 C.ar    1  UNL1       -0.0580
     15 C          10.3018   -7.8963    0.2423 C.ar    1  UNL1       -0.0442
     16 C           8.9612   -7.6103   -0.0212 C.ar    1  UNL1       -0.0439
     17 C           8.5376   -6.2779   -0.0502 C.ar    1  UNL1       -0.0534
     18 C           7.9113   -8.6817   -0.1733 C.3     1  UNL1       -0.0274
     19 C           8.4861  -10.0610   -0.4544 C.3     1  UNL1       -0.0488
     20 C           9.6344  -10.3311    0.5095 C.3     1  UNL1       -0.0488
     21 C          10.7779   -9.3285    0.2997 C.3     1  UNL1       -0.0274
     22 H           7.2558    4.2693   -1.7199 H       1  UNL1        0.0661
     23 H           6.3262    2.8535   -2.2310 H       1  UNL1        0.0661
     24 H           8.0092    3.1022   -2.8155 H       1  UNL1        0.0661
     25 H           8.6907    1.0607    1.0258 H       1  UNL1        0.1762
     26 H           8.4909   -1.3311   -0.6902 H       1  UNL1        0.1745
     27 H           9.7122   -3.3243    2.0128 H       1  UNL1        0.1509
     28 H           9.2430   -3.3278   -0.8421 H       1  UNL1        0.0546
     29 H           6.9435   -4.2068    1.0006 H       1  UNL1        0.0251
     30 H           6.9342   -4.2019   -0.7833 H       1  UNL1        0.0251
     31 H           6.9369   -2.6958    0.1054 H       1  UNL1        0.0251
     32 H          11.4792   -4.6924    0.5328 H       1  UNL1        0.0621
     33 H          12.2524   -7.0275    0.5955 H       1  UNL1        0.0620
     34 H           7.4801   -6.1273   -0.2467 H       1  UNL1        0.0624
     35 H           7.2087   -8.4149   -0.9718 H       1  UNL1        0.0313
     36 H           7.3468   -8.7187    0.7673 H       1  UNL1        0.0313
     37 H           8.8329  -10.1284   -1.4931 H       1  UNL1        0.0268
     38 H           7.6946  -10.8096   -0.3303 H       1  UNL1        0.0268
     39 H           9.9981  -11.3560    0.3836 H       1  UNL1        0.0268
     40 H           9.2583  -10.2469    1.5378 H       1  UNL1        0.0268
     41 H          11.2987   -9.5601   -0.6375 H       1  UNL1        0.0313
     42 H          11.4950   -9.4440    1.1205 H       1  UNL1        0.0313
@<TRIPOS>BOND
     1     1     2    1
     2     2     3    1
     3     3     4    2
     4     3     5   am
     5     5     6    1
     6     6     7   am
     7     7     8    2
     8     7     9   am
     9    10    12    1
    10    12    13   ar
    11    13    14   ar
    12    14    15   ar
    13    15    16   ar
    14    16    17   ar
    15    12    17   ar
    16    16    18    1
    17    18    19    1
    18    19    20    1
    19    20    21    1
    20    15    21    1
    21    10    11    1
    22    10     9    1
    23     1    22    1
    24     1    23    1
    25     1    24    1
    26     5    25    1
    27     6    26    1
    28     9    27    1
    29    10    28    1
    30    11    29    1
    31    11    30    1
    32    11    31    1
    33    13    32    1
    34    14    33    1
    35    17    34    1
    36    18    35    1
    37    18    36    1
    38    19    37    1
    39    19    38    1
    40    20    39    1
    41    20    40    1
    42    21    41    1
    43    21    42    1
