@<TRIPOS>MOLECULE
*****
 67 70 0 0 0
SMALL
GASTEIGER

@<TRIPOS>ATOM
      1 C           1.1800    0.0219   -0.1264 C.3     1  UNL1        0.0820
      2 O           2.6197    0.0776   -0.1654 O.3     1  UNL1       -0.4644
      3 C           3.1673    0.1145   -1.4102 C.2     1  UNL1        0.3390
      4 O           2.5394    0.0859   -2.4674 O.2     1  UNL1       -0.2450
      5 C           4.6649    0.1461   -1.3855 C.ar    1  UNL1        0.0609
      6 C           5.4487    0.8227   -2.2869 C.ar    1  UNL1       -0.0459
      7 C           6.8483    0.6049   -2.2839 C.ar    1  UNL1       -0.0381
      8 C           7.5277   -0.2761   -1.3741 C.ar    1  UNL1        0.0516
      9 N           8.9184   -0.3089   -1.4424 N.pl3   1  UNL1       -0.3183
     10 C           9.7622   -1.4933   -1.5794 C.3     1  UNL1        0.0525
     11 C          10.5920   -1.7229   -0.2867 C.3     1  UNL1       -0.0154
     12 N          11.3637   -0.4687    0.1543 N.4     1  UNL1        0.2407
     13 C          12.0101   -0.6807    1.5359 C.3     1  UNL1       -0.0058
     14 C          12.9215    0.4243    2.0130 C.ar    1  UNL1       -0.0029
     15 C          14.2512    0.1990    2.3985 C.ar    1  UNL1       -0.0535
     16 C          15.0039    1.2416    2.9611 C.ar    1  UNL1       -0.0613
     17 C          14.4918    2.5375    3.0223 C.ar    1  UNL1       -0.0617
     18 C          13.1921    2.7787    2.6197 C.ar    1  UNL1       -0.0613
     19 C          12.4059    1.7154    2.2028 C.ar    1  UNL1       -0.0535
     20 C          10.4669    0.7957    0.0738 C.3     1  UNL1       -0.0154
     21 C           9.6930    0.9206   -1.2482 C.3     1  UNL1        0.0525
     22 C           6.7002   -0.9950   -0.4636 C.ar    1  UNL1        0.0547
     23 N           7.1851   -1.9889    0.4952 N.am    1  UNL1       -0.2951
     24 C           6.4358   -2.8049    1.3979 C.2     1  UNL1        0.1411
     25 S           4.7582   -2.8067    1.5867 S.2     1  UNL1       -0.0182
     26 N           7.2093   -3.6769    2.2024 N.am    1  UNL1       -0.2636
     27 C           6.6110   -4.5545    3.1330 C.2     1  UNL1        0.2495
     28 O           5.4193   -4.6057    3.4322 O.2     1  UNL1       -0.2698
     29 C           7.3675   -5.5016    3.9450 C.ar    1  UNL1        0.0373
     30 C           6.6766   -6.6831    4.2932 C.ar    1  UNL1       -0.0496
     31 C           7.0873   -7.4490    5.3717 C.ar    1  UNL1       -0.0608
     32 C           8.2404   -7.0840    6.0532 C.ar    1  UNL1       -0.0588
     33 C           8.9428   -5.9175    5.7029 C.ar    1  UNL1       -0.0497
     34 C          10.1206   -5.4793    6.5141 C.3     1  UNL1       -0.0397
     35 C           8.4978   -5.1118    4.6463 C.ar    1  UNL1       -0.0467
     36 C           5.3223   -0.6988   -0.5101 C.ar    1  UNL1       -0.0247
     37 H           0.8453    0.0434    0.9180 H       1  UNL1        0.0661
     38 H           0.8049   -0.9031   -0.5790 H       1  UNL1        0.0661
     39 H           0.7546    0.8944   -0.6317 H       1  UNL1        0.0661
     40 H           4.9765    1.5037   -2.9889 H       1  UNL1        0.0626
     41 H           7.4127    1.1073   -3.0703 H       1  UNL1        0.0637
     42 H          10.4783   -1.3084   -2.3954 H       1  UNL1        0.0516
     43 H           9.1802   -2.3699   -1.8720 H       1  UNL1        0.0516
     44 H          11.3105   -2.5366   -0.4254 H       1  UNL1        0.0830
     45 H           9.9579   -1.9716    0.5633 H       1  UNL1        0.0830
     46 H          12.1463   -0.3296   -0.4968 H       1  UNL1        0.2038
     47 H          12.5575   -1.6321    1.4793 H       1  UNL1        0.0867
     48 H          11.1959   -0.8140    2.2598 H       1  UNL1        0.0867
     49 H          14.7211   -0.7811    2.3190 H       1  UNL1        0.0622
     50 H          15.9923    1.0497    3.3759 H       1  UNL1        0.0618
     51 H          15.0887    3.3558    3.4169 H       1  UNL1        0.0618
     52 H          12.7601    3.7744    2.6798 H       1  UNL1        0.0618
     53 H          11.3563    1.9378    2.0623 H       1  UNL1        0.0622
     54 H          11.1244    1.6626    0.1139 H       1  UNL1        0.0830
     55 H           9.7781    0.7517    0.9259 H       1  UNL1        0.0830
     56 H          10.4285    1.0438   -2.0563 H       1  UNL1        0.0516
     57 H           9.0860    1.8341   -1.2368 H       1  UNL1        0.0516
     58 H           8.1589   -2.1776    0.4002 H       1  UNL1        0.1539
     59 H           8.2042   -3.7576    2.0748 H       1  UNL1        0.1568
     60 H           5.7472   -6.9459    3.7832 H       1  UNL1        0.0625
     61 H           6.4819   -8.2881    5.7068 H       1  UNL1        0.0618
     62 H           8.5699   -7.7033    6.8847 H       1  UNL1        0.0620
     63 H          10.3503   -6.2012    7.3029 H       1  UNL1        0.0278
     64 H           9.9072   -4.5146    6.9854 H       1  UNL1        0.0278
     65 H          10.9941   -5.3862    5.8635 H       1  UNL1        0.0278
     66 H           8.9668   -4.1528    4.4589 H       1  UNL1        0.0628
     67 H           4.6096   -1.1355    0.1411 H       1  UNL1        0.0645
@<TRIPOS>UNITY_ATOM_ATTR
12 1
charge 1
@<TRIPOS>BOND
     1     1     2    1
     2     2     3    1
     3     3     4    2
     4     3     5    1
     5     5     6   ar
     6     6     7   ar
     7     7     8   ar
     8     8     9    1
     9     9    10    1
    10    10    11    1
    11    11    12    1
    12    12    13    1
    13    13    14    1
    14    14    15   ar
    15    15    16   ar
    16    16    17   ar
    17    17    18   ar
    18    18    19   ar
    19    14    19   ar
    20    12    20    1
    21    20    21    1
    22     9    21    1
    23     8    22   ar
    24    22    23    1
    25    23    24    1
    26    24    25    2
    27    24    26    1
    28    26    27   am
    29    27    28    2
    30    27    29    1
    31    29    30   ar
    32    30    31   ar
    33    31    32   ar
    34    32    33   ar
    35    33    34    1
    36    33    35   ar
    37    29    35   ar
    38    22    36   ar
    39     5    36   ar
    40     1    37    1
    41     1    38    1
    42     1    39    1
    43     6    40    1
    44     7    41    1
    45    10    42    1
    46    10    43    1
    47    11    44    1
    48    11    45    1
    49    12    46    1
    50    13    47    1
    51    13    48    1
    52    15    49    1
    53    16    50    1
    54    17    51    1
    55    18    52    1
    56    19    53    1
    57    20    54    1
    58    20    55    1
    59    21    56    1
    60    21    57    1
    61    23    58    1
    62    26    59    1
    63    30    60    1
    64    31    61    1
    65    32    62    1
    66    34    63    1
    67    34    64    1
    68    34    65    1
    69    35    66    1
    70    36    67    1
