@<TRIPOS>MOLECULE
*****
 63 66 0 0 0
SMALL
GASTEIGER

@<TRIPOS>ATOM
      1 O           0.9595    0.1164   -0.0012 O.2     1  UNL1        0.0416
      2 N           2.1936    0.1257   -0.0279 N.pl3   1  UNL1        0.0839
      3 O           2.8845    0.3168   -1.0441 O.co2   1  UNL1       -0.5759
      4 C           2.8782   -0.1865    1.1976 C.ar    1  UNL1        0.3243
      5 C           2.4581   -1.2416    2.0399 C.ar    1  UNL1        0.1096
      6 N           1.4362   -2.1219    1.6668 N.pl3   1  UNL1       -0.3363
      7 C           0.9308   -3.1487    2.5677 C.3     1  UNL1        0.0325
      8 C          -0.2979   -3.8493    1.9987 C.3     1  UNL1        0.0596
      9 O          -0.6956   -4.9019    2.8721 O.3     1  UNL1       -0.3935
     10 C           3.2061   -1.4950    3.2267 C.ar    1  UNL1       -0.0110
     11 C           4.3457   -0.7901    3.6866 C.ar    1  UNL1        0.0606
     12 N           5.0089   -1.1261    4.8604 N.pl3   1  UNL1       -0.3418
     13 C           4.5767   -2.2320    5.6898 C.3     1  UNL1        0.0140
     14 C           5.4681   -2.3876    6.9137 C.3     1  UNL1        0.0030
     15 C           4.9664   -3.5416    7.7801 C.3     1  UNL1       -0.0304
     16 N           5.8114   -3.6977    9.0270 N.4     1  UNL1        0.2371
     17 C           5.6555   -2.5007    9.9736 C.3     1  UNL1       -0.0188
     18 C           6.3841   -2.7782   11.3028 C.3     1  UNL1        0.0396
     19 N           5.8425   -3.9746   11.9651 N.3     1  UNL1       -0.2882
     20 C           4.3639   -3.9211   12.1572 C.3     1  UNL1        0.0244
     21 C           3.8348   -2.7712   12.9835 C.ar    1  UNL1       -0.0334
     22 C           4.0930   -1.4145   12.7141 C.ar    1  UNL1       -0.0573
     23 C           3.7334   -0.4146   13.6042 C.ar    1  UNL1       -0.0615
     24 C           2.9076   -0.7308   14.6660 C.ar    1  UNL1       -0.0617
     25 C           2.4585   -2.0394   14.8297 C.ar    1  UNL1       -0.0615
     26 C           2.9634   -3.0631   14.0321 C.ar    1  UNL1       -0.0573
     27 C           6.2152   -5.1227   11.1098 C.3     1  UNL1        0.0396
     28 C           5.5460   -5.0626    9.7171 C.3     1  UNL1       -0.0188
     29 C           4.7186    0.2693    2.8165 C.ar    1  UNL1        0.1617
     30 N           5.7347    1.1343    2.9397 N.ar    1  UNL1       -0.0468
     31 O           5.6581    1.9654    1.8358 O.2     1  UNL1       -0.2413
     32 N           4.5933    1.6378    1.0195 N.ar    1  UNL1       -0.0419
     33 C           3.9943    0.5785    1.5835 C.ar    1  UNL1        0.2144
     34 H           0.7640   -1.7591    0.9824 H       1  UNL1        0.1463
     35 H           0.6750   -2.7411    3.5552 H       1  UNL1        0.0484
     36 H           1.7137   -3.9018    2.7258 H       1  UNL1        0.0484
     37 H          -0.0902   -4.2640    1.0072 H       1  UNL1        0.0573
     38 H          -1.1299   -3.1441    1.9062 H       1  UNL1        0.0573
     39 H           0.0039   -5.5775    2.8554 H       1  UNL1        0.2095
     40 H           2.8732   -2.3218    3.8456 H       1  UNL1        0.0657
     41 H           5.8272   -0.5649    5.0907 H       1  UNL1        0.1461
     42 H           4.5952   -3.1650    5.1129 H       1  UNL1        0.0463
     43 H           3.5455   -2.0579    6.0244 H       1  UNL1        0.0463
     44 H           5.4612   -1.4427    7.4661 H       1  UNL1        0.0332
     45 H           6.5022   -2.5730    6.6018 H       1  UNL1        0.0332
     46 H           5.0309   -4.4879    7.2327 H       1  UNL1        0.0815
     47 H           3.9282   -3.3908    8.1021 H       1  UNL1        0.0815
     48 H           6.8024   -3.7140    8.7556 H       1  UNL1        0.2034
     49 H           4.5778   -2.3420   10.0875 H       1  UNL1        0.0827
     50 H           6.0695   -1.6104    9.4969 H       1  UNL1        0.0827
     51 H           6.3723   -1.9298   11.9902 H       1  UNL1        0.0479
     52 H           7.4584   -2.8970   11.1119 H       1  UNL1        0.0479
     53 H           4.0654   -4.8728   12.6188 H       1  UNL1        0.0476
     54 H           3.8024   -3.8897   11.2177 H       1  UNL1        0.0476
     55 H           4.6052   -1.0636   11.8309 H       1  UNL1        0.0621
     56 H           4.0910    0.6008   13.4525 H       1  UNL1        0.0618
     57 H           2.5979    0.0487   15.3532 H       1  UNL1        0.0618
     58 H           1.7280   -2.2691   15.5980 H       1  UNL1        0.0618
     59 H           2.6665   -4.0901   14.2341 H       1  UNL1        0.0621
     60 H           5.9855   -6.0640   11.6220 H       1  UNL1        0.0479
     61 H           7.3079   -5.1283   10.9778 H       1  UNL1        0.0479
     62 H           4.4609   -5.1917    9.7928 H       1  UNL1        0.0827
     63 H           5.9360   -5.8443    9.0591 H       1  UNL1        0.0827
@<TRIPOS>UNITY_ATOM_ATTR
2 1
charge 1
3 1
charge -1
16 1
charge 1
@<TRIPOS>BOND
     1     1     2    2
     2     2     3    1
     3     2     4    1
     4     4     5   ar
     5     5     6    1
     6     6     7    1
     7     7     8    1
     8     8     9    1
     9     5    10   ar
    10    10    11   ar
    11    11    12    1
    12    12    13    1
    13    13    14    1
    14    14    15    1
    15    15    16    1
    16    16    17    1
    17    17    18    1
    18    18    19    1
    19    19    20    1
    20    20    21    1
    21    21    22   ar
    22    22    23   ar
    23    23    24   ar
    24    24    25   ar
    25    25    26   ar
    26    21    26   ar
    27    19    27    1
    28    27    28    1
    29    16    28    1
    30    11    29   ar
    31    29    30   ar
    32    30    31   ar
    33    31    32   ar
    34    32    33   ar
    35     4    33   ar
    36    29    33   ar
    37     6    34    1
    38     7    35    1
    39     7    36    1
    40     8    37    1
    41     8    38    1
    42     9    39    1
    43    10    40    1
    44    12    41    1
    45    13    42    1
    46    13    43    1
    47    14    44    1
    48    14    45    1
    49    15    46    1
    50    15    47    1
    51    16    48    1
    52    17    49    1
    53    17    50    1
    54    18    51    1
    55    18    52    1
    56    20    53    1
    57    20    54    1
    58    22    55    1
    59    23    56    1
    60    24    57    1
    61    25    58    1
    62    26    59    1
    63    27    60    1
    64    27    61    1
    65    28    62    1
    66    28    63    1
