REMARK  3 active torsions:
REMARK  status: ('A' for Active; 'I' for Inactive)
REMARK       I    between atoms: C_2  and  N_3 
REMARK    1  A    between atoms: C_2  and  C_14 
REMARK    2  A    between atoms: N_3  and  N_4 
REMARK    3  A    between atoms: N_4  and  C_5 
ROOT
ATOM      1  C   UNL d   1       2.977  -3.536  -0.727  0.00  0.00     0.090 A 
ATOM      2  C   UNL d   1       4.104  -3.927   0.016  0.00  0.00     0.037 A 
ATOM      3  C   UNL d   1       4.750  -5.152  -0.230  0.00  0.00     0.048 A 
ATOM      4  C   UNL d   1       4.294  -5.989  -1.243  0.00  0.00     0.158 A 
ATOM      5  F   UNL d   1       4.901  -7.167  -1.450  0.00  0.00    -0.203 F 
ATOM      6  C   UNL d   1       3.217  -5.605  -2.026  0.00  0.00     0.195 A 
ATOM      7  F   UNL d   1       2.796  -6.407  -3.016  0.00  0.00    -0.199 F 
ATOM      8  C   UNL d   1       2.571  -4.391  -1.774  0.00  0.00     0.185 A 
ATOM      9  F   UNL d   1       1.536  -4.040  -2.554  0.00  0.00    -0.200 F 
ENDROOT
BRANCH   1  10
ATOM     10  N   UNL d   1       2.258  -2.362  -0.413  0.00  0.00    -0.295 N 
ATOM     11  H   UNL d   1       1.278  -2.293  -0.700  0.00  0.00     0.187 HD
BRANCH  10  12
ATOM     12  N   UNL d   1       2.929  -1.139  -0.237  0.00  0.00    -0.269 N 
ATOM     13  C   UNL d   1       2.180   0.027  -0.058  0.00  0.00     0.240 C 
ATOM     14  O   UNL d   1       0.951   0.084  -0.071  0.00  0.00    -0.271 OA
ATOM     15  H   UNL d   1       3.943  -1.127  -0.268  0.00  0.00     0.190 HD
BRANCH  13  16
ATOM     16  C   UNL d   1       3.011   1.241   0.211  0.00  0.00     0.080 A 
ATOM     17  C   UNL d   1       3.796   1.743  -0.993  0.00  0.00     0.015 A 
ATOM     18  C   UNL d   1       2.863   2.667  -0.287  0.00  0.00     0.015 A 
ENDBRANCH  13  16
ENDBRANCH  10  12
ENDBRANCH   1  10
TORSDOF 3
