REMARK  4 active torsions:
REMARK  status: ('A' for Active; 'I' for Inactive)
REMARK    1  A    between atoms: C_7  and  N_8 
REMARK       I    between atoms: N_8  and  C_9 
REMARK    2  A    between atoms: C_11  and  C_9 
REMARK    3  A    between atoms: C_11  and  N_13 
REMARK       I    between atoms: N_13  and  C_14 
REMARK    4  A    between atoms: C_14  and  C_16 
ROOT
ATOM      1  C   UNL d   1      -1.421   5.157   0.030  0.00  0.00     0.173 C 
ATOM      2  C   UNL d   1      -0.662   3.818  -0.045  0.00  0.00     0.042 C 
ENDROOT
BRANCH   1   3
ATOM      3  N   UNL d   1      -0.490   6.291  -0.009  0.00  0.00    -0.344 N 
ATOM      4  C   UNL d   1      -0.933   7.589  -0.114  0.00  0.00     0.252 C 
ATOM      5  O   UNL d   1      -2.126   7.893  -0.131  0.00  0.00    -0.268 OA
ATOM      6  H   UNL d   1       0.502   6.094   0.053  0.00  0.00     0.163 HD
BRANCH   4   7
ATOM      7  C   UNL d   1       0.066   8.666  -0.048  0.00  0.00     0.032 A 
ATOM      8  C   UNL d   1       1.179   8.638  -0.881  0.00  0.00     0.018 A 
ATOM      9  C   UNL d   1       2.079   9.704  -0.851  0.00  0.00     0.025 A 
ATOM     10  C   UNL d   1       1.871  10.780   0.016  0.00  0.00     0.034 A 
ATOM     11 CL   UNL d   1       2.999  12.076   0.052  0.00  0.00    -0.084 Cl
ATOM     12  C   UNL d   1       0.754  10.815   0.846  0.00  0.00     0.025 A 
ATOM     13  C   UNL d   1      -0.155   9.759   0.804  0.00  0.00     0.018 A 
ENDBRANCH   4   7
ENDBRANCH   1   3
BRANCH   1  14
ATOM     14  C   UNL d   1      -2.317   5.075   1.296  0.00  0.00     0.244 C 
ATOM     15  N   UNL d   1      -2.709   6.276   1.871  0.00  0.00    -0.325 N 
ATOM     16  H   UNL d   1      -2.485   7.123   1.361  0.00  0.00     0.169 HD
ATOM     17  O   UNL d   1      -2.714   3.963   1.650  0.00  0.00    -0.271 OA
BRANCH  15  18
ATOM     18  C   UNL d   1      -3.518   6.442   3.018  0.00  0.00     0.041 A 
ATOM     19  C   UNL d   1      -3.841   7.723   3.513  0.00  0.00    -0.035 A 
ATOM     20  C   UNL d   1      -4.640   7.824   4.668  0.00  0.00     0.009 A 
ATOM     21  C   UNL d   1      -3.353   8.999   2.889  0.00  0.00     0.050 C 
ATOM     22  C   UNL d   1      -5.122   6.685   5.315  0.00  0.00     0.007 A 
ATOM     23  C   UNL d   1      -4.813   5.427   4.821  0.00  0.00    -0.060 A 
ATOM     24  C   UNL d   1      -5.297   4.158   5.446  0.00  0.00     0.048 C 
ATOM     25  C   UNL d   1      -4.013   5.325   3.688  0.00  0.00     0.037 A 
ENDBRANCH  15  18
ENDBRANCH   1  14
TORSDOF 4
