REMARK  11 active torsions:
REMARK  status: ('A' for Active; 'I' for Inactive)
REMARK    1  A    between atoms: C_2  and  C_3 
REMARK    2  A    between atoms: C_3  and  N_4 
REMARK    3  A    between atoms: C_5  and  C_6 
REMARK    4  A    between atoms: C_6  and  N_7 
REMARK    5  A    between atoms: N_7  and  C_8 
REMARK    6  A    between atoms: C_17  and  S_18 
REMARK    7  A    between atoms: S_18  and  C_19 
REMARK    8  A    between atoms: C_19  and  C_20 
REMARK       I    between atoms: C_20  and  N_22 
REMARK    9  A    between atoms: N_22  and  N_23 
REMARK   10  A    between atoms: C_24  and  C_25 
REMARK   11  A    between atoms: C_26  and  O_27 
ROOT
ATOM      1  S   UNL d   1       4.485  -2.004  -0.535  0.00  0.00    -0.081 SA
ENDROOT
BRANCH   1   2
ATOM      2  C   UNL d   1       5.278  -0.403  -0.451  0.00  0.00     0.192 A 
ATOM      3  N   UNL d   1       6.592  -0.300  -0.309  0.00  0.00    -0.122 NA
ATOM      4  N   UNL d   1       6.968   1.049  -0.273  0.00  0.00    -0.132 NA
ATOM      5  C   UNL d   1       5.854   1.810  -0.390  0.00  0.00     0.148 A 
ATOM      6  N   UNL d   1       4.697   0.874  -0.512  0.00  0.00    -0.306 N 
BRANCH   5   7
ATOM      7  C   UNL d   1       5.809   3.445  -0.401  0.00  0.00     0.200 C 
BRANCH   7   8
ATOM      8  N   UNL d   1       4.464   4.011  -0.529  0.00  0.00    -0.383 N 
ATOM      9  H   UNL d   1       3.718   3.364  -0.609  0.00  0.00     0.160 HD
BRANCH   8  10
ATOM     10  C   UNL d   1       4.159   5.354  -0.577  0.00  0.00     0.028 A 
ATOM     11  C   UNL d   1       4.909   6.247  -1.326  0.00  0.00     0.029 A 
ATOM     12  C   UNL d   1       4.625   7.611  -1.343  0.00  0.00     0.009 A 
ATOM     13  C   UNL d   1       3.581   8.134  -0.599  0.00  0.00    -0.062 A 
ATOM     14  C   UNL d   1       3.310   9.601  -0.599  0.00  0.00     0.048 C 
ATOM     15  C   UNL d   1       2.819   7.257   0.155  0.00  0.00     0.009 A 
ATOM     16  C   UNL d   1       3.100   5.886   0.159  0.00  0.00     0.029 A 
ENDBRANCH   8  10
ENDBRANCH   7   8
ENDBRANCH   5   7
BRANCH   6  17
ATOM     17  C   UNL d   1       3.218   1.087  -0.661  0.00  0.00     0.159 C 
BRANCH  17  18
ATOM     18  C   UNL d   1       2.362   0.248   0.243  0.00  0.00    -0.017 C 
ATOM     19  C   UNL d   1       1.016   0.067   0.139  0.00  0.00     0.008 C 
ENDBRANCH  17  18
ENDBRANCH   6  17
ENDBRANCH   1   2
BRANCH   1  20
ATOM     20  C   UNL d   1       2.666  -1.910  -0.834  0.00  0.00     0.187 C 
BRANCH  20  21
ATOM     21  C   UNL d   1       1.910  -3.178  -0.817  0.00  0.00     0.247 C 
ATOM     22  O   UNL d   1       2.563  -4.204  -0.673  0.00  0.00    -0.271 OA
ATOM     23  N   UNL d   1       0.491  -3.127  -0.899  0.00  0.00    -0.247 N 
ATOM     24  H   UNL d   1      -0.052  -2.269  -0.956  0.00  0.00     0.192 HD
BRANCH  23  25
ATOM     25  N   UNL d   1      -0.180  -4.338  -0.944  0.00  0.00    -0.184 NA
ATOM     26  C   UNL d   1      -1.469  -4.417  -1.070  0.00  0.00     0.153 C 
BRANCH  26  27
ATOM     27  C   UNL d   1      -2.179  -5.742  -1.121  0.00  0.00     0.027 A 
ATOM     28  C   UNL d   1      -3.586  -5.766  -1.270  0.00  0.00     0.078 A 
ATOM     29  C   UNL d   1      -4.239  -7.000  -1.292  0.00  0.00     0.038 A 
ATOM     30  C   UNL d   1      -3.530  -8.181  -1.166  0.00  0.00     0.015 A 
ATOM     31  C   UNL d   1      -2.168  -8.167  -1.041  0.00  0.00    -0.025 A 
ATOM     32  C   UNL d   1      -1.597  -9.392  -0.956  0.00  0.00     0.009 C 
ATOM     33  C   UNL d   1      -1.383  -7.032  -0.993  0.00  0.00    -0.015 A 
ATOM     34  C   UNL d   1      -0.268  -9.322  -0.819  0.00  0.00    -0.016 C 
ATOM     35  C   UNL d   1       0.987  -9.325  -0.675  0.00  0.00     0.043 C 
ATOM     36  C   UNL d   1       0.143  -7.602  -0.801  0.00  0.00    -0.004 C 
BRANCH  28  37
ATOM     37  O   UNL d   1      -4.397  -4.667  -1.389  0.00  0.00    -0.360 OA
ATOM     38  H   UNL d   1      -3.934  -3.815  -1.372  0.00  0.00     0.217 HD
ENDBRANCH  28  37
ENDBRANCH  26  27
ENDBRANCH  23  25
ENDBRANCH  20  21
ENDBRANCH   1  20
TORSDOF 11
