@<TRIPOS>MOLECULE
*****
 41 41 0 0 0
SMALL
GASTEIGER

@<TRIPOS>ATOM
      1 C           1.0884   -0.0178   -0.1011 C.3     1  UNL1       -0.0442
      2 C           2.6290   -0.0001   -0.0917 C.3     1  UNL1        0.0265
      3 C           3.0897    1.3632   -0.6330 C.3     1  UNL1       -0.0442
      4 C           3.0881   -0.1729    1.3680 C.3     1  UNL1       -0.0442
      5 N           3.1600   -1.0852   -0.9392 N.am    1  UNL1       -0.3066
      6 C           4.5185   -1.3187   -1.0552 C.2     1  UNL1        0.2445
      7 O           5.3921   -0.6357   -0.5228 O.2     1  UNL1       -0.2702
      8 C           4.9590   -2.4783   -1.8505 C.ar    1  UNL1        0.0384
      9 C           6.0002   -3.2593   -1.3446 C.ar    1  UNL1       -0.0495
     10 C           6.5467   -4.2682   -2.1278 C.ar    1  UNL1       -0.0593
     11 C           6.0142   -4.5265   -3.3953 C.ar    1  UNL1       -0.0408
     12 C           4.9792   -3.7387   -3.9282 C.ar    1  UNL1        0.0282
     13 N           4.4907   -4.0103   -5.1895 N.pl3   1  UNL1       -0.3354
     14 C           3.5074   -3.1778   -5.8832 C.3     1  UNL1        0.0862
     15 C           3.2807   -3.7265   -7.2974 C.2     1  UNL1        0.2375
     16 O           3.9251   -4.6932   -7.7152 O.2     1  UNL1       -0.2736
     17 N           2.3240   -3.0675   -8.0538 N.am    1  UNL1       -0.2391
     18 C           1.9428   -3.3793   -9.3322 C.2     1  UNL1        0.3034
     19 N           2.5621   -4.4296   -9.9094 N.am    1  UNL1       -0.3130
     20 O           1.0790   -2.7350   -9.9213 O.2     1  UNL1       -0.2527
     21 C           4.4590   -2.7104   -3.1334 C.ar    1  UNL1       -0.0287
     22 H           0.6854    0.7926    0.5203 H       1  UNL1        0.0250
     23 H           0.6947   -0.9614    0.2934 H       1  UNL1        0.0250
     24 H           0.6895    0.1110   -1.1130 H       1  UNL1        0.0250
     25 H           2.7031    2.1850   -0.0214 H       1  UNL1        0.0250
     26 H           2.7427    1.5096   -1.6624 H       1  UNL1        0.0250
     27 H           4.1794    1.4555   -0.6440 H       1  UNL1        0.0250
     28 H           2.7009    0.6313    2.0028 H       1  UNL1        0.0250
     29 H           4.1770   -0.1570    1.4669 H       1  UNL1        0.0250
     30 H           2.7409   -1.1284    1.7777 H       1  UNL1        0.0250
     31 H           2.5106   -1.7456   -1.3499 H       1  UNL1        0.1495
     32 H           6.3917   -3.0632   -0.3486 H       1  UNL1        0.0625
     33 H           7.3953   -4.8390   -1.7588 H       1  UNL1        0.0618
     34 H           6.4332   -5.3509   -3.9698 H       1  UNL1        0.0636
     35 H           4.9587   -4.7107   -5.7660 H       1  UNL1        0.1466
     36 H           3.8618   -2.1433   -5.9595 H       1  UNL1        0.0557
     37 H           2.5598   -3.2077   -5.3357 H       1  UNL1        0.0557
     38 H           1.8242   -2.2737   -7.6784 H       1  UNL1        0.1591
     39 H           3.2771   -4.9423   -9.3972 H       1  UNL1        0.1465
     40 H           2.3328   -4.7125  -10.8500 H       1  UNL1        0.1465
     41 H           3.6927   -2.0507   -3.5219 H       1  UNL1        0.0643
@<TRIPOS>BOND
     1     1     2    1
     2     2     3    1
     3     2     4    1
     4     2     5    1
     5     5     6   am
     6     6     7    2
     7     6     8    1
     8     8     9   ar
     9     9    10   ar
    10    10    11   ar
    11    11    12   ar
    12    12    13    1
    13    13    14    1
    14    14    15    1
    15    15    16    2
    16    15    17   am
    17    17    18   am
    18    18    19   am
    19    18    20    2
    20    12    21   ar
    21     8    21   ar
    22     1    22    1
    23     1    23    1
    24     1    24    1
    25     3    25    1
    26     3    26    1
    27     3    27    1
    28     4    28    1
    29     4    29    1
    30     4    30    1
    31     5    31    1
    32     9    32    1
    33    10    33    1
    34    11    34    1
    35    13    35    1
    36    14    36    1
    37    14    37    1
    38    17    38    1
    39    19    39    1
    40    19    40    1
    41    21    41    1
