@<TRIPOS>MOLECULE
*****
 60 63 0 0 0
SMALL
GASTEIGER

@<TRIPOS>ATOM
      1 C           4.6358    5.6424   -9.8660 C.3     1  UNL1        0.0790
      2 O           4.5604    4.4895   -9.0398 O.3     1  UNL1       -0.4914
      3 C           5.3221    4.4794   -7.8949 C.ar    1  UNL1        0.1623
      4 C           6.1417    3.3068   -7.7872 C.ar    1  UNL1       -0.0023
      5 C           6.7804    3.0008   -6.5866 C.ar    1  UNL1        0.0627
      6 C           7.4833    1.6923   -6.3137 C.2     1  UNL1        0.3400
      7 O           7.5463    0.8604   -7.1896 O.2     1  UNL1       -0.2449
      8 O           8.1099    1.4322   -5.1164 O.3     1  UNL1       -0.4501
      9 C           8.2540    2.2043   -3.8997 C.3     1  UNL1        0.1625
     10 C           6.9024    2.3358   -3.1334 C.3     1  UNL1       -0.0203
     11 C           9.0588    3.5252   -4.0942 C.2     1  UNL1        0.2060
     12 O           8.7479    4.5530   -3.4977 O.2     1  UNL1       -0.2882
     13 C          10.1775    3.6051   -5.0604 C.2     1  UNL1        0.0761
     14 C          10.5150    4.7729   -5.6220 C.ar    1  UNL1        0.0583
     15 C           9.9385    6.0795   -5.6440 C.ar    1  UNL1       -0.0477
     16 C          10.5577    7.0559   -6.3180 C.ar    1  UNL1       -0.0608
     17 C          11.8623    6.8478   -6.9184 C.ar    1  UNL1       -0.0555
     18 C          12.4982    5.6586   -6.9183 C.ar    1  UNL1        0.0098
     19 C          11.8215    4.5187   -6.2574 C.ar    1  UNL1        0.2090
     20 N          12.2055    3.3087   -6.0954 N.2     1  UNL1       -0.2364
     21 C          11.1679    2.5318   -5.3566 C.3     1  UNL1        0.1730
     22 C           6.6621    3.9672   -5.6195 C.ar    1  UNL1       -0.0441
     23 C           5.9365    5.1174   -5.6812 C.ar    1  UNL1       -0.0155
     24 C           5.1976    5.3633   -6.7938 C.ar    1  UNL1        0.1626
     25 O           4.4145    6.4327   -6.4748 O.3     1  UNL1       -0.4791
     26 C           3.7429    6.9760   -7.5463 C.3     1  UNL1        0.1656
     27 C           2.9378    8.2296   -7.4271 C.2     1  UNL1        0.2548
     28 O           2.9928    8.9203   -6.4069 O.2     1  UNL1       -0.2717
     29 N           2.2143    8.5324   -8.5862 N.am    1  UNL1       -0.2827
     30 C           1.5400    9.7574   -8.6856 C.ar    1  UNL1        0.0337
     31 C           0.2685    9.8463   -9.2534 C.ar    1  UNL1       -0.0378
     32 C          -0.3677   11.0923   -9.2895 C.ar    1  UNL1       -0.0247
     33 C           0.2580   12.2103   -8.7385 C.ar    1  UNL1        0.1235
     34 F          -0.3813   13.3853   -8.7128 F       1  UNL1       -0.2055
     35 C           1.5306   12.1268   -8.2011 C.ar    1  UNL1       -0.0247
     36 C           2.1730   10.9016   -8.1904 C.ar    1  UNL1       -0.0378
     37 H           4.3061    5.4083  -10.8758 H       1  UNL1        0.0660
     38 H           5.6177    6.1248   -9.8470 H       1  UNL1        0.0660
     39 H           3.8561    6.3485   -9.6149 H       1  UNL1        0.0660
     40 H           6.2174    2.6207   -8.6320 H       1  UNL1        0.0663
     41 H           8.9066    1.6357   -3.2284 H       1  UNL1        0.0815
     42 H           6.0299    2.5568   -3.7627 H       1  UNL1        0.0270
     43 H           6.9462    3.1246   -2.3728 H       1  UNL1        0.0270
     44 H           6.6092    1.3907   -2.6772 H       1  UNL1        0.0270
     45 H           8.9993    6.2824   -5.1398 H       1  UNL1        0.0626
     46 H          10.0878    8.0346   -6.3995 H       1  UNL1        0.0618
     47 H          12.3227    7.7375   -7.3477 H       1  UNL1        0.0620
     48 H          13.4785    5.5593   -7.3696 H       1  UNL1        0.0683
     49 H          13.1153    2.9761   -6.4171 H       1  UNL1        0.4459
     50 H          11.6053    2.1055   -4.4513 H       1  UNL1        0.1081
     51 H          10.7865    1.7499   -6.0218 H       1  UNL1        0.1081
     52 H           7.0351    3.9002   -4.6441 H       1  UNL1        0.0627
     53 H           5.8819    5.7393   -4.7876 H       1  UNL1        0.0655
     54 H           3.0470    6.2057   -7.8878 H       1  UNL1        0.0795
     55 H           4.5477    7.3209   -8.2019 H       1  UNL1        0.0795
     56 H           2.0461    7.8388   -9.3106 H       1  UNL1        0.1549
     57 H          -0.2758    8.9656   -9.5857 H       1  UNL1        0.0637
     58 H          -1.3565   11.2052   -9.7229 H       1  UNL1        0.0647
     59 H           2.0227   12.9979   -7.7866 H       1  UNL1        0.0647
     60 H           3.1784   10.8432   -7.7818 H       1  UNL1        0.0637
@<TRIPOS>UNITY_ATOM_ATTR
20 1
charge 1
@<TRIPOS>BOND
     1     1     2    1
     2     2     3    1
     3     3     4   ar
     4     4     5   ar
     5     5     6    1
     6     6     7    2
     7     6     8    1
     8     9    11    1
     9    11    12    2
    10    11    13    1
    11    13    14    2
    12    14    15   ar
    13    15    16   ar
    14    16    17   ar
    15    17    18   ar
    16    18    19   ar
    17    14    19   ar
    18    19    20    2
    19    20    21    1
    20    13    21    1
    21     5    22   ar
    22    22    23   ar
    23    23    24   ar
    24     3    24   ar
    25    24    25    1
    26    25    26    1
    27    26    27    1
    28    27    28    2
    29    27    29   am
    30    29    30    1
    31    30    31   ar
    32    31    32   ar
    33    32    33   ar
    34    33    34    1
    35    33    35   ar
    36    35    36   ar
    37    30    36   ar
    38     9    10    1
    39     9     8    1
    40     1    37    1
    41     1    38    1
    42     1    39    1
    43     4    40    1
    44     9    41    1
    45    10    42    1
    46    10    43    1
    47    10    44    1
    48    15    45    1
    49    16    46    1
    50    17    47    1
    51    18    48    1
    52    20    49    1
    53    21    50    1
    54    21    51    1
    55    22    52    1
    56    23    53    1
    57    26    54    1
    58    26    55    1
    59    29    56    1
    60    31    57    1
    61    32    58    1
    62    35    59    1
    63    36    60    1
