@<TRIPOS>MOLECULE
*****
 52 54 0 0 0
SMALL
GASTEIGER

@<TRIPOS>ATOM
      1 C           1.0879   -0.0899   -0.0586 C.3     1  UNL1        0.0230
      2 C           2.5905   -0.0957   -0.0764 C.ar    1  UNL1        0.2053
      3 C           3.2875    1.0937   -0.1380 C.ar    1  UNL1        0.0105
      4 C           4.6696    1.0475   -0.1541 C.ar    1  UNL1       -0.0102
      5 C           5.3318   -0.1535   -0.3442 C.ar    1  UNL1        0.1861
      6 N           6.6959   -0.1772   -0.6191 N.pl3   1  UNL1       -0.3230
      7 C           7.5020    1.0479   -0.7353 C.3     1  UNL1        0.0262
      8 C           8.9860    0.7922   -1.0675 C.3     1  UNL1        0.0272
      9 N           9.8045    2.0263   -1.1600 N.am    1  UNL1       -0.3125
     10 C          11.1796    1.9729   -1.4536 C.2     1  UNL1        0.2302
     11 O          11.7294    0.8863   -1.6409 O.2     1  UNL1       -0.2741
     12 C          12.0288    3.3266   -1.5446 C.3     1  UNL1        0.0881
     13 N          13.6025    3.2231   -1.8824 N.am    1  UNL1       -0.3064
     14 C          14.5177    4.4902   -1.9832 C.2     1  UNL1        0.2178
     15 O          13.8540    5.5154   -1.7872 O.2     1  UNL1       -0.2755
     16 C          16.3850    4.6312   -2.3078 C.3     1  UNL1        0.0497
     17 C          17.7576    6.1288   -2.4137 C.ar    1  UNL1       -0.0309
     18 C          18.1021    4.9495   -2.6915 C.ar    1  UNL1       -0.0575
     19 C          18.4726    6.0577   -2.9963 C.ar    1  UNL1       -0.0609
     20 C          19.9574    6.0116   -3.1371 C.ar    1  UNL1       -0.0540
     21 C          20.4730    7.1600   -3.0445 C.ar    1  UNL1       -0.0176
     22 C          22.0782    7.4347   -3.3574 C.ar    1  UNL1       -0.0540
     23 C          22.8370    8.5705   -3.1846 C.ar    1  UNL1       -0.0612
     24 C          21.9484    9.5513   -2.9396 C.ar    1  UNL1       -0.0612
     25 C          20.3066    9.1292   -2.7667 C.ar    1  UNL1       -0.0538
     26 C          19.2848    7.6279   -2.6062 C.ar    1  UNL1       -0.0142
     27 N           4.6252   -1.2997   -0.2513 N.ar    1  UNL1        0.0159
     28 N           3.2968   -1.2431   -0.0185 N.ar    1  UNL1       -0.1009
     29 H           0.6935    0.9353   -0.1299 H       1  UNL1        0.0337
     30 H           0.6963   -0.5250    0.8634 H       1  UNL1        0.0337
     31 H           0.6939   -0.6387   -0.9190 H       1  UNL1        0.0337
     32 H           2.7604    2.0434   -0.1650 H       1  UNL1        0.0681
     33 H           5.2162    1.9749   -0.0412 H       1  UNL1        0.0656
     34 H           7.1577   -1.0652   -0.7996 H       1  UNL1        0.1477
     35 H           7.4566    1.5888    0.2168 H       1  UNL1        0.0477
     36 H           7.0827    1.6954   -1.5155 H       1  UNL1        0.0477
     37 H           9.0544    0.2583   -2.0225 H       1  UNL1        0.0477
     38 H           9.4197    0.1454   -0.2961 H       1  UNL1        0.0477
     39 H           9.3344    2.9110   -1.0025 H       1  UNL1        0.1488
     40 H          11.9158    3.8280   -0.5752 H       1  UNL1        0.0558
     41 H          11.5483    3.9419   -2.3151 H       1  UNL1        0.0558
     42 H          13.8044    2.2191   -1.9913 H       1  UNL1        0.1492
     43 H          16.2450    3.8985   -3.2685 H       1  UNL1        0.0407
     44 H          16.5981    3.7687   -1.5815 H       1  UNL1        0.0407
     45 H          18.6805    4.0879   -2.9070 H       1  UNL1        0.0621
     46 H          17.7068    7.5364   -2.7421 H       1  UNL1        0.0618
     47 H          20.6328    5.1887   -3.2511 H       1  UNL1        0.0624
     48 H          22.6342    6.5776   -3.7384 H       1  UNL1        0.0624
     49 H          23.9330    8.6391   -3.2482 H       1  UNL1        0.0618
     50 H          22.4688   10.5580   -2.8562 H       1  UNL1        0.0618
     51 H          19.9802   10.2341   -2.9139 H       1  UNL1        0.0624
     52 H           2.8168   -2.1154    0.2154 H       1  UNL1        0.4893
@<TRIPOS>UNITY_ATOM_ATTR
28 1
charge 1
@<TRIPOS>BOND
     1     1     2    1
     2     2     3   ar
     3     3     4   ar
     4     4     5   ar
     5     5     6    1
     6     6     7    1
     7     7     8    1
     8     8     9    1
     9     9    10   am
    10    10    11    2
    11    10    12    1
    12    12    13    1
    13    13    14   am
    14    14    15    2
    15    14    16    1
    16    16    17    1
    17    17    18   ar
    18    18    19   ar
    19    19    20   ar
    20    20    21   ar
    21    21    22   ar
    22    22    23   ar
    23    23    24   ar
    24    24    25   ar
    25    25    26   ar
    26    17    26   ar
    27    21    26   ar
    28     5    27   ar
    29    27    28   ar
    30     2    28   ar
    31     1    29    1
    32     1    30    1
    33     1    31    1
    34     3    32    1
    35     4    33    1
    36     6    34    1
    37     7    35    1
    38     7    36    1
    39     8    37    1
    40     8    38    1
    41     9    39    1
    42    12    40    1
    43    12    41    1
    44    13    42    1
    45    16    43    1
    46    16    44    1
    47    18    45    1
    48    19    46    1
    49    20    47    1
    50    22    48    1
    51    23    49    1
    52    24    50    1
    53    25    51    1
    54    28    52    1
