REMARK  10 active torsions:
REMARK  status: ('A' for Active; 'I' for Inactive)
REMARK    1  A    between atoms: N_2  and  C_4 
REMARK    2  A    between atoms: C_5  and  N_6 
REMARK    3  A    between atoms: N_6  and  C_7 
REMARK    4  A    between atoms: C_7  and  C_8 
REMARK    5  A    between atoms: C_8  and  O_9 
REMARK    6  A    between atoms: C_11  and  N_12 
REMARK    7  A    between atoms: N_15  and  C_16 
REMARK    8  A    between atoms: C_16  and  C_17 
REMARK    9  A    between atoms: C_17  and  O_18 
REMARK   10  A    between atoms: O_18  and  C_19 
ROOT
ATOM      1  C   UNL d   1       2.891   0.907   0.902  0.00  0.00     0.162 A 
ATOM      2  C   UNL d   1       2.421   1.063   2.228  0.00  0.00     0.066 A 
ATOM      3  C   UNL d   1       3.181   1.870   3.142  0.00  0.00     0.063 A 
ATOM      4  C   UNL d   1       4.370   2.593   2.851  0.00  0.00     0.066 A 
ATOM      5  C   UNL d   1       4.771   2.441   1.491  0.00  0.00     0.146 A 
ATOM      6  N   UNL d   1       5.834   2.972   0.873  0.00  0.00    -0.101 NA
ATOM      7  O   UNL d   1       5.801   2.492  -0.423  0.00  0.00    -0.106 OA
ATOM      8  N   UNL d   1       4.705   1.683  -0.642  0.00  0.00    -0.100 NA
ATOM      9  C   UNL d   1       4.050   1.605   0.526  0.00  0.00     0.155 A 
ENDROOT
BRANCH   4  10
ATOM     10  N   UNL d   1       5.055   3.318   3.810  0.00  0.00    -0.376 N 
ATOM     11  C   UNL d   1       5.460   2.755   5.097  0.00  0.00     0.150 C 
ATOM     12  C   UNL d   1       4.625   3.372   6.247  0.00  0.00     0.254 C 
ATOM     13  N   UNL d   1       4.655   4.930   6.210  0.00  0.00    -0.066 N 
ATOM     14  C   UNL d   1       4.338   5.455   4.785  0.00  0.00     0.254 C 
ATOM     15  H   UNL d   1       5.621   5.204   6.437  0.00  0.00     0.280 HD
ATOM     16  C   UNL d   1       5.204   4.767   3.698  0.00  0.00     0.150 C 
BRANCH  13  17
ATOM     17  C   UNL d   1       3.735   5.535   7.291  0.00  0.00     0.261 C 
BRANCH  17  18
ATOM     18  C   UNL d   1       3.837   7.074   7.404  0.00  0.00     0.203 C 
BRANCH  18  19
ATOM     19  O   UNL d   1       2.886   7.551   8.373  0.00  0.00    -0.349 OA
BRANCH  19  20
ATOM     20  C   UNL d   1       2.868   8.917   8.537  0.00  0.00     0.068 C 
ATOM     21  C   UNL d   1       2.912   9.832   7.482  0.00  0.00     0.038 C 
ATOM     22  C   UNL d   1       2.999  11.206   7.742  0.00  0.00     0.026 C 
ATOM     23  C   UNL d   1       2.923  11.671   9.052  0.00  0.00     0.034 C 
ATOM     24 CL   UNL d   1       3.091  13.352   9.375  0.00  0.00    -0.084 Cl
ATOM     25  C   UNL d   1       2.726  10.775  10.098  0.00  0.00     0.026 C 
ATOM     26  C   UNL d   1       2.735   9.397   9.844  0.00  0.00     0.038 C 
ENDBRANCH  19  20
ENDBRANCH  18  19
ENDBRANCH  17  18
ENDBRANCH  13  17
ENDBRANCH   4  10
BRANCH   2  27
ATOM     27  N   UNL d   1       1.318   0.332   2.680  0.00  0.00    -0.386 N 
ATOM     28  H   UNL d   1       0.677  -0.008   1.950  0.00  0.00     0.159 HD
BRANCH  27  29
ATOM     29  C   UNL d   1       0.726   0.518   3.991  0.00  0.00     0.146 C 
BRANCH  29  30
ATOM     30  C   UNL d   1      -0.560  -0.287   4.154  0.00  0.00     0.183 C 
BRANCH  30  31
ATOM     31  O   UNL d   1      -1.040  -0.136   5.486  0.00  0.00    -0.399 OA
ATOM     32  H   UNL d   1      -0.405  -0.573   6.079  0.00  0.00     0.209 HD
ENDBRANCH  30  31
ENDBRANCH  29  30
ENDBRANCH  27  29
ENDBRANCH   2  27
BRANCH   1  33
ATOM     33  N   UNL d   1       2.228   0.044  -0.046  0.00  0.00    -0.111 N 
ATOM     34  O   UNL d   1       0.992   0.072  -0.065  0.00  0.00    -0.532 OA
ATOM     35  O   UNL d   1       2.933  -0.723  -0.723  0.00  0.00    -0.532 OA
ENDBRANCH   1  33
TORSDOF 10
