@<TRIPOS>MOLECULE
*****
 55 58 0 0 0
SMALL
GASTEIGER

@<TRIPOS>ATOM
      1 C           1.0548   -0.0820   -0.0439 C.3     1  UNL1       -0.0546
      2 C           2.5941   -0.0901   -0.0710 C.3     1  UNL1        0.0063
      3 C           3.1021    0.8575    1.0442 C.3     1  UNL1       -0.0546
      4 C           3.1008   -1.5042    0.2426 C.3     1  UNL1       -0.0546
      5 C           3.0622    0.3913   -1.4308 C.ar    1  UNL1        0.0706
      6 C           3.0539    1.7324   -1.8507 C.ar    1  UNL1        0.0020
      7 C           3.5402    1.7552   -3.1323 C.ar    1  UNL1        0.1288
      8 N           3.6526    2.8921   -3.9549 N.am    1  UNL1       -0.2696
      9 C           3.2993    4.2268   -3.4741 C.2     1  UNL1        0.2285
     10 O           2.8268    4.3669   -2.3501 O.2     1  UNL1       -0.2745
     11 C           3.4514    5.3720   -4.4487 C.3     1  UNL1        0.0780
     12 S           2.8763    6.9559   -3.7397 S.3     1  UNL1       -0.0749
     13 C           2.9414    8.2381   -4.9179 C.ar    1  UNL1        0.2144
     14 N           2.8564    9.5154   -4.5969 N.ar    1  UNL1       -0.1011
     15 N           3.0254   10.2257   -5.7611 N.ar    1  UNL1       -0.0218
     16 N           3.2587    9.4131   -6.7797 N.ar    1  UNL1       -0.0382
     17 N           3.1428    8.1638   -6.2799 N.ar    1  UNL1       -0.1875
     18 C           3.2171    7.0511   -7.1226 C.ar    1  UNL1        0.0701
     19 C           2.1920    6.0978   -7.1116 C.ar    1  UNL1       -0.0327
     20 C           2.3352    4.9258   -7.8551 C.ar    1  UNL1       -0.0182
     21 C           3.4676    4.7615   -8.6461 C.ar    1  UNL1        0.1170
     22 O           3.6536    3.6456   -9.4032 O.3     1  UNL1       -0.5068
     23 C           4.4668    5.7323   -8.6863 C.ar    1  UNL1       -0.0182
     24 C           4.3487    6.8895   -7.9221 C.ar    1  UNL1       -0.0327
     25 N           3.8103    0.4174   -3.4285 N.ar    1  UNL1       -0.2181
     26 C           4.3377   -0.0849   -4.6345 C.ar    1  UNL1        0.0674
     27 C           5.5432    0.4294   -5.1214 C.ar    1  UNL1       -0.0362
     28 C           6.0090    0.0143   -6.3676 C.ar    1  UNL1       -0.0598
     29 C           5.3014   -0.9444   -7.0949 C.ar    1  UNL1       -0.0616
     30 C           4.1080   -1.4702   -6.5947 C.ar    1  UNL1       -0.0598
     31 C           3.6252   -1.0524   -5.3531 C.ar    1  UNL1       -0.0362
     32 N           3.4433   -0.4200   -2.4253 N.ar    1  UNL1       -0.1691
     33 H           0.6726   -0.4086    0.9287 H       1  UNL1        0.0239
     34 H           0.6448   -0.7453   -0.8136 H       1  UNL1        0.0239
     35 H           0.6585    0.9234   -0.2349 H       1  UNL1        0.0239
     36 H           2.7544    0.5336    2.0311 H       1  UNL1        0.0239
     37 H           2.7436    1.8849    0.9059 H       1  UNL1        0.0239
     38 H           4.1977    0.8967    1.0655 H       1  UNL1        0.0239
     39 H           2.7477   -1.8401    1.2238 H       1  UNL1        0.0239
     40 H           4.1966   -1.5367    0.2497 H       1  UNL1        0.0239
     41 H           2.7496   -2.2266   -0.5021 H       1  UNL1        0.0239
     42 H           2.6942    2.5511   -1.2508 H       1  UNL1        0.0671
     43 H           3.9615    2.7428   -4.9126 H       1  UNL1        0.1562
     44 H           2.7863    5.0478   -5.2332 H       1  UNL1        0.0475
     45 H           4.4834    5.4330   -4.7997 H       1  UNL1        0.0475
     46 H           1.3149    6.2270   -6.4760 H       1  UNL1        0.0640
     47 H           1.5720    4.1559   -7.7873 H       1  UNL1        0.0655
     48 H           2.8362    3.1207   -9.4302 H       1  UNL1        0.2921
     49 H           5.3385    5.5863   -9.3186 H       1  UNL1        0.0655
     50 H           5.1515    7.6258   -7.9263 H       1  UNL1        0.0640
     51 H           6.1592    1.0899   -4.5153 H       1  UNL1        0.0639
     52 H           6.9314    0.4250   -6.7720 H       1  UNL1        0.0618
     53 H           5.6936   -1.2988   -8.0464 H       1  UNL1        0.0618
     54 H           3.5542   -2.2021   -7.1798 H       1  UNL1        0.0618
     55 H           2.6845   -1.4548   -4.9805 H       1  UNL1        0.0639
@<TRIPOS>BOND
     1     1     2    1
     2     2     3    1
     3     2     4    1
     4     2     5    1
     5     5     6   ar
     6     6     7   ar
     7     7     8    1
     8     8     9   am
     9     9    10    2
    10     9    11    1
    11    11    12    1
    12    12    13    1
    13    13    14   ar
    14    14    15   ar
    15    15    16   ar
    16    16    17   ar
    17    13    17   ar
    18    17    18    1
    19    18    19   ar
    20    19    20   ar
    21    20    21   ar
    22    21    22    1
    23    21    23   ar
    24    23    24   ar
    25    18    24   ar
    26     7    25   ar
    27    25    26    1
    28    26    27   ar
    29    27    28   ar
    30    28    29   ar
    31    29    30   ar
    32    30    31   ar
    33    26    31   ar
    34    25    32   ar
    35     5    32   ar
    36     1    33    1
    37     1    34    1
    38     1    35    1
    39     3    36    1
    40     3    37    1
    41     3    38    1
    42     4    39    1
    43     4    40    1
    44     4    41    1
    45     6    42    1
    46     8    43    1
    47    11    44    1
    48    11    45    1
    49    19    46    1
    50    20    47    1
    51    22    48    1
    52    23    49    1
    53    24    50    1
    54    27    51    1
    55    28    52    1
    56    29    53    1
    57    30    54    1
    58    31    55    1
