@<TRIPOS>MOLECULE
*****
 62 65 0 0 0
SMALL
GASTEIGER

@<TRIPOS>ATOM
      1 C           0.9003    0.0674    0.0142 C.3     1  UNL1        0.0196
      2 N           2.3548    0.1048    0.0098 N.ar    1  UNL1       -0.2633
      3 C           2.9915    1.3072    0.0135 C.ar    1  UNL1        0.2688
      4 O           2.3415    2.3576    0.0101 O.2     1  UNL1       -0.2667
      5 C           4.4830    1.3033    0.0431 C.ar    1  UNL1        0.1212
      6 C           5.1234    2.6790    0.0687 C.2     1  UNL1        0.1884
      7 O           4.4659    3.7228    0.0377 O.2     1  UNL1       -0.2901
      8 C           6.6154    2.7702    0.1063 C.3     1  UNL1        0.0726
      9 N           7.1050    4.1123   -0.0868 N.pl3   1  UNL1       -0.3351
     10 C           8.4831    4.3112   -0.1025 C.ar    1  UNL1        0.0488
     11 C           9.0042    5.2699    0.7874 C.ar    1  UNL1       -0.0390
     12 C          10.3691    5.5363    0.8470 C.ar    1  UNL1       -0.0599
     13 C          11.2369    4.8255    0.0291 C.ar    1  UNL1       -0.0599
     14 C          10.7435    3.8232   -0.8171 C.ar    1  UNL1       -0.0389
     15 C           9.3695    3.5300   -0.9021 C.ar    1  UNL1        0.0508
     16 N           8.9360    2.5594   -1.8030 N.pl3   1  UNL1       -0.3285
     17 C           9.3965    1.1795   -1.7400 C.3     1  UNL1        0.0122
     18 C          10.0024    0.7837   -3.0792 C.3     1  UNL1       -0.0372
     19 C           9.0378    1.0681   -4.2351 C.3     1  UNL1       -0.0502
     20 C           8.5291    2.5131   -4.2038 C.3     1  UNL1       -0.0372
     21 C           7.9462    2.8665   -2.8408 C.3     1  UNL1        0.0122
     22 C           5.1418    0.1042    0.0276 C.ar    1  UNL1        0.1164
     23 N           6.5153   -0.0511    0.0276 N.pl3   1  UNL1       -0.3436
     24 N           4.3898   -1.0875    0.0275 N.ar    1  UNL1       -0.2768
     25 C           5.1492   -2.3731    0.0050 C.3     1  UNL1        0.0542
     26 C           4.3861   -3.6624   -0.0488 C.ar    1  UNL1       -0.0276
     27 C           4.4109   -4.5340    1.0470 C.ar    1  UNL1       -0.0569
     28 C           3.5421   -5.6188    1.0843 C.ar    1  UNL1       -0.0614
     29 C           2.6342   -5.8209    0.0444 C.ar    1  UNL1       -0.0617
     30 C           2.6240   -4.9709   -1.0598 C.ar    1  UNL1       -0.0614
     31 C           3.5358   -3.9253   -1.1343 C.ar    1  UNL1       -0.0569
     32 C           2.9981   -1.0982    0.1271 C.ar    1  UNL1        0.3333
     33 O           2.3012   -2.0942    0.3161 O.2     1  UNL1       -0.2462
     34 H           0.4501    1.0614    0.0074 H       1  UNL1        0.0458
     35 H           0.5548   -0.4685    0.9049 H       1  UNL1        0.0458
     36 H           0.5636   -0.4824   -0.8716 H       1  UNL1        0.0458
     37 H           6.9074    2.1969   -0.7548 H       1  UNL1        0.0543
     38 H           6.9849    2.3453    1.0451 H       1  UNL1        0.0543
     39 H           6.4703    4.8663    0.1526 H       1  UNL1        0.1466
     40 H           8.3350    5.8096    1.4537 H       1  UNL1        0.0637
     41 H          10.7456    6.3009    1.5219 H       1  UNL1        0.0618
     42 H          12.2988    5.0570    0.0414 H       1  UNL1        0.0618
     43 H          11.4441    3.3050   -1.4663 H       1  UNL1        0.0637
     44 H           8.5311    0.5310   -1.5626 H       1  UNL1        0.0464
     45 H          10.0912    0.9968   -0.9130 H       1  UNL1        0.0464
     46 H          10.2578   -0.2820   -3.0668 H       1  UNL1        0.0280
     47 H          10.9284    1.3465   -3.2343 H       1  UNL1        0.0280
     48 H           8.1855    0.3773   -4.1804 H       1  UNL1        0.0266
     49 H           9.5410    0.8776   -5.1887 H       1  UNL1        0.0266
     50 H           7.7599    2.6483   -4.9725 H       1  UNL1        0.0280
     51 H           9.3539    3.1958   -4.4319 H       1  UNL1        0.0280
     52 H           7.0540    2.2398   -2.7114 H       1  UNL1        0.0464
     53 H           7.6168    3.9101   -2.8190 H       1  UNL1        0.0464
     54 H           7.2030    0.6743    0.1130 H       1  UNL1        0.1437
     55 H           6.9539   -0.9598    0.0502 H       1  UNL1        0.1437
     56 H           5.7928   -2.3844    0.8968 H       1  UNL1        0.0543
     57 H           5.8104   -2.3654   -0.8747 H       1  UNL1        0.0543
     58 H           5.0567   -4.3381    1.9003 H       1  UNL1        0.0621
     59 H           3.5366   -6.2755    1.9487 H       1  UNL1        0.0618
     60 H           1.9086   -6.6250    0.1095 H       1  UNL1        0.0618
     61 H           1.8618   -5.0718   -1.8266 H       1  UNL1        0.0618
     62 H           3.4582   -3.2077   -1.9494 H       1  UNL1        0.0621
@<TRIPOS>BOND
     1     1     2    1
     2     2     3   ar
     3     3     4    2
     4     3     5   ar
     5     5     6    1
     6     6     7    2
     7     6     8    1
     8     8     9    1
     9     9    10    1
    10    10    11   ar
    11    11    12   ar
    12    12    13   ar
    13    13    14   ar
    14    14    15   ar
    15    10    15   ar
    16    15    16    1
    17    16    17    1
    18    17    18    1
    19    18    19    1
    20    19    20    1
    21    20    21    1
    22    16    21    1
    23     5    22   ar
    24    22    23    1
    25    22    24   ar
    26    24    25    1
    27    25    26    1
    28    26    27   ar
    29    27    28   ar
    30    28    29   ar
    31    29    30   ar
    32    30    31   ar
    33    26    31   ar
    34    24    32   ar
    35     2    32   ar
    36    32    33    2
    37     1    34    1
    38     1    35    1
    39     1    36    1
    40     8    37    1
    41     8    38    1
    42     9    39    1
    43    11    40    1
    44    12    41    1
    45    13    42    1
    46    14    43    1
    47    17    44    1
    48    17    45    1
    49    18    46    1
    50    18    47    1
    51    19    48    1
    52    19    49    1
    53    20    50    1
    54    20    51    1
    55    21    52    1
    56    21    53    1
    57    23    54    1
    58    23    55    1
    59    25    56    1
    60    25    57    1
    61    27    58    1
    62    28    59    1
    63    29    60    1
    64    30    61    1
    65    31    62    1
