@<TRIPOS>MOLECULE
*****
 41 42 0 0 0
SMALL
GASTEIGER

@<TRIPOS>ATOM
      1 C           1.0968   -0.1016   -0.0426 C.3     1  UNL1        0.0004
      2 N           2.5340    0.0323    0.1681 N.am    1  UNL1       -0.3144
      3 C           3.2512    1.2011   -0.0511 C.2     1  UNL1        0.2439
      4 O           4.2620    1.1768   -0.7535 O.2     1  UNL1       -0.2702
      5 C           2.8691    2.4459    0.6731 C.ar    1  UNL1        0.0384
      6 C           3.5462    3.6498    0.4912 C.ar    1  UNL1       -0.0493
      7 C           3.1865    4.7671    1.2582 C.ar    1  UNL1       -0.0564
      8 C           2.1276    4.6999    2.1870 C.ar    1  UNL1       -0.0296
      9 C           1.7596    5.9164    2.9914 C.3     1  UNL1       -0.0380
     10 C           1.4555    3.4853    2.3873 C.ar    1  UNL1        0.0310
     11 N           0.3379    3.3900    3.1954 N.pl3   1  UNL1       -0.3395
     12 C          -0.4371    2.1671    3.3939 C.3     1  UNL1        0.0345
     13 C          -1.8799    2.4613    3.7277 C.ar    1  UNL1       -0.0270
     14 C          -2.7865    1.4107    3.9198 C.ar    1  UNL1       -0.0569
     15 C          -4.1292    1.6857    4.1847 C.ar    1  UNL1       -0.0580
     16 C          -4.5729    3.0104    4.2672 C.ar    1  UNL1       -0.0199
     17 C          -3.6832    4.0660    4.0796 C.ar    1  UNL1        0.1204
     18 O          -4.1833    5.3369    4.1801 O.3     1  UNL1       -0.4951
     19 C          -3.2370    6.3947    4.0042 C.3     1  UNL1        0.0788
     20 C          -2.3551    3.7766    3.7969 C.ar    1  UNL1       -0.0153
     21 C           1.8930    2.3867    1.6604 C.ar    1  UNL1       -0.0285
     22 H           0.8410   -1.1621    0.0176 H       1  UNL1        0.0426
     23 H           0.8186    0.3144   -1.0125 H       1  UNL1        0.0426
     24 H           0.5060    0.4007    0.7197 H       1  UNL1        0.0426
     25 H           3.0650   -0.7636   -0.1637 H       1  UNL1        0.1487
     26 H           4.3798    3.7163   -0.2050 H       1  UNL1        0.0625
     27 H           3.7440    5.6937    1.1343 H       1  UNL1        0.0621
     28 H           2.4088    6.7670    2.7653 H       1  UNL1        0.0278
     29 H           1.8643    5.6985    4.0607 H       1  UNL1        0.0278
     30 H           0.7260    6.2119    2.7841 H       1  UNL1        0.0278
     31 H           0.2445    4.0967    3.9115 H       1  UNL1        0.1464
     32 H           0.0159    1.5684    4.1924 H       1  UNL1        0.0511
     33 H          -0.4749    1.5675    2.4787 H       1  UNL1        0.0511
     34 H          -2.4584    0.3753    3.8465 H       1  UNL1        0.0621
     35 H          -4.8322    0.8680    4.3237 H       1  UNL1        0.0619
     36 H          -5.6197    3.2160    4.4715 H       1  UNL1        0.0654
     37 H          -3.7568    7.3479    4.1240 H       1  UNL1        0.0660
     38 H          -2.8068    6.3783    2.9950 H       1  UNL1        0.0660
     39 H          -2.4452    6.3526    4.7632 H       1  UNL1        0.0660
     40 H          -1.6679    4.5871    3.6001 H       1  UNL1        0.0657
     41 H           1.4977    1.4261    1.9344 H       1  UNL1        0.0644
@<TRIPOS>BOND
     1     1     2    1
     2     2     3   am
     3     3     4    2
     4     3     5    1
     5     5     6   ar
     6     6     7   ar
     7     7     8   ar
     8     8     9    1
     9     8    10   ar
    10    10    11    1
    11    11    12    1
    12    12    13    1
    13    13    14   ar
    14    14    15   ar
    15    15    16   ar
    16    16    17   ar
    17    17    18    1
    18    18    19    1
    19    17    20   ar
    20    13    20   ar
    21    10    21   ar
    22     5    21   ar
    23     1    22    1
    24     1    23    1
    25     1    24    1
    26     2    25    1
    27     6    26    1
    28     7    27    1
    29     9    28    1
    30     9    29    1
    31     9    30    1
    32    11    31    1
    33    12    32    1
    34    12    33    1
    35    14    34    1
    36    15    35    1
    37    16    36    1
    38    19    37    1
    39    19    38    1
    40    19    39    1
    41    20    40    1
    42    21    41    1
