REMARK  3 active torsions:
REMARK  status: ('A' for Active; 'I' for Inactive)
REMARK       I    between atoms: C_2  and  N_4 
REMARK    1  A    between atoms: N_4  and  C_5 
REMARK    2  A    between atoms: C_7  and  C_8 
REMARK       I    between atoms: C_8  and  N_10 
REMARK    3  A    between atoms: N_10  and  C_11 
ROOT
ATOM      1  C   UNL d   1       4.728   1.113  -0.637  0.00  0.00     0.041 A 
ATOM      2  C   UNL d   1       5.441  -0.069  -0.906  0.00  0.00     0.047 A 
ATOM      3  C   UNL d   1       6.836  -0.093  -0.928  0.00  0.00     0.034 A 
ATOM      4  C   UNL d   1       7.524   1.104  -0.677  0.00  0.00     0.018 A 
ATOM      5  C   UNL d   1       6.827   2.291  -0.415  0.00  0.00     0.010 A 
ATOM      6  C   UNL d   1       5.422   2.314  -0.402  0.00  0.00    -0.035 A 
ATOM      7  C   UNL d   1       4.718   3.591  -0.035  0.00  0.00     0.050 C 
ENDROOT
BRANCH   3   8
ATOM      8  C   UNL d   1       7.622  -1.345  -1.176  0.00  0.00     0.257 C 
ATOM      9  O   UNL d   1       8.855  -1.260  -1.137  0.00  0.00    -0.267 OA
ATOM     10  N   UNL d   1       6.939  -2.512  -1.482  0.00  0.00    -0.307 N 
ATOM     11  H   UNL d   1       5.981  -2.492  -1.795  0.00  0.00     0.170 HD
BRANCH  10  12
ATOM     12  C   UNL d   1       7.590  -3.727  -1.754  0.00  0.00     0.129 A 
ATOM     13  C   UNL d   1       8.681  -4.128  -0.993  0.00  0.00     0.050 A 
ATOM     14  C   UNL d   1       9.325  -5.323  -1.299  0.00  0.00     0.005 A 
ATOM     15  C   UNL d   1       8.876  -6.076  -2.373  0.00  0.00     0.019 A 
ATOM     16  C   UNL d   1       7.762  -5.620  -3.062  0.00  0.00     0.119 A 
ATOM     17  N   UNL d   1       7.082  -4.486  -2.750  0.00  0.00    -0.243 NA
ENDBRANCH  10  12
ENDBRANCH   3   8
BRANCH   1  18
ATOM     18  N   UNL d   1       3.309   1.065  -0.603  0.00  0.00    -0.327 N 
ATOM     19  C   UNL d   1       2.630   0.024   0.018  0.00  0.00     0.218 C 
ATOM     20  C   UNL d   1       1.129   0.131  -0.015  0.00  0.00     0.117 C 
ATOM     21  O   UNL d   1       3.168  -0.921   0.593  0.00  0.00    -0.274 OA
ATOM     22  H   UNL d   1       2.802   1.916  -0.808  0.00  0.00     0.169 HD
ENDBRANCH   1  18
TORSDOF 3
