@<TRIPOS>MOLECULE
*****
 54 57 0 0 0
SMALL
GASTEIGER

@<TRIPOS>ATOM
      1 C           0.9947    0.0149   -0.0297 C.3     1  UNL1        0.0789
      2 O           2.4240    0.0336   -0.0834 O.3     1  UNL1       -0.4936
      3 C           2.9989   -1.0919   -0.6136 C.ar    1  UNL1        0.1384
      4 C           4.0610   -1.6511    0.1183 C.ar    1  UNL1       -0.0167
      5 C           4.7414   -2.8045   -0.3361 C.ar    1  UNL1       -0.0369
      6 C           4.3712   -3.4106   -1.5411 C.ar    1  UNL1        0.0353
      7 N           5.0300   -4.5876   -2.0071 N.am    1  UNL1       -0.2815
      8 C           4.7391   -5.2179   -3.2152 C.2     1  UNL1        0.2483
      9 O           3.8946   -4.8817   -4.0421 O.2     1  UNL1       -0.2699
     10 C           5.4954   -6.4257   -3.5977 C.ar    1  UNL1        0.0370
     11 C           5.8160   -6.5762   -4.9571 C.ar    1  UNL1       -0.0493
     12 C           6.3219   -7.7824   -5.4331 C.ar    1  UNL1       -0.0561
     13 C           6.5850   -8.8305   -4.5391 C.ar    1  UNL1       -0.0261
     14 C           7.2965  -10.0519   -5.0499 C.3     1  UNL1        0.0657
     15 N           7.5862  -11.0624   -4.0561 N.2     1  UNL1       -0.2696
     16 C           8.2348  -12.1147   -4.3851 C.2     1  UNL1        0.1791
     17 C           8.6465  -13.2452   -3.5373 C.2     1  UNL1        0.1972
     18 O           8.5266  -13.5659   -2.2980 O.2     1  UNL1       -0.5016
     19 C           9.2273  -13.8635   -4.6045 C.2     1  UNL1        0.2353
     20 O           9.8458  -14.9789   -4.7276 O.2     1  UNL1       -0.4989
     21 C           8.8541  -12.7571   -5.5374 C.2     1  UNL1        0.2769
     22 N           9.0114  -12.5169   -6.8056 N.2     1  UNL1       -0.2236
     23 C           9.7484  -13.4317   -7.7503 C.3     1  UNL1        0.1460
     24 C          10.3528  -12.4615   -8.7609 C.3     1  UNL1        0.0122
     25 C           9.3155  -11.3703   -8.9215 C.3     1  UNL1        0.0122
     26 C           8.5412  -11.3305   -7.6060 C.3     1  UNL1        0.1460
     27 C           6.2446   -8.6775   -3.1884 C.ar    1  UNL1       -0.0561
     28 C           5.6938   -7.4835   -2.7148 C.ar    1  UNL1       -0.0493
     29 C           3.3463   -2.8084   -2.2721 C.ar    1  UNL1       -0.0186
     30 C           2.6823   -1.6578   -1.8449 C.ar    1  UNL1        0.0843
     31 CL          1.5691   -0.9950   -2.9898 Cl      1  UNL1       -0.0797
     32 H           0.6648    0.9209    0.4872 H       1  UNL1        0.0660
     33 H           0.6265   -0.8550    0.5233 H       1  UNL1        0.0660
     34 H           0.5244    0.0627   -1.0110 H       1  UNL1        0.0660
     35 H           4.3640   -1.1835    1.0550 H       1  UNL1        0.0655
     36 H           5.5527   -3.1986    0.2723 H       1  UNL1        0.0637
     37 H           5.7795   -4.9551   -1.4335 H       1  UNL1        0.1551
     38 H           5.6372   -5.7545   -5.6513 H       1  UNL1        0.0625
     39 H           6.4995   -7.8889   -6.5020 H       1  UNL1        0.0621
     40 H           8.2529   -9.6727   -5.4186 H       1  UNL1        0.0558
     41 H           6.6989  -10.4915   -5.8541 H       1  UNL1        0.0558
     42 H           8.0375  -12.8773   -1.7996 H       1  UNL1        0.2924
     43 H           9.8676  -15.4261   -3.8496 H       1  UNL1        0.2925
     44 H           9.0013  -14.0728   -8.2314 H       1  UNL1        0.1026
     45 H          10.5074  -14.0245   -7.2374 H       1  UNL1        0.1026
     46 H          10.5864  -12.9297   -9.7234 H       1  UNL1        0.0328
     47 H          11.2832  -12.0291   -8.3728 H       1  UNL1        0.0328
     48 H           8.6450  -11.5736   -9.7650 H       1  UNL1        0.0328
     49 H           9.7911  -10.4037   -9.1351 H       1  UNL1        0.0328
     50 H           7.4675  -11.4373   -7.7890 H       1  UNL1        0.1026
     51 H           8.7862  -10.4046   -7.0987 H       1  UNL1        0.1026
     52 H           6.3917   -9.5015   -2.4948 H       1  UNL1        0.0621
     53 H           5.3813   -7.4155   -1.6782 H       1  UNL1        0.0625
     54 H           3.0260   -3.2002   -3.2269 H       1  UNL1        0.0652
@<TRIPOS>UNITY_ATOM_ATTR
22 1
charge 1
@<TRIPOS>BOND
     1     1     2    1
     2     2     3    1
     3     3     4   ar
     4     4     5   ar
     5     5     6   ar
     6     6     7    1
     7     7     8   am
     8     8     9    2
     9     8    10    1
    10    10    11   ar
    11    11    12   ar
    12    12    13   ar
    13    13    14    1
    14    14    15    1
    15    15    16    2
    16    16    17    1
    17    17    18    1
    18    17    19    2
    19    19    20    1
    20    19    21    1
    21    16    21    1
    22    21    22    2
    23    22    23    1
    24    23    24    1
    25    24    25    1
    26    25    26    1
    27    22    26    1
    28    13    27   ar
    29    27    28   ar
    30    10    28   ar
    31     6    29   ar
    32    29    30   ar
    33     3    30   ar
    34    30    31    1
    35     1    32    1
    36     1    33    1
    37     1    34    1
    38     4    35    1
    39     5    36    1
    40     7    37    1
    41    11    38    1
    42    12    39    1
    43    14    40    1
    44    14    41    1
    45    18    42    1
    46    20    43    1
    47    23    44    1
    48    23    45    1
    49    24    46    1
    50    24    47    1
    51    25    48    1
    52    25    49    1
    53    26    50    1
    54    26    51    1
    55    27    52    1
    56    28    53    1
    57    29    54    1
