REMARK  7 active torsions:
REMARK  status: ('A' for Active; 'I' for Inactive)
REMARK    1  A    between atoms: C_2  and  O_3 
REMARK    2  A    between atoms: O_3  and  C_4 
REMARK       I    between atoms: C_4  and  N_6 
REMARK    3  A    between atoms: C_9  and  N_10 
REMARK       I    between atoms: N_10  and  C_11 
REMARK    4  A    between atoms: C_11  and  C_13 
REMARK    5  A    between atoms: C_13  and  S_14 
REMARK    6  A    between atoms: S_14  and  C_15 
REMARK    7  A    between atoms: N_25  and  C_26 
ROOT
ATOM      1  C   UNL d   1       5.305  11.103  -1.705  0.00  0.00     0.177 A 
ATOM      2  N   UNL d   1       4.212  10.920  -2.398  0.00  0.00    -0.222 NA
ATOM      3  C   UNL d   1       3.622  12.093  -2.885  0.00  0.00     0.093 A 
ATOM      4  C   UNL d   1       2.539  12.225  -3.783  0.00  0.00     0.059 C 
ATOM      5  C   UNL d   1       2.492  13.561  -4.180  0.00  0.00     0.008 C 
ATOM      6  C   UNL d   1       1.777  14.214  -5.333  0.00  0.00     0.068 C 
ATOM      7  N   UNL d   1       3.316  14.245  -3.295  0.00  0.00    -0.354 N 
ATOM      8  C   UNL d   1       4.103  13.339  -2.612  0.00  0.00     0.131 A 
ATOM      9  C   UNL d   1       5.242  13.561  -1.777  0.00  0.00     0.283 A 
ATOM     10  O   UNL d   1       5.629  14.705  -1.505  0.00  0.00    -0.265 OA
ATOM     11  N   UNL d   1       5.866  12.368  -1.363  0.00  0.00    -0.255 N 
ATOM     12  H   UNL d   1       3.399  15.253  -3.210  0.00  0.00     0.166 HD
ENDROOT
BRANCH   1  13
ATOM     13  S   UNL d   1       6.224   9.642  -1.280  0.00  0.00    -0.082 SA
BRANCH  13  14
ATOM     14  C   UNL d   1       5.252   8.643  -0.104  0.00  0.00     0.185 C 
BRANCH  14  15
ATOM     15  C   UNL d   1       6.117   7.450   0.411  0.00  0.00     0.227 C 
ATOM     16  N   UNL d   1       5.459   6.485   1.175  0.00  0.00    -0.356 N 
ATOM     17  H   UNL d   1       4.504   6.649   1.466  0.00  0.00     0.162 HD
ATOM     18  O   UNL d   1       7.317   7.329   0.164  0.00  0.00    -0.273 OA
BRANCH  16  19
ATOM     19  C   UNL d   1       6.150   5.267   1.669  0.00  0.00     0.087 C 
ATOM     20  C   UNL d   1       6.687   4.389   0.521  0.00  0.00     0.045 C 
ATOM     21  C   UNL d   1       5.552   3.694  -0.222  0.00  0.00     0.130 C 
ATOM     22  N   UNL d   1       4.688   2.935   0.675  0.00  0.00    -0.328 N 
ATOM     23  C   UNL d   1       4.306   1.639   0.356  0.00  0.00     0.362 C 
ATOM     24  C   UNL d   1       4.131   3.689   1.784  0.00  0.00     0.130 C 
ATOM     25  O   UNL d   1       5.094   0.790  -0.055  0.00  0.00    -0.238 OA
ATOM     26  C   UNL d   1       5.249   4.394   2.574  0.00  0.00     0.045 C 
BRANCH  23  27
ATOM     27  O   UNL d   1       2.959   1.421   0.484  0.00  0.00    -0.304 OA
BRANCH  27  28
ATOM     28  C   UNL d   1       2.498   0.111   0.069  0.00  0.00     0.176 C 
ATOM     29  C   UNL d   1       0.973   0.070   0.038  0.00  0.00     0.034 C 
ENDBRANCH  27  28
ENDBRANCH  23  27
ENDBRANCH  16  19
ENDBRANCH  14  15
ENDBRANCH  13  14
ENDBRANCH   1  13
BRANCH  11  30
ATOM     30  C   UNL d   1       7.053  12.488  -0.560  0.00  0.00     0.045 C 
ATOM     31  C   UNL d   1       6.977  13.053   0.719  0.00  0.00     0.031 C 
ATOM     32  C   UNL d   1       8.055  12.934   1.603  0.00  0.00     0.009 C 
ATOM     33  C   UNL d   1       9.304  12.515   1.140  0.00  0.00    -0.062 C 
ATOM     34  C   UNL d   1      10.526  12.619   2.005  0.00  0.00     0.048 C 
ATOM     35  C   UNL d   1       9.418  12.068  -0.179  0.00  0.00     0.009 C 
ATOM     36  C   UNL d   1       8.287  11.991  -0.998  0.00  0.00     0.031 C 
ENDBRANCH  11  30
TORSDOF 7
