@<TRIPOS>MOLECULE
*****
 44 45 0 0 0
SMALL
GASTEIGER

@<TRIPOS>ATOM
      1 C           2.5209    1.0701    0.0081 C.3     1  UNL1       -0.0396
      2 C           1.2107    0.3388   -0.0007 C.ar    1  UNL1       -0.0485
      3 C          -0.0061    1.0234   -0.0075 C.ar    1  UNL1       -0.0558
      4 C          -1.2109    0.3127   -0.0046 C.ar    1  UNL1       -0.0485
      5 C          -2.5283    1.0341   -0.0053 C.3     1  UNL1       -0.0396
      6 C          -1.1815   -1.0969   -0.0035 C.ar    1  UNL1       -0.0379
      7 C           0.0248   -1.8145   -0.0024 C.ar    1  UNL1        0.0276
      8 N           0.0130   -3.2072    0.0007 N.pl3   1  UNL1       -0.3434
      9 C           1.2488   -3.9930   -0.0086 C.3     1  UNL1        0.0174
     10 C           1.0074   -5.5095   -0.0168 C.3     1  UNL1        0.0408
     11 C           2.3417   -6.2643   -0.0174 C.2     1  UNL1        0.2306
     12 O           3.4321   -5.6894   -0.0095 O.2     1  UNL1       -0.2742
     13 N           2.2597   -7.6495   -0.0258 N.am    1  UNL1       -0.2341
     14 N           3.4670   -8.4098   -0.0065 N.am    1  UNL1       -0.2304
     15 C           3.4155   -9.7943   -0.0827 C.2     1  UNL1        0.2601
     16 O           2.3531  -10.4168   -0.1559 O.2     1  UNL1       -0.2687
     17 C           4.7154  -10.5421   -0.0553 C.ar    1  UNL1        0.0382
     18 C           4.8712  -11.7079   -0.8258 C.ar    1  UNL1       -0.0496
     19 C           6.0159  -12.5078   -0.6893 C.ar    1  UNL1       -0.0610
     20 C           7.0372  -12.1236    0.1772 C.ar    1  UNL1       -0.0617
     21 C           6.8974  -10.9612    0.9353 C.ar    1  UNL1       -0.0610
     22 C           5.7398  -10.1762    0.8273 C.ar    1  UNL1       -0.0496
     23 C           1.2092   -1.0661    0.0033 C.ar    1  UNL1       -0.0379
     24 H           2.3793    2.1552   -0.0080 H       1  UNL1        0.0278
     25 H           3.1120    0.7941   -0.8714 H       1  UNL1        0.0278
     26 H           3.0851    0.8165    0.9117 H       1  UNL1        0.0278
     27 H          -0.0135    2.1116   -0.0137 H       1  UNL1        0.0623
     28 H          -2.3973    2.1218    0.0115 H       1  UNL1        0.0278
     29 H          -3.1116    0.7559    0.8785 H       1  UNL1        0.0278
     30 H          -3.0961    0.7794   -0.9059 H       1  UNL1        0.0278
     31 H          -2.1270   -1.6341   -0.0041 H       1  UNL1        0.0639
     32 H          -0.8843   -3.6751   -0.0165 H       1  UNL1        0.1461
     33 H           1.8380   -3.7329    0.8795 H       1  UNL1        0.0466
     34 H           1.8363   -3.7228   -0.8949 H       1  UNL1        0.0466
     35 H           0.4323   -5.7888   -0.9067 H       1  UNL1        0.0374
     36 H           0.4290   -5.7972    0.8683 H       1  UNL1        0.0374
     37 H           1.3899   -8.1807   -0.0296 H       1  UNL1        0.1728
     38 H           4.3341   -7.8753   -0.0399 H       1  UNL1        0.1731
     39 H           4.0989  -12.0106   -1.5301 H       1  UNL1        0.0625
     40 H           6.1045  -13.4423   -1.2412 H       1  UNL1        0.0618
     41 H           7.9344  -12.7339    0.2702 H       1  UNL1        0.0618
     42 H           7.6813  -10.6834    1.6369 H       1  UNL1        0.0618
     43 H           5.6336   -9.3103    1.4734 H       1  UNL1        0.0625
     44 H           2.1715   -1.5698    0.0109 H       1  UNL1        0.0639
@<TRIPOS>BOND
     1     1     2    1
     2     2     3   ar
     3     3     4   ar
     4     4     5    1
     5     4     6   ar
     6     6     7   ar
     7     7     8    1
     8     8     9    1
     9     9    10    1
    10    10    11    1
    11    11    12    2
    12    11    13   am
    13    13    14    1
    14    14    15   am
    15    15    16    2
    16    15    17    1
    17    17    18   ar
    18    18    19   ar
    19    19    20   ar
    20    20    21   ar
    21    21    22   ar
    22    17    22   ar
    23     7    23   ar
    24     2    23   ar
    25     1    24    1
    26     1    25    1
    27     1    26    1
    28     3    27    1
    29     5    28    1
    30     5    29    1
    31     5    30    1
    32     6    31    1
    33     8    32    1
    34     9    33    1
    35     9    34    1
    36    10    35    1
    37    10    36    1
    38    13    37    1
    39    14    38    1
    40    18    39    1
    41    19    40    1
    42    20    41    1
    43    21    42    1
    44    22    43    1
    45    23    44    1
