REMARK  7 active torsions:
REMARK  status: ('A' for Active; 'I' for Inactive)
REMARK    1  A    between atoms: C_2  and  N_5 
REMARK       I    between atoms: N_5  and  C_6 
REMARK    2  A    between atoms: C_8  and  C_6 
REMARK    3  A    between atoms: C_8  and  N_19 
REMARK    4  A    between atoms: C_8  and  C_9 
REMARK    5  A    between atoms: C_11  and  N_12 
REMARK       I    between atoms: N_19  and  C_20 
REMARK    6  A    between atoms: N_19  and  C_28 
REMARK    7  A    between atoms: C_20  and  C_22 
ROOT
ATOM      1  C   UNL d   1       4.944  -1.722  -2.557  0.00  0.00     0.220 C 
ENDROOT
BRANCH   1   2
ATOM      2  N   UNL d   1       6.466  -1.859  -2.403  0.00  0.00    -0.299 N 
ATOM      3  C   UNL d   1       7.289  -1.151  -1.473  0.00  0.00     0.229 C 
ATOM      4  O   UNL d   1       8.524  -1.130  -1.572  0.00  0.00    -0.273 OA
BRANCH   3   5
ATOM      5  C   UNL d   1       6.742  -0.352  -0.270  0.00  0.00     0.078 C 
ATOM      6  C   UNL d   1       6.977  -1.022   1.082  0.00  0.00     0.014 C 
ATOM      7  C   UNL d   1       6.379  -0.212   2.240  0.00  0.00     0.001 C 
ATOM      8  C   UNL d   1       6.832   1.242   2.209  0.00  0.00     0.000 C 
ATOM      9  C   UNL d   1       6.531   1.906   0.876  0.00  0.00     0.001 C 
ATOM     10  C   UNL d   1       7.110   1.134  -0.314  0.00  0.00     0.014 C 
ENDBRANCH   3   5
BRANCH   2  11
ATOM     11  C   UNL d   1       7.181  -2.720  -3.423  0.00  0.00     0.040 C 
ATOM     12  C   UNL d   1       6.692  -3.004  -4.707  0.00  0.00     0.030 C 
ATOM     13  C   UNL d   1       7.541  -3.275  -5.793  0.00  0.00     0.004 C 
ATOM     14  C   UNL d   1       8.814  -3.721  -5.556  0.00  0.00     0.024 C 
ATOM     15  C   UNL d   1       9.212  -3.831  -4.236  0.00  0.00     0.036 C 
ATOM     16 CL   UNL d   1      10.645  -4.713  -3.890  0.00  0.00    -0.084 Cl
ATOM     17  C   UNL d   1       8.444  -3.273  -3.192  0.00  0.00     0.053 C 
ENDBRANCH   2  11
ENDBRANCH   1   2
BRANCH   1  18
ATOM     18  C   UNL d   1       4.151  -1.057  -1.412  0.00  0.00    -0.002 A 
ATOM     19  C   UNL d   1       3.946   0.366  -1.484  0.00  0.00     0.047 A 
ATOM     20  C   UNL d   1       3.420   1.090  -0.412  0.00  0.00     0.103 A 
ATOM     21  C   UNL d   1       3.111   0.418   0.774  0.00  0.00     0.038 A 
ATOM     22  C   UNL d   1       3.278  -0.980   0.853  0.00  0.00     0.027 A 
ATOM     23  C   UNL d   1       3.776  -1.722  -0.232  0.00  0.00     0.043 A 
ATOM     24 CL   UNL d   1       4.146  -3.388   0.032  0.00  0.00    -0.084 Cl
BRANCH  20  25
ATOM     25  N   UNL d   1       3.429   2.568  -0.452  0.00  0.00    -0.116 N 
ATOM     26  O   UNL d   1       3.903   3.110  -1.473  0.00  0.00    -0.532 OA
ATOM     27  O   UNL d   1       3.038   3.176   0.543  0.00  0.00    -0.532 OA
ENDBRANCH  20  25
ENDBRANCH   1  18
BRANCH   1  28
ATOM     28  C   UNL d   1       4.347  -1.071  -3.854  0.00  0.00     0.246 C 
ATOM     29  N   UNL d   1       5.160  -0.901  -4.938  0.00  0.00    -0.351 N 
ATOM     30  H   UNL d   1       6.148  -0.751  -4.745  0.00  0.00     0.163 HD
ATOM     31  O   UNL d   1       3.142  -0.786  -3.899  0.00  0.00    -0.271 OA
BRANCH  29  32
ATOM     32  C   UNL d   1       4.688  -0.524  -6.266  0.00  0.00     0.022 C 
ATOM     33  C   UNL d   1       5.713  -0.903  -7.353  0.00  0.00     0.037 C 
ATOM     34  C   UNL d   1       4.561   0.983  -6.194  0.00  0.00     0.037 C 
ATOM     35  C   UNL d   1       3.385  -1.252  -6.660  0.00  0.00     0.037 C 
ENDBRANCH  29  32
ENDBRANCH   1  28
TORSDOF 7
