REMARK  7 active torsions:
REMARK  status: ('A' for Active; 'I' for Inactive)
REMARK    1  A    between atoms: O_2  and  C_3 
REMARK    2  A    between atoms: C_5  and  O_6 
REMARK    3  A    between atoms: C_9  and  C_10 
REMARK       I    between atoms: C_10  and  N_12 
REMARK       I    between atoms: C_13  and  N_14 
REMARK       I    between atoms: C_13  and  N_26 
REMARK    4  A    between atoms: N_14  and  C_15 
REMARK    5  A    between atoms: C_15  and  C_16 
REMARK    6  A    between atoms: C_16  and  C_17 
REMARK    7  A    between atoms: N_26  and  C_27 
ROOT
ATOM      1  C   UNL d   1       3.046   1.728  -4.541  0.00  0.00     0.294 C 
ATOM      2  O   UNL d   1       3.749   1.759  -5.553  0.00  0.00    -0.265 OA
ATOM      3  N   UNL d   1       1.944   2.521  -4.315  0.00  0.00    -0.023 NA
ATOM      4  C   UNL d   1       1.567   3.362  -5.237  0.00  0.00     0.704 C 
ATOM      5  N   UNL d   1       0.459   4.136  -5.017  0.00  0.00    -0.224 N 
ATOM      6  N   UNL d   1       2.162   3.518  -6.460  0.00  0.00    -0.190 N 
ATOM      7  H   UNL d   1       0.087   4.637  -5.814  0.00  0.00     0.177 HD
ATOM      8  H   UNL d   1       2.969   2.911  -6.621  0.00  0.00     0.184 HD
ENDROOT
BRANCH   5   9
ATOM      9  C   UNL d   1      -0.361   4.031  -3.837  0.00  0.00     0.142 C 
BRANCH   9  10
ATOM     10  C   UNL d   1      -1.536   4.989  -3.913  0.00  0.00     0.057 C 
BRANCH  10  11
ATOM     11  C   UNL d   1      -2.468   4.980  -2.741  0.00  0.00    -0.048 A 
ATOM     12  C   UNL d   1      -3.504   5.818  -2.688  0.00  0.00    -0.006 A 
ATOM     13  C   UNL d   1      -3.949   6.809  -3.598  0.00  0.00     0.014 A 
ATOM     14  C   UNL d   1      -4.157   5.580  -1.395  0.00  0.00     0.038 A 
ATOM     15  C   UNL d   1      -4.940   7.620  -3.212  0.00  0.00     0.001 A 
ATOM     16  C   UNL d   1      -5.634   7.412  -1.949  0.00  0.00     0.002 A 
ATOM     17  C   UNL d   1      -5.303   6.456  -1.057  0.00  0.00     0.030 A 
ATOM     18  N   UNL d   1      -3.600   4.633  -0.753  0.00  0.00    -0.385 N 
ATOM     19  C   UNL d   1      -2.406   4.133  -1.500  0.00  0.00     0.155 A 
ATOM     20  H   UNL d   1      -3.952   4.291   0.144  0.00  0.00     0.160 HD
ENDBRANCH  10  11
ENDBRANCH   9  10
ENDBRANCH   5   9
BRANCH   6  21
ATOM     21  C   UNL d   1       1.905   4.405  -7.511  0.00  0.00     0.049 A 
ATOM     22  C   UNL d   1       1.899   3.922  -8.825  0.00  0.00     0.030 A 
ATOM     23  C   UNL d   1       1.578   4.763  -9.890  0.00  0.00     0.003 A 
ATOM     24  C   UNL d   1       1.201   6.082  -9.647  0.00  0.00     0.007 A 
ATOM     25  C   UNL d   1       1.222   6.589  -8.346  0.00  0.00    -0.060 A 
ATOM     26  C   UNL d   1       0.888   8.020  -8.060  0.00  0.00     0.048 C 
ATOM     27  C   UNL d   1       1.593   5.749  -7.292  0.00  0.00     0.036 A 
ENDBRANCH   6  21
BRANCH   1  28
ATOM     28  C   UNL d   1       3.408   0.779  -3.453  0.00  0.00     0.040 A 
ATOM     29  C   UNL d   1       4.570   0.014  -3.598  0.00  0.00     0.054 A 
ATOM     30  C   UNL d   1       5.020  -0.792  -2.556  0.00  0.00     0.071 A 
ATOM     31  C   UNL d   1       4.234  -0.917  -1.404  0.00  0.00     0.073 A 
ATOM     32  C   UNL d   1       3.061  -0.167  -1.256  0.00  0.00     0.071 A 
ATOM     33  C   UNL d   1       2.658   0.693  -2.277  0.00  0.00     0.054 A 
BRANCH  30  34
ATOM     34  O   UNL d   1       6.220  -1.453  -2.555  0.00  0.00    -0.356 OA
ATOM     35  C   UNL d   1       7.106  -1.141  -3.635  0.00  0.00     0.210 C 
ENDBRANCH  30  34
BRANCH  32  36
ATOM     36  O   UNL d   1       2.443  -0.237  -0.035  0.00  0.00    -0.356 OA
ATOM     37  C   UNL d   1       1.024  -0.137  -0.051  0.00  0.00     0.210 C 
ENDBRANCH  32  36
ENDBRANCH   1  28
TORSDOF 7
