@<TRIPOS>MOLECULE
*****
 57 59 0 0 0
SMALL
GASTEIGER

@<TRIPOS>ATOM
      1 C           0.8118   -0.2406    0.0839 C.3     1  UNL1       -0.0442
      2 C           2.3325   -0.2126    0.0774 C.3     1  UNL1        0.0262
      3 C           2.8351   -0.8154   -1.2519 C.3     1  UNL1       -0.0442
      4 C           2.6410    1.2619    0.2038 C.3     1  UNL1       -0.0442
      5 N           2.9331   -0.8627    1.2711 N.am    1  UNL1       -0.3087
      6 C           4.2454   -1.3506    1.2743 C.2     1  UNL1        0.2389
      7 O           4.7989   -1.6851    0.2375 O.2     1  UNL1       -0.2734
      8 C           4.9328   -1.7950    2.6008 C.3     1  UNL1        0.1339
      9 C           4.5226   -3.2833    2.5763 C.ar    1  UNL1        0.0069
     10 C           3.1295   -3.5459    2.6684 C.ar    1  UNL1        0.0224
     11 C           2.6276   -4.8338    2.5504 C.ar    1  UNL1        0.2736
     12 N           1.1910   -5.0488    2.3575 N.pl3   1  UNL1        0.0796
     13 O           0.4703   -4.0324    2.2537 O.2     1  UNL1        0.0414
     14 O           0.7860   -6.2062    2.2908 O.co2   1  UNL1       -0.5760
     15 C           3.5033   -5.9101    2.5869 C.ar    1  UNL1        0.0170
     16 C           4.8722   -5.6702    2.5314 C.ar    1  UNL1       -0.0366
     17 C           5.3582   -4.3825    2.3193 C.ar    1  UNL1        0.0468
     18 CL          6.9790   -4.3171    1.7215 Cl      1  UNL1       -0.0832
     19 N           6.4192   -1.4695    2.7762 N.am    1  UNL1       -0.2513
     20 C           7.2560   -0.9233    1.7048 C.2     1  UNL1        0.2518
     21 O           8.4814   -1.0920    1.6403 O.2     1  UNL1       -0.2696
     22 C           6.7636   -0.0484    0.5808 C.ar    1  UNL1        0.0374
     23 C           5.9751    1.0687    0.8298 C.ar    1  UNL1       -0.0482
     24 C           5.4978    1.8579   -0.2438 C.ar    1  UNL1       -0.0427
     25 C           5.6259    1.4221   -1.5586 C.ar    1  UNL1        0.0410
     26 CL          4.6022    2.0706   -2.7911 Cl      1  UNL1       -0.0835
     27 C           6.4672    0.3582   -1.8334 C.ar    1  UNL1       -0.0427
     28 C           7.0915   -0.3288   -0.7695 C.ar    1  UNL1       -0.0482
     29 C           7.1434   -2.0783    3.9518 C.ar    1  UNL1        0.0377
     30 C           8.4231   -1.6325    4.3044 C.ar    1  UNL1       -0.0402
     31 C           9.2969   -2.4099    5.0888 C.ar    1  UNL1       -0.0600
     32 C           8.9107   -3.6573    5.5605 C.ar    1  UNL1       -0.0616
     33 C           7.6144   -4.0731    5.3289 C.ar    1  UNL1       -0.0600
     34 C           6.7128   -3.2250    4.6556 C.ar    1  UNL1       -0.0402
     35 H           0.4391    0.3067   -0.7937 H       1  UNL1        0.0250
     36 H           0.4218    0.2694    0.9722 H       1  UNL1        0.0250
     37 H           0.4260   -1.2580    0.0609 H       1  UNL1        0.0250
     38 H           2.4311   -0.3019   -2.1255 H       1  UNL1        0.0250
     39 H           2.5841   -1.8813   -1.3105 H       1  UNL1        0.0250
     40 H           3.9142   -0.7432   -1.3870 H       1  UNL1        0.0250
     41 H           2.5284    1.8198   -0.7280 H       1  UNL1        0.0250
     42 H           3.6374    1.2655    0.5638 H       1  UNL1        0.0250
     43 H           2.1326    1.7955    1.0132 H       1  UNL1        0.0250
     44 H           2.3629   -0.8579    2.1056 H       1  UNL1        0.1493
     45 H           4.4537   -1.2956    3.4599 H       1  UNL1        0.0652
     46 H           2.4119   -2.7327    2.7331 H       1  UNL1        0.0689
     47 H           3.1480   -6.9326    2.6011 H       1  UNL1        0.0686
     48 H           5.5725   -6.4982    2.5957 H       1  UNL1        0.0634
     49 H           5.5992    1.2497    1.8343 H       1  UNL1        0.0625
     50 H           4.8201    2.6871   -0.0329 H       1  UNL1        0.0632
     51 H           6.5883    0.0265   -2.8620 H       1  UNL1        0.0632
     52 H           7.7469   -1.1613   -1.0116 H       1  UNL1        0.0625
     53 H           8.7922   -0.6814    3.9317 H       1  UNL1        0.0636
     54 H          10.3107   -2.0621    5.2642 H       1  UNL1        0.0618
     55 H           9.6049   -4.2930    6.1037 H       1  UNL1        0.0618
     56 H           7.3111   -5.0821    5.6101 H       1  UNL1        0.0618
     57 H           5.7149   -3.6293    4.5961 H       1  UNL1        0.0636
@<TRIPOS>UNITY_ATOM_ATTR
12 1
charge 1
14 1
charge -1
@<TRIPOS>BOND
     1     1     2    1
     2     2     3    1
     3     2     4    1
     4     2     5    1
     5     5     6   am
     6     6     7    2
     7     6     8    1
     8     8     9    1
     9     9    10   ar
    10    10    11   ar
    11    11    12    1
    12    12    13    2
    13    12    14    1
    14    11    15   ar
    15    15    16   ar
    16    16    17   ar
    17     9    17   ar
    18    17    18    1
    19     8    19    1
    20    19    20   am
    21    20    21    2
    22    20    22    1
    23    22    23   ar
    24    23    24   ar
    25    24    25   ar
    26    25    26    1
    27    25    27   ar
    28    27    28   ar
    29    22    28   ar
    30    19    29    1
    31    29    30   ar
    32    30    31   ar
    33    31    32   ar
    34    32    33   ar
    35    33    34   ar
    36    29    34   ar
    37     1    35    1
    38     1    36    1
    39     1    37    1
    40     3    38    1
    41     3    39    1
    42     3    40    1
    43     4    41    1
    44     4    42    1
    45     4    43    1
    46     5    44    1
    47     8    45    1
    48    10    46    1
    49    15    47    1
    50    16    48    1
    51    23    49    1
    52    24    50    1
    53    27    51    1
    54    28    52    1
    55    30    53    1
    56    31    54    1
    57    32    55    1
    58    33    56    1
    59    34    57    1
