@<TRIPOS>MOLECULE
*****
 28 29 0 0 0
SMALL
GASTEIGER

@<TRIPOS>ATOM
      1 O           1.0099    0.1167    0.1261 O.2     1  UNL1       -0.2685
      2 C           2.2356   -0.0082    0.1528 C.2     1  UNL1        0.2633
      3 N           2.9305   -1.0203    0.8305 N.am    1  UNL1       -0.2029
      4 N           2.2278   -2.0195    1.4794 N.2     1  UNL1       -0.1860
      5 C           2.8796   -2.8851    2.1954 C.2     1  UNL1        0.0689
      6 C           2.1730   -3.9744    2.8531 C.ar    1  UNL1        0.0590
      7 C           1.0562   -4.6551    2.3914 C.ar    1  UNL1       -0.0355
      8 C           0.7205   -5.6686    3.3191 C.ar    1  UNL1       -0.0438
      9 C           1.6149   -5.5734    4.3579 C.ar    1  UNL1        0.0022
     10 N           2.4905   -4.5509    4.0714 N.ar    1  UNL1       -0.3599
     11 C           3.0669    1.0098   -0.5712 C.ar    1  UNL1        0.0386
     12 C           2.7025    2.3714   -0.5748 C.ar    1  UNL1       -0.0461
     13 C           3.5044    3.3303   -1.2237 C.ar    1  UNL1       -0.0195
     14 C           4.6529    2.9180   -1.8913 C.ar    1  UNL1        0.1169
     15 O           5.4963    3.7908   -2.5142 O.3     1  UNL1       -0.5068
     16 C           4.9854    1.5689   -1.9495 C.ar    1  UNL1       -0.0195
     17 C           4.1945    0.6151   -1.2977 C.ar    1  UNL1       -0.0461
     18 H           3.9432   -1.0184    0.8715 H       1  UNL1        0.1776
     19 H           3.9770   -2.8441    2.3210 H       1  UNL1        0.0866
     20 H           0.5555   -4.4472    1.4544 H       1  UNL1        0.0639
     21 H          -0.0905   -6.3823    3.2381 H       1  UNL1        0.0633
     22 H           1.6948   -6.1459    5.2749 H       1  UNL1        0.0807
     23 H           3.2265   -4.2521    4.6978 H       1  UNL1        0.1654
     24 H           1.7944    2.6957   -0.0673 H       1  UNL1        0.0626
     25 H           3.2191    4.3794   -1.1969 H       1  UNL1        0.0654
     26 H           5.1852    4.7021   -2.3873 H       1  UNL1        0.2921
     27 H           5.8636    1.2596   -2.5096 H       1  UNL1        0.0654
     28 H           4.4511   -0.4345   -1.3955 H       1  UNL1        0.0626
@<TRIPOS>BOND
     1     1     2    2
     2     2     3   am
     3     3     4    1
     4     4     5    2
     5     5     6    1
     6     6     7   ar
     7     7     8   ar
     8     8     9   ar
     9     9    10   ar
    10     6    10   ar
    11     2    11    1
    12    11    12   ar
    13    12    13   ar
    14    13    14   ar
    15    14    15    1
    16    14    16   ar
    17    16    17   ar
    18    11    17   ar
    19     3    18    1
    20     5    19    1
    21     7    20    1
    22     8    21    1
    23     9    22    1
    24    10    23    1
    25    12    24    1
    26    13    25    1
    27    15    26    1
    28    16    27    1
    29    17    28    1
