@<TRIPOS>MOLECULE
*****
 60 64 0 0 0
SMALL
GASTEIGER

@<TRIPOS>ATOM
      1 C           0.8212    0.0391   -0.0645 C.3     1  UNL1       -0.0203
      2 C           2.3188   -0.0316    0.0969 C.2     1  UNL1        0.0639
      3 N           2.8893   -0.3318    1.2341 N.2     1  UNL1       -0.1842
      4 N           2.1855   -0.4951    2.4262 N.am    1  UNL1       -0.2014
      5 C           2.8492   -1.0245    3.5475 C.2     1  UNL1        0.2838
      6 O           3.9240   -1.5968    3.4576 O.2     1  UNL1       -0.2667
      7 C           2.1710   -0.9824    4.8323 C.ar    1  UNL1        0.1608
      8 C           2.4314   -0.3890    6.0849 C.ar    1  UNL1        0.1399
      9 C           3.4760    0.5874    6.6277 C.3     1  UNL1        0.0155
     10 N           4.4940    1.1042    5.6167 N.4     1  UNL1        0.2397
     11 C           5.3902   -0.0381    5.1881 C.3     1  UNL1       -0.0315
     12 C           6.1106    0.2393    3.8784 C.3     1  UNL1       -0.0123
     13 C           5.3103    0.9658    2.8144 C.3     1  UNL1       -0.0434
     14 C           4.6699    2.2198    3.3578 C.3     1  UNL1       -0.0123
     15 C           3.7918    1.9302    4.5566 C.3     1  UNL1       -0.0315
     16 N           1.4728   -0.8244    6.9621 N.ar    1  UNL1       -0.1279
     17 N           0.6204   -1.6017    6.3097 N.ar    1  UNL1       -0.0581
     18 N           1.0798   -1.8035    5.0538 N.ar    1  UNL1       -0.1830
     19 C           0.5432   -2.7127    4.1166 C.ar    1  UNL1        0.2407
     20 N          -0.7607   -2.6899    3.8508 N.ar    1  UNL1       -0.0272
     21 O          -0.8968   -3.6191    2.8112 O.2     1  UNL1       -0.2388
     22 N           0.3329   -4.1667    2.4560 N.ar    1  UNL1       -0.0319
     23 C           1.2237   -3.6129    3.2733 C.ar    1  UNL1        0.2064
     24 N           2.5322   -3.9267    3.2917 N.pl3   1  UNL1       -0.3375
     25 C           3.1512    0.2163   -1.1774 C.ar    1  UNL1        0.0052
     26 C           2.7568    1.2473   -2.0582 C.ar    1  UNL1       -0.0522
     27 C           3.4361    1.4839   -3.2620 C.ar    1  UNL1       -0.0606
     28 C           4.5297    0.7002   -3.6127 C.ar    1  UNL1       -0.0540
     29 C           4.9785   -0.3087   -2.7522 C.ar    1  UNL1       -0.0173
     30 C           6.1094   -1.0649   -3.1105 C.ar    1  UNL1       -0.0540
     31 C           6.5812   -2.0774   -2.2797 C.ar    1  UNL1       -0.0612
     32 C           5.9203   -2.3526   -1.0921 C.ar    1  UNL1       -0.0611
     33 C           4.7896   -1.6189   -0.7304 C.ar    1  UNL1       -0.0534
     34 C           4.2911   -0.5674   -1.5239 C.ar    1  UNL1       -0.0090
     35 H           0.2925   -0.1585    0.8648 H       1  UNL1        0.0293
     36 H           0.5147   -0.7309   -0.7762 H       1  UNL1        0.0293
     37 H           0.5136    1.0277   -0.4042 H       1  UNL1        0.0293
     38 H           1.1972   -0.2921    2.4535 H       1  UNL1        0.1776
     39 H           4.0557    0.1512    7.4577 H       1  UNL1        0.0884
     40 H           2.9979    1.4814    7.0596 H       1  UNL1        0.0884
     41 H           5.1237    1.7561    6.1051 H       1  UNL1        0.2037
     42 H           4.8064   -0.9539    5.2136 H       1  UNL1        0.0814
     43 H           6.1144   -0.2197    5.9909 H       1  UNL1        0.0814
     44 H           6.4867   -0.7049    3.4646 H       1  UNL1        0.0317
     45 H           6.9774    0.8610    4.1047 H       1  UNL1        0.0317
     46 H           4.5331    0.3322    2.4424 H       1  UNL1        0.0269
     47 H           5.9140    1.1629    1.9239 H       1  UNL1        0.0269
     48 H           4.0529    2.6776    2.5732 H       1  UNL1        0.0317
     49 H           5.4517    2.9338    3.6227 H       1  UNL1        0.0317
     50 H           2.8873    1.4100    4.2446 H       1  UNL1        0.0814
     51 H           3.4524    2.8577    5.0317 H       1  UNL1        0.0814
     52 H           2.8998   -4.5759    2.6014 H       1  UNL1        0.1439
     53 H           3.2730   -3.3945    3.7460 H       1  UNL1        0.1439
     54 H           1.9195    1.9005   -1.8307 H       1  UNL1        0.0624
     55 H           3.1168    2.2805   -3.9340 H       1  UNL1        0.0618
     56 H           5.0309    0.8867   -4.5643 H       1  UNL1        0.0624
     57 H           6.6421   -0.8703   -4.0414 H       1  UNL1        0.0624
     58 H           7.4583   -2.6546   -2.5609 H       1  UNL1        0.0618
     59 H           6.2754   -3.1420   -0.4363 H       1  UNL1        0.0618
     60 H           4.3031   -1.8918    0.1996 H       1  UNL1        0.0624
@<TRIPOS>UNITY_ATOM_ATTR
10 1
charge 1
@<TRIPOS>BOND
     1     1     2    1
     2     2     3    2
     3     3     4    1
     4     4     5   am
     5     5     6    2
     6     5     7    1
     7     7     8   ar
     8     8     9    1
     9     9    10    1
    10    10    11    1
    11    11    12    1
    12    12    13    1
    13    13    14    1
    14    14    15    1
    15    10    15    1
    16     8    16   ar
    17    16    17   ar
    18    17    18   ar
    19     7    18   ar
    20    18    19    1
    21    19    20   ar
    22    20    21   ar
    23    21    22   ar
    24    22    23   ar
    25    19    23   ar
    26    23    24    1
    27     2    25    1
    28    25    26   ar
    29    26    27   ar
    30    27    28   ar
    31    28    29   ar
    32    29    30   ar
    33    30    31   ar
    34    31    32   ar
    35    32    33   ar
    36    33    34   ar
    37    25    34   ar
    38    29    34   ar
    39     1    35    1
    40     1    36    1
    41     1    37    1
    42     4    38    1
    43     9    39    1
    44     9    40    1
    45    10    41    1
    46    11    42    1
    47    11    43    1
    48    12    44    1
    49    12    45    1
    50    13    46    1
    51    13    47    1
    52    14    48    1
    53    14    49    1
    54    15    50    1
    55    15    51    1
    56    24    52    1
    57    24    53    1
    58    26    54    1
    59    27    55    1
    60    28    56    1
    61    30    57    1
    62    31    58    1
    63    32    59    1
    64    33    60    1
