@<TRIPOS>MOLECULE
*****
 55 56 0 0 0
SMALL
GASTEIGER

@<TRIPOS>ATOM
      1 C           1.0631    0.0655    0.0193 C.3     1  UNL1       -0.0648
      2 C           2.5861    0.0568    0.0070 C.3     1  UNL1       -0.0476
      3 C           3.1763   -0.7611   -1.1540 C.3     1  UNL1        0.0252
      4 C           4.7077   -0.7483   -1.1369 C.2     1  UNL1        0.2291
      5 O           5.3611   -0.1478   -0.2823 O.2     1  UNL1       -0.2743
      6 N           5.3261   -1.4602   -2.1535 N.am    1  UNL1       -0.2342
      7 N           6.7474   -1.4975   -2.1905 N.am    1  UNL1       -0.2304
      8 C           7.4003   -2.1385   -3.2345 C.2     1  UNL1        0.2601
      9 O           6.8014   -2.7014   -4.1534 O.2     1  UNL1       -0.2687
     10 C           8.8981   -2.1580   -3.2034 C.ar    1  UNL1        0.0383
     11 C           9.6629   -2.0759   -4.3812 C.ar    1  UNL1       -0.0478
     12 C          11.0716   -2.2383   -4.3533 C.ar    1  UNL1       -0.0398
     13 C          11.7395   -2.4353   -3.1378 C.ar    1  UNL1        0.0337
     14 N          13.1643   -2.4981   -3.0903 N.am    1  UNL1       -0.2815
     15 C          13.9062   -2.6447   -1.9230 C.2     1  UNL1        0.2483
     16 O          13.4633   -2.7881   -0.7801 O.2     1  UNL1       -0.2699
     17 C          15.3782   -2.6097   -2.0026 C.ar    1  UNL1        0.0370
     18 C          16.0993   -3.4603   -1.1525 C.ar    1  UNL1       -0.0494
     19 C          17.4785   -3.3186   -1.0134 C.ar    1  UNL1       -0.0574
     20 C          18.1803   -2.3737   -1.7782 C.ar    1  UNL1       -0.0419
     21 C          19.7157   -2.3490   -1.7453 C.3     1  UNL1       -0.0127
     22 C          20.2354   -2.0477   -0.3269 C.3     1  UNL1       -0.0560
     23 C          20.2470   -3.7300   -2.1914 C.3     1  UNL1       -0.0560
     24 C          20.3006   -1.2937   -2.7064 C.3     1  UNL1       -0.0560
     25 C          17.4307   -1.5118   -2.6045 C.ar    1  UNL1       -0.0574
     26 C          16.0424   -1.6217   -2.7192 C.ar    1  UNL1       -0.0494
     27 C          10.9533   -2.5386   -1.9849 C.ar    1  UNL1       -0.0398
     28 C           9.5605   -2.3984   -2.0059 C.ar    1  UNL1       -0.0478
     29 H           0.6935    0.6602    0.8632 H       1  UNL1        0.0230
     30 H           0.6621   -0.9472    0.1244 H       1  UNL1        0.0230
     31 H           0.6621    0.5050   -0.8991 H       1  UNL1        0.0230
     32 H           2.9424   -0.3449    0.9635 H       1  UNL1        0.0267
     33 H           2.9424    1.0927   -0.0496 H       1  UNL1        0.0267
     34 H           2.8262   -0.3461   -2.1062 H       1  UNL1        0.0359
     35 H           2.8265   -1.7976   -1.0833 H       1  UNL1        0.0359
     36 H           4.8355   -1.9778   -2.8806 H       1  UNL1        0.1728
     37 H           7.2234   -0.9611   -1.4649 H       1  UNL1        0.1731
     38 H           9.1662   -1.8856   -5.3317 H       1  UNL1        0.0626
     39 H          11.6162   -2.2220   -5.2961 H       1  UNL1        0.0636
     40 H          13.6660   -2.4008   -3.9666 H       1  UNL1        0.1551
     41 H          15.5807   -4.2208   -0.5707 H       1  UNL1        0.0625
     42 H          17.9956   -3.9565   -0.2985 H       1  UNL1        0.0621
     43 H          19.9162   -2.8028    0.4000 H       1  UNL1        0.0238
     44 H          19.8778   -1.0750    0.0282 H       1  UNL1        0.0238
     45 H          21.3319   -2.0300   -0.3084 H       1  UNL1        0.0238
     46 H          19.9239   -4.5343   -1.5203 H       1  UNL1        0.0238
     47 H          21.3423   -3.7467   -2.2076 H       1  UNL1        0.0238
     48 H          19.8917   -3.9829   -3.1975 H       1  UNL1        0.0238
     49 H          19.9797   -0.2830   -2.4268 H       1  UNL1        0.0238
     50 H          19.9779   -1.4794   -3.7387 H       1  UNL1        0.0238
     51 H          21.3947   -1.3022   -2.7026 H       1  UNL1        0.0238
     52 H          17.9085   -0.7170   -3.1705 H       1  UNL1        0.0621
     53 H          15.5027   -0.9006   -3.3239 H       1  UNL1        0.0625
     54 H          11.3874   -2.7545   -1.0169 H       1  UNL1        0.0636
     55 H           9.0236   -2.5247   -1.0710 H       1  UNL1        0.0626
@<TRIPOS>BOND
     1     1     2    1
     2     2     3    1
     3     3     4    1
     4     4     5    2
     5     4     6   am
     6     6     7    1
     7     7     8   am
     8     8     9    2
     9     8    10    1
    10    10    11   ar
    11    11    12   ar
    12    12    13   ar
    13    13    14    1
    14    14    15   am
    15    15    16    2
    16    15    17    1
    17    17    18   ar
    18    18    19   ar
    19    19    20   ar
    20    20    21    1
    21    21    22    1
    22    21    23    1
    23    21    24    1
    24    20    25   ar
    25    25    26   ar
    26    17    26   ar
    27    13    27   ar
    28    27    28   ar
    29    10    28   ar
    30     1    29    1
    31     1    30    1
    32     1    31    1
    33     2    32    1
    34     2    33    1
    35     3    34    1
    36     3    35    1
    37     6    36    1
    38     7    37    1
    39    11    38    1
    40    12    39    1
    41    14    40    1
    42    18    41    1
    43    19    42    1
    44    22    43    1
    45    22    44    1
    46    22    45    1
    47    23    46    1
    48    23    47    1
    49    23    48    1
    50    24    49    1
    51    24    50    1
    52    24    51    1
    53    25    52    1
    54    26    53    1
    55    27    54    1
    56    28    55    1
