REMARK  6 active torsions:
REMARK  status: ('A' for Active; 'I' for Inactive)
REMARK    1  A    between atoms: C_4  and  C_5 
REMARK       I    between atoms: C_5  and  N_7 
REMARK    2  A    between atoms: N_7  and  C_8 
REMARK    3  A    between atoms: C_13  and  N_14 
REMARK    4  A    between atoms: N_14  and  C_15 
REMARK    5  A    between atoms: C_15  and  C_16 
REMARK       I    between atoms: C_16  and  N_18 
REMARK    6  A    between atoms: N_18  and  C_19 
ROOT
ATOM      1  C   UNL d   1       4.888   5.540  -0.002  0.00  0.00     0.036 A 
ATOM      2  C   UNL d   1       4.341   6.516   0.833  0.00  0.00     0.029 A 
ATOM      3  C   UNL d   1       4.837   7.814   0.836  0.00  0.00     0.004 A 
ATOM      4  C   UNL d   1       5.878   8.159  -0.019  0.00  0.00     0.023 A 
ATOM      5  C   UNL d   1       6.445   7.192  -0.861  0.00  0.00     0.046 A 
ATOM      6  C   UNL d   1       7.489   7.582  -1.762  0.00  0.00     0.099 C 
ATOM      7  N   UNL d   1       8.335   7.920  -2.489  0.00  0.00    -0.191 NA
ATOM      8  C   UNL d   1       5.970   5.867  -0.830  0.00  0.00     0.052 A 
ENDROOT
BRANCH   1   9
ATOM      9  N   UNL d   1       4.325   4.245  -0.001  0.00  0.00    -0.326 N 
ATOM     10  C   UNL d   1       2.932   4.068   0.015  0.00  0.00     0.239 C 
ATOM     11  O   UNL d   1       2.104   4.979  -0.005  0.00  0.00    -0.271 OA
ATOM     12  H   UNL d   1       4.940   3.459  -0.191  0.00  0.00     0.169 HD
BRANCH  10  13
ATOM     13  C   UNL d   1       2.486   2.618   0.013  0.00  0.00     0.223 C 
BRANCH  13  14
ATOM     14  N   UNL d   1       1.030   2.442   0.009  0.00  0.00    -0.381 N 
ATOM     15  H   UNL d   1       0.495   3.309  -0.009  0.00  0.00     0.160 HD
BRANCH  14  16
ATOM     16  C   UNL d   1       0.363   1.224   0.003  0.00  0.00     0.034 A 
ATOM     17  C   UNL d   1      -1.049   1.221   0.001  0.00  0.00     0.031 A 
ATOM     18  C   UNL d   1      -1.806   0.031  -0.010  0.00  0.00     0.019 A 
ATOM     19  C   UNL d   1      -1.169  -1.207  -0.009  0.00  0.00     0.032 A 
ATOM     20  C   UNL d   1       0.231  -1.223   0.002  0.00  0.00     0.026 A 
ATOM     21  C   UNL d   1       0.997  -0.036   0.003  0.00  0.00    -0.035 A 
ATOM     22  C   UNL d   1       2.488  -0.207  -0.015  0.00  0.00     0.050 C 
BRANCH  19  23
ATOM     23  C   UNL d   1      -1.885  -2.524  -0.024  0.00  0.00     0.252 C 
ATOM     24  O   UNL d   1      -1.222  -3.558  -0.053  0.00  0.00    -0.268 OA
ATOM     25  N   UNL d   1      -3.271  -2.529   0.006  0.00  0.00    -0.353 N 
ATOM     26  H   UNL d   1      -3.789  -1.665   0.001  0.00  0.00     0.163 HD
BRANCH  25  27
ATOM     27  C   UNL d   1      -4.039  -3.773   0.031  0.00  0.00     0.076 C 
ATOM     28  C   UNL d   1      -3.721  -4.592   1.282  0.00  0.00     0.032 C 
ATOM     29  C   UNL d   1      -5.544  -3.494  -0.004  0.00  0.00     0.032 C 
ENDBRANCH  25  27
ENDBRANCH  19  23
ENDBRANCH  14  16
ENDBRANCH  13  14
ENDBRANCH  10  13
ENDBRANCH   1   9
TORSDOF 6
