@<TRIPOS>MOLECULE
*****
 52 54 0 0 0
SMALL
GASTEIGER

@<TRIPOS>ATOM
      1 C           0.9854    0.0956    0.0780 C.3     1  UNL1        0.0788
      2 O           2.4082   -0.0346    0.0723 O.3     1  UNL1       -0.4940
      3 C           2.9250   -0.7139    1.1444 C.ar    1  UNL1        0.1340
      4 C           3.9704   -0.0744    1.8221 C.ar    1  UNL1       -0.0181
      5 C           4.5680   -0.6915    2.9312 C.ar    1  UNL1       -0.0461
      6 C           4.1495   -1.9667    3.3778 C.ar    1  UNL1        0.0383
      7 C           4.8153   -2.5636    4.5707 C.2     1  UNL1        0.2496
      8 O           5.6698   -1.8253    5.0734 O.2     1  UNL1       -0.2698
      9 N           4.4667   -3.8419    5.0818 N.am    1  UNL1       -0.2636
     10 C           5.1108   -4.4852    6.1671 C.2     1  UNL1        0.1411
     11 S           6.4816   -3.8348    6.9244 S.2     1  UNL1       -0.0182
     12 N           4.5385   -5.7355    6.5560 N.am    1  UNL1       -0.2965
     13 C           5.0492   -6.4730    7.6932 C.ar    1  UNL1        0.0341
     14 C           5.1915   -5.8270    8.9247 C.ar    1  UNL1       -0.0387
     15 C           5.8974   -6.3963    9.9971 C.ar    1  UNL1       -0.0375
     16 C           6.4574   -7.6752    9.9203 C.ar    1  UNL1        0.0487
     17 N           7.1511   -8.1689   11.0180 N.pl3   1  UNL1       -0.3186
     18 C           8.5336   -8.6579   10.9547 C.3     1  UNL1        0.0525
     19 C           8.5968  -10.1399   11.3878 C.3     1  UNL1       -0.0160
     20 N           7.9397  -10.3425   12.7599 N.4     1  UNL1        0.2353
     21 C           7.9481  -11.7921   13.1529 C.3     1  UNL1       -0.0430
     22 C           6.5185   -9.7607   12.7847 C.3     1  UNL1       -0.0160
     23 C           6.5072   -8.2794   12.3332 C.3     1  UNL1        0.0525
     24 C           6.2320   -8.3596    8.6972 C.ar    1  UNL1        0.0637
     25 CL          6.8017   -9.9816    8.4629 Cl      1  UNL1       -0.0816
     26 C           5.5102   -7.7868    7.6087 C.ar    1  UNL1       -0.0204
     27 C           3.1495   -2.6128    2.6696 C.ar    1  UNL1       -0.0321
     28 C           2.5612   -2.0089    1.5472 C.ar    1  UNL1        0.0602
     29 BR          1.3779   -3.1613    0.6017 Br      1  UNL1       -0.0465
     30 H           0.6906    0.6915   -0.7907 H       1  UNL1        0.0660
     31 H           0.6280    0.5891    0.9870 H       1  UNL1        0.0660
     32 H           0.4721   -0.8538   -0.0483 H       1  UNL1        0.0660
     33 H           4.3323    0.9035    1.4996 H       1  UNL1        0.0655
     34 H           5.3708   -0.1606    3.4504 H       1  UNL1        0.0626
     35 H           3.7251   -4.3467    4.6202 H       1  UNL1        0.1568
     36 H           4.0311   -6.2781    5.8642 H       1  UNL1        0.1538
     37 H           4.8074   -4.8157    9.0454 H       1  UNL1        0.0637
     38 H           6.0569   -5.7724   10.8743 H       1  UNL1        0.0637
     39 H           9.1349   -8.0721   11.6659 H       1  UNL1        0.0516
     40 H           8.9911   -8.5134    9.9715 H       1  UNL1        0.0516
     41 H           9.6328  -10.4818   11.4740 H       1  UNL1        0.0830
     42 H           8.0556  -10.7913   10.7008 H       1  UNL1        0.0830
     43 H           8.5002   -9.8229   13.4472 H       1  UNL1        0.2032
     44 H           7.3527  -12.3544   12.4277 H       1  UNL1        0.0778
     45 H           7.5214  -11.8767   14.1554 H       1  UNL1        0.0778
     46 H           8.9848  -12.1393   13.1554 H       1  UNL1        0.0778
     47 H           6.1532   -9.8604   13.8116 H       1  UNL1        0.0830
     48 H           5.9154  -10.3775   12.1096 H       1  UNL1        0.0830
     49 H           7.0664   -7.6780   13.0621 H       1  UNL1        0.0516
     50 H           5.4751   -7.9128   12.3280 H       1  UNL1        0.0516
     51 H           5.4019   -8.3637    6.6934 H       1  UNL1        0.0651
     52 H           2.8176   -3.6013    2.9503 H       1  UNL1        0.0637
@<TRIPOS>UNITY_ATOM_ATTR
20 1
charge 1
@<TRIPOS>BOND
     1     1     2    1
     2     2     3    1
     3     3     4   ar
     4     4     5   ar
     5     5     6   ar
     6     6     7    1
     7     7     8    2
     8     7     9   am
     9     9    10    1
    10    10    11    2
    11    10    12    1
    12    12    13    1
    13    13    14   ar
    14    14    15   ar
    15    15    16   ar
    16    16    17    1
    17    17    18    1
    18    18    19    1
    19    19    20    1
    20    20    21    1
    21    20    22    1
    22    22    23    1
    23    17    23    1
    24    16    24   ar
    25    24    25    1
    26    24    26   ar
    27    13    26   ar
    28     6    27   ar
    29    27    28   ar
    30     3    28   ar
    31    28    29    1
    32     1    30    1
    33     1    31    1
    34     1    32    1
    35     4    33    1
    36     5    34    1
    37     9    35    1
    38    12    36    1
    39    14    37    1
    40    15    38    1
    41    18    39    1
    42    18    40    1
    43    19    41    1
    44    19    42    1
    45    20    43    1
    46    21    44    1
    47    21    45    1
    48    21    46    1
    49    22    47    1
    50    22    48    1
    51    23    49    1
    52    23    50    1
    53    26    51    1
    54    27    52    1
