@<TRIPOS>MOLECULE
*****
 40 43 0 0 0
SMALL
GASTEIGER

@<TRIPOS>ATOM
      1 O           1.7645    0.2059   -3.2881 O.2     1  UNL1       -0.2738
      2 C           1.6966    0.1309   -2.0645 C.2     1  UNL1        0.2358
      3 N           0.4788    0.0921   -1.3685 N.am    1  UNL1       -0.2067
      4 N          -0.7188    0.1432   -2.0638 N.2     1  UNL1       -0.1876
      5 C          -1.8266    0.1706   -1.3883 C.2     1  UNL1        0.0548
      6 C          -3.1012    0.2307   -2.0996 C.ar    1  UNL1        0.0195
      7 C          -4.2151    0.9707   -1.7354 C.ar    1  UNL1        0.0114
      8 N          -5.1918    0.7913   -2.6905 N.ar    1  UNL1       -0.3600
      9 C          -4.7827   -0.1391   -3.6181 C.ar    1  UNL1        0.0471
     10 C          -5.4530   -0.6931   -4.7204 C.ar    1  UNL1       -0.0378
     11 C          -4.7770   -1.6683   -5.4640 C.ar    1  UNL1       -0.0598
     12 C          -3.4785   -2.0492   -5.1366 C.ar    1  UNL1       -0.0611
     13 C          -2.8172   -1.4615   -4.0570 C.ar    1  UNL1       -0.0520
     14 C          -3.4765   -0.4958   -3.2747 C.ar    1  UNL1        0.0083
     15 C           2.9339    0.0669   -1.1914 C.3     1  UNL1        0.0434
     16 C           4.2743    0.7555   -1.4503 C.3     1  UNL1       -0.0261
     17 C           4.7149    1.5022   -2.6712 C.3     1  UNL1       -0.0492
     18 C           4.6372    0.7119   -3.9673 C.3     1  UNL1       -0.0528
     19 C           5.2046   -0.6899   -3.8109 C.3     1  UNL1       -0.0528
     20 C           4.4495   -1.4983   -2.7577 C.3     1  UNL1       -0.0492
     21 C           4.2022   -0.7505   -1.4814 C.3     1  UNL1       -0.0261
     22 H           0.4610    0.0196   -0.3599 H       1  UNL1        0.1772
     23 H          -1.8650    0.1552   -0.2856 H       1  UNL1        0.0852
     24 H          -4.3944    1.6443   -0.9080 H       1  UNL1        0.0813
     25 H          -6.0953    1.2477   -2.7006 H       1  UNL1        0.1654
     26 H          -6.4632   -0.3992   -4.9902 H       1  UNL1        0.0638
     27 H          -5.2696   -2.1401   -6.3114 H       1  UNL1        0.0618
     28 H          -2.9647   -2.8082   -5.7197 H       1  UNL1        0.0618
     29 H          -1.8020   -1.7547   -3.8065 H       1  UNL1        0.0624
     30 H           2.6568    0.0695   -0.1390 H       1  UNL1        0.0400
     31 H           4.7522    1.2013   -0.5787 H       1  UNL1        0.0311
     32 H           5.7657    1.7996   -2.5281 H       1  UNL1        0.0268
     33 H           4.1475    2.4341   -2.7537 H       1  UNL1        0.0268
     34 H           5.1614    1.2494   -4.7641 H       1  UNL1        0.0265
     35 H           3.6069    0.6436   -4.3041 H       1  UNL1        0.0265
     36 H           6.2687   -0.6261   -3.5496 H       1  UNL1        0.0265
     37 H           5.1450   -1.2158   -4.7710 H       1  UNL1        0.0265
     38 H           5.0464   -2.3952   -2.5385 H       1  UNL1        0.0268
     39 H           3.5007   -1.8621   -3.1614 H       1  UNL1        0.0268
     40 H           4.6691   -1.2682   -0.6469 H       1  UNL1        0.0311
@<TRIPOS>BOND
     1     1     2    2
     2     2     3   am
     3     3     4    1
     4     4     5    2
     5     5     6    1
     6     6     7   ar
     7     7     8   ar
     8     8     9   ar
     9     9    10   ar
    10    10    11   ar
    11    11    12   ar
    12    12    13   ar
    13    13    14   ar
    14     6    14   ar
    15     9    14   ar
    16    15    16    1
    17    16    17    1
    18    17    18    1
    19    18    19    1
    20    19    20    1
    21    20    21    1
    22    16    21    1
    23    15    21    1
    24    15     2    1
    25     3    22    1
    26     5    23    1
    27     7    24    1
    28     8    25    1
    29    10    26    1
    30    11    27    1
    31    12    28    1
    32    13    29    1
    33    15    30    1
    34    16    31    1
    35    17    32    1
    36    17    33    1
    37    18    34    1
    38    18    35    1
    39    19    36    1
    40    19    37    1
    41    20    38    1
    42    20    39    1
    43    21    40    1
