REMARK  10 active torsions:
REMARK  status: ('A' for Active; 'I' for Inactive)
REMARK    1  A    between atoms: O_2  and  C_3 
REMARK    2  A    between atoms: C_5  and  C_6 
REMARK       I    between atoms: C_6  and  N_8 
REMARK    3  A    between atoms: N_8  and  C_9 
REMARK    4  A    between atoms: C_9  and  C_10 
REMARK       I    between atoms: C_10  and  N_12 
REMARK    5  A    between atoms: N_12  and  N_13 
REMARK    6  A    between atoms: N_13  and  C_14 
REMARK    7  A    between atoms: C_14  and  N_16 
REMARK    8  A    between atoms: N_16  and  C_17 
REMARK    9  A    between atoms: C_22  and  O_23 
REMARK   10  A    between atoms: O_23  and  C_24 
ROOT
ATOM      1  C   UNL d   1       6.666  -1.346   2.038  0.00  0.00     0.252 C 
ATOM      2  O   UNL d   1       7.003  -0.179   2.110  0.00  0.00    -0.268 OA
ATOM      3  N   UNL d   1       7.561  -2.389   2.293  0.00  0.00    -0.348 N 
ATOM      4  H   UNL d   1       7.303  -3.358   2.184  0.00  0.00     0.163 HD
ENDROOT
BRANCH   3   5
ATOM      5  C   UNL d   1       8.972  -2.172   2.653  0.00  0.00     0.227 C 
BRANCH   5   6
ATOM      6  C   UNL d   1       9.729  -3.514   2.898  0.00  0.00     0.253 C 
ATOM      7  O   UNL d   1       9.178  -4.609   2.764  0.00  0.00    -0.270 OA
ATOM      8  N   UNL d   1      11.061  -3.396   3.273  0.00  0.00    -0.267 N 
ATOM      9  H   UNL d   1      11.537  -2.500   3.377  0.00  0.00     0.190 HD
BRANCH   8  10
ATOM     10  N   UNL d   1      11.881  -4.556   3.516  0.00  0.00    -0.274 N 
ATOM     11  H   UNL d   1      11.423  -5.458   3.402  0.00  0.00     0.189 HD
BRANCH  10  12
ATOM     12  C   UNL d   1      13.211  -4.395   3.914  0.00  0.00     0.186 C 
ATOM     13  S   UNL d   1      13.868  -2.864   4.173  0.00  0.00    -0.040 SA
BRANCH  12  14
ATOM     14  N   UNL d   1      13.930  -5.587   4.039  0.00  0.00    -0.361 N 
ATOM     15  H   UNL d   1      13.434  -6.471   3.994  0.00  0.00     0.162 HD
BRANCH  14  16
ATOM     16  C   UNL d   1      15.324  -5.666   4.447  0.00  0.00     0.084 A 
ATOM     17  C   UNL d   1      16.355  -6.477   3.693  0.00  0.00     0.027 A 
ATOM     18  C   UNL d   1      16.392  -4.985   3.622  0.00  0.00     0.027 A 
ENDBRANCH  14  16
ENDBRANCH  12  14
ENDBRANCH  10  12
ENDBRANCH   8  10
ENDBRANCH   5   6
ENDBRANCH   3   5
BRANCH   1  19
ATOM     19  C   UNL d   1       5.250  -1.701   1.609  0.00  0.00     0.034 A 
ATOM     20  C   UNL d   1       4.335  -0.690   1.208  0.00  0.00     0.056 A 
ATOM     21  C   UNL d   1       3.087  -0.977   0.570  0.00  0.00     0.102 A 
ATOM     22  C   UNL d   1       2.750  -2.336   0.395  0.00  0.00     0.108 A 
ATOM     23  C   UNL d   1       3.625  -3.326   0.884  0.00  0.00     0.041 A 
ATOM     24  C   UNL d   1       4.844  -3.023   1.488  0.00  0.00     0.020 A 
BRANCH  21  25
ATOM     25  O   UNL d   1       2.544   0.132  -0.048  0.00  0.00    -0.353 OA
ATOM     26  C   UNL d   1       1.196   0.579   0.104  0.00  0.00     0.210 C 
ENDBRANCH  21  25
BRANCH  22  27
ATOM     27  O   UNL d   1       1.714  -2.966  -0.250  0.00  0.00    -0.287 OA
BRANCH  27  28
ATOM     28  C   UNL d   1       0.695  -2.130  -0.704  0.00  0.00     0.505 C 
ATOM     29  F   UNL d   1       1.186  -1.401  -1.732  0.00  0.00    -0.184 F 
ATOM     30  F   UNL d   1      -0.324  -2.859  -1.217  0.00  0.00    -0.184 F 
ENDBRANCH  27  28
ENDBRANCH  22  27
ENDBRANCH   1  19
TORSDOF 10
