@<TRIPOS>MOLECULE
*****
 44 45 0 0 0
SMALL
GASTEIGER

@<TRIPOS>ATOM
      1 C           1.1457    0.0259    0.0998 C.3     1  UNL1        0.0833
      2 O           2.5843    0.0200    0.1154 O.3     1  UNL1       -0.4535
      3 C           3.1107   -1.0029    0.8472 C.2     1  UNL1        0.4043
      4 O           2.4108   -1.8380    1.4220 O.2     1  UNL1       -0.2261
      5 N           4.4858   -0.9377    0.8960 N.am    1  UNL1       -0.2512
      6 C           5.3067   -1.9151    1.5041 C.ar    1  UNL1        0.0365
      7 C           6.5295   -1.5742    2.0879 C.ar    1  UNL1       -0.0401
      8 C           7.3797   -2.5775    2.6077 C.ar    1  UNL1       -0.0553
      9 C           7.0076   -3.9381    2.5901 C.ar    1  UNL1       -0.0302
     10 C           7.8870   -4.9861    3.2616 C.3     1  UNL1        0.0373
     11 N           7.3856   -6.3528    3.2239 N.am    1  UNL1       -0.3035
     12 C           8.0205   -7.4336    3.8056 C.2     1  UNL1        0.2996
     13 O           9.0730   -7.4014    4.4245 O.2     1  UNL1       -0.2652
     14 C           7.2579   -8.7759    3.6067 C.2     1  UNL1        0.3031
     15 O           6.2126   -8.7505    2.9638 O.2     1  UNL1       -0.2648
     16 N           7.8188   -9.8854    4.2334 N.am    1  UNL1       -0.2777
     17 C           7.3033  -11.1964    4.1073 C.ar    1  UNL1        0.0343
     18 C           7.3579  -12.0995    5.1746 C.ar    1  UNL1       -0.0404
     19 C           6.9001  -13.4177    5.0148 C.ar    1  UNL1       -0.0595
     20 C           6.3699  -13.8354    3.7941 C.ar    1  UNL1       -0.0500
     21 C           6.3342  -12.9501    2.7104 C.ar    1  UNL1        0.0566
     22 C           5.8673  -13.4143    1.3567 C.3     1  UNL1        0.4175
     23 F           6.6008  -14.4667    0.8968 F       1  UNL1       -0.1659
     24 F           4.5725  -13.8310    1.3586 F       1  UNL1       -0.1659
     25 F           5.9548  -12.4563    0.3922 F       1  UNL1       -0.1659
     26 C           6.7890  -11.6336    2.8853 C.ar    1  UNL1       -0.0288
     27 C           5.7885   -4.2507    1.9797 C.ar    1  UNL1       -0.0553
     28 C           4.9475   -3.2591    1.4657 C.ar    1  UNL1       -0.0401
     29 H           0.7978    0.8643   -0.5115 H       1  UNL1        0.0661
     30 H           0.7507    0.1607    1.1134 H       1  UNL1        0.0661
     31 H           0.7517   -0.8987   -0.3388 H       1  UNL1        0.0661
     32 H           4.9207   -0.1127    0.5046 H       1  UNL1        0.1582
     33 H           6.8109   -0.5302    2.2131 H       1  UNL1        0.0636
     34 H           8.3376   -2.2787    3.0346 H       1  UNL1        0.0621
     35 H           8.0014   -4.7187    4.3193 H       1  UNL1        0.0512
     36 H           8.8837   -4.9856    2.8056 H       1  UNL1        0.0512
     37 H           6.4956   -6.5713    2.7912 H       1  UNL1        0.1495
     38 H           8.5991   -9.7210    4.8631 H       1  UNL1        0.1553
     39 H           7.6907  -11.7841    6.1602 H       1  UNL1        0.0636
     40 H           6.9587  -14.1264    5.8394 H       1  UNL1        0.0618
     41 H           5.9947  -14.8529    3.6821 H       1  UNL1        0.0623
     42 H           6.7863  -10.9624    2.0286 H       1  UNL1        0.0642
     43 H           5.4420   -5.2707    1.8682 H       1  UNL1        0.0621
     44 H           4.0201   -3.5765    0.9971 H       1  UNL1        0.0636
@<TRIPOS>BOND
     1     1     2    1
     2     2     3    1
     3     3     4    2
     4     3     5   am
     5     5     6    1
     6     6     7   ar
     7     7     8   ar
     8     8     9   ar
     9     9    10    1
    10    10    11    1
    11    11    12   am
    12    12    13    2
    13    12    14    1
    14    14    15    2
    15    14    16   am
    16    16    17    1
    17    17    18   ar
    18    18    19   ar
    19    19    20   ar
    20    20    21   ar
    21    21    22    1
    22    22    23    1
    23    22    24    1
    24    22    25    1
    25    21    26   ar
    26    17    26   ar
    27     9    27   ar
    28    27    28   ar
    29     6    28   ar
    30     1    29    1
    31     1    30    1
    32     1    31    1
    33     5    32    1
    34     7    33    1
    35     8    34    1
    36    10    35    1
    37    10    36    1
    38    11    37    1
    39    16    38    1
    40    18    39    1
    41    19    40    1
    42    20    41    1
    43    26    42    1
    44    27    43    1
    45    28    44    1
