@<TRIPOS>MOLECULE
*****
 66 68 0 0 0
SMALL
GASTEIGER

@<TRIPOS>ATOM
      1 C           1.8635    1.4710   -0.0146 C.3     1  UNL1       -0.0394
      2 C           0.5849    0.6701    0.0029 C.ar    1  UNL1       -0.0458
      3 C          -0.6195    1.3875    0.0220 C.ar    1  UNL1       -0.0585
      4 C          -1.8270    0.7174    0.0159 C.ar    1  UNL1       -0.0597
      5 C          -1.8445   -0.6724   -0.0164 C.ar    1  UNL1       -0.0402
      6 C          -0.6715   -1.4431   -0.0150 C.ar    1  UNL1        0.0370
      7 N          -0.7585   -2.8661   -0.0250 N.am    1  UNL1       -0.2775
      8 C          -1.9303   -3.6102   -0.0345 C.2     1  UNL1        0.3031
      9 O          -3.0943   -3.2186   -0.0365 O.2     1  UNL1       -0.2648
     10 C          -1.7483   -5.1417   -0.0480 C.2     1  UNL1        0.2996
     11 O          -0.6365   -5.6539   -0.0353 O.2     1  UNL1       -0.2652
     12 N          -2.9563   -5.7943   -0.0766 N.am    1  UNL1       -0.3035
     13 C          -3.1033   -7.2224   -0.0967 C.3     1  UNL1        0.0373
     14 C          -4.5325   -7.7226   -0.0932 C.ar    1  UNL1       -0.0300
     15 C          -5.6641   -6.9055   -0.0198 C.ar    1  UNL1       -0.0571
     16 C          -6.9318   -7.4611    0.1477 C.ar    1  UNL1       -0.0611
     17 C          -7.1001   -8.8470    0.1494 C.ar    1  UNL1       -0.0571
     18 C          -5.9925   -9.7046    0.0353 C.ar    1  UNL1       -0.0300
     19 C          -6.2071  -11.2056    0.1064 C.3     1  UNL1        0.0373
     20 N          -5.0024  -12.0106    0.0351 N.am    1  UNL1       -0.3035
     21 C          -4.9836  -13.3858    0.1061 C.2     1  UNL1        0.2996
     22 O          -5.9602  -14.1135    0.2120 O.2     1  UNL1       -0.2652
     23 C          -3.5475  -13.9784    0.0346 C.2     1  UNL1        0.3031
     24 O          -2.6125  -13.1924   -0.0855 O.2     1  UNL1       -0.2648
     25 N          -3.4829  -15.3666    0.0524 N.am    1  UNL1       -0.2775
     26 C          -2.2650  -16.0872   -0.0456 C.ar    1  UNL1        0.0370
     27 C          -1.1509  -15.6448    0.6785 C.ar    1  UNL1       -0.0402
     28 C           0.0602  -16.3300    0.6217 C.ar    1  UNL1       -0.0597
     29 C           0.1883  -17.4446   -0.1980 C.ar    1  UNL1       -0.0585
     30 C          -0.9033  -17.9096   -0.9477 C.ar    1  UNL1       -0.0458
     31 C          -0.6794  -19.0883   -1.8608 C.3     1  UNL1       -0.0394
     32 C          -2.1588  -17.2510   -0.8454 C.ar    1  UNL1       -0.0263
     33 C          -3.3444  -17.7339   -1.6403 C.3     1  UNL1       -0.0377
     34 C          -4.7229   -9.1154   -0.0900 C.ar    1  UNL1       -0.0524
     35 C           0.5728   -0.7606   -0.0003 C.ar    1  UNL1       -0.0263
     36 C           1.9028   -1.4752    0.0220 C.3     1  UNL1       -0.0377
     37 H           1.6600    2.5492   -0.0261 H       1  UNL1        0.0278
     38 H           2.4435    1.2464   -0.9147 H       1  UNL1        0.0278
     39 H           2.4594    1.2640    0.8784 H       1  UNL1        0.0278
     40 H          -0.6268    2.4751    0.0395 H       1  UNL1        0.0620
     41 H          -2.7667    1.2619    0.0330 H       1  UNL1        0.0618
     42 H          -2.8299   -1.1186   -0.0398 H       1  UNL1        0.0636
     43 H           0.0931   -3.4171   -0.0218 H       1  UNL1        0.1553
     44 H          -3.7660   -5.1828   -0.0506 H       1  UNL1        0.1495
     45 H          -2.5978   -7.6107    0.7969 H       1  UNL1        0.0512
     46 H          -2.5731   -7.6054   -0.9759 H       1  UNL1        0.0512
     47 H          -5.5992   -5.8247   -0.0776 H       1  UNL1        0.0621
     48 H          -7.7841   -6.8012    0.2962 H       1  UNL1        0.0618
     49 H          -8.1092   -9.2445    0.2459 H       1  UNL1        0.0621
     50 H          -6.8707  -11.5205   -0.7073 H       1  UNL1        0.0512
     51 H          -6.7004  -11.4439    1.0566 H       1  UNL1        0.0512
     52 H          -4.0867  -11.5862   -0.0505 H       1  UNL1        0.1495
     53 H          -4.3628  -15.8596   -0.0619 H       1  UNL1        0.1553
     54 H          -1.2229  -14.7768    1.3287 H       1  UNL1        0.0636
     55 H           0.9054  -15.9875    1.2125 H       1  UNL1        0.0618
     56 H           1.1522  -17.9477   -0.2530 H       1  UNL1        0.0620
     57 H           0.3550  -19.4479   -1.8152 H       1  UNL1        0.0278
     58 H          -0.8732  -18.8055   -2.9013 H       1  UNL1        0.0278
     59 H          -1.3276  -19.9214   -1.5740 H       1  UNL1        0.0278
     60 H          -3.1206  -18.6069   -2.2590 H       1  UNL1        0.0278
     61 H          -3.6889  -16.9461   -2.3178 H       1  UNL1        0.0278
     62 H          -4.1535  -18.0224   -0.9633 H       1  UNL1        0.0278
     63 H          -3.8298   -9.7256   -0.1727 H       1  UNL1        0.0624
     64 H           1.8171   -2.5617    0.0311 H       1  UNL1        0.0278
     65 H           2.4626   -1.1974    0.9222 H       1  UNL1        0.0278
     66 H           2.4916   -1.2102   -0.8629 H       1  UNL1        0.0278
@<TRIPOS>BOND
     1     1     2    1
     2     2     3   ar
     3     3     4   ar
     4     4     5   ar
     5     5     6   ar
     6     6     7    1
     7     7     8   am
     8     8     9    2
     9     8    10    1
    10    10    11    2
    11    10    12   am
    12    12    13    1
    13    13    14    1
    14    14    15   ar
    15    15    16   ar
    16    16    17   ar
    17    17    18   ar
    18    18    19    1
    19    19    20    1
    20    20    21   am
    21    21    22    2
    22    21    23    1
    23    23    24    2
    24    23    25   am
    25    25    26    1
    26    26    27   ar
    27    27    28   ar
    28    28    29   ar
    29    29    30   ar
    30    30    31    1
    31    30    32   ar
    32    26    32   ar
    33    32    33    1
    34    18    34   ar
    35    14    34   ar
    36     6    35   ar
    37     2    35   ar
    38    35    36    1
    39     1    37    1
    40     1    38    1
    41     1    39    1
    42     3    40    1
    43     4    41    1
    44     5    42    1
    45     7    43    1
    46    12    44    1
    47    13    45    1
    48    13    46    1
    49    15    47    1
    50    16    48    1
    51    17    49    1
    52    19    50    1
    53    19    51    1
    54    20    52    1
    55    25    53    1
    56    27    54    1
    57    28    55    1
    58    29    56    1
    59    31    57    1
    60    31    58    1
    61    31    59    1
    62    33    60    1
    63    33    61    1
    64    33    62    1
    65    34    63    1
    66    36    64    1
    67    36    65    1
    68    36    66    1
