REMARK  6 active torsions:
REMARK  status: ('A' for Active; 'I' for Inactive)
REMARK    1  A    between atoms: C_4  and  C_5 
REMARK    2  A    between atoms: C_12  and  C_13 
REMARK       I    between atoms: C_13  and  N_15 
REMARK    3  A    between atoms: N_15  and  N_16 
REMARK    4  A    between atoms: N_16  and  C_17 
REMARK    5  A    between atoms: C_17  and  N_19 
REMARK    6  A    between atoms: N_19  and  C_20 
ROOT
ATOM      1  C   UNL d   1       4.987  -3.798  -0.919  0.00  0.00     0.275 C 
ATOM      2  O   UNL d   1       3.832  -4.224  -0.786  0.00  0.00    -0.266 OA
ATOM      3  N   UNL d   1       6.047  -4.677  -1.103  0.00  0.00    -0.263 N 
ATOM      4  H   UNL d   1       7.010  -4.370  -1.223  0.00  0.00     0.190 HD
ENDROOT
BRANCH   3   5
ATOM      5  N   UNL d   1       5.861  -6.120  -1.133  0.00  0.00    -0.273 N 
ATOM      6  H   UNL d   1       4.900  -6.440  -1.018  0.00  0.00     0.189 HD
BRANCH   5   7
ATOM      7  C   UNL d   1       6.970  -6.949  -1.370  0.00  0.00     0.191 C 
ATOM      8  S   UNL d   1       8.481  -6.245  -1.664  0.00  0.00    -0.039 SA
BRANCH   7   9
ATOM      9  N   UNL d   1       6.683  -8.333  -1.370  0.00  0.00    -0.331 N 
ATOM     10  H   UNL d   1       5.719  -8.616  -1.488  0.00  0.00     0.168 HD
BRANCH   9  11
ATOM     11  C   UNL d   1       7.665  -9.382  -1.564  0.00  0.00     0.045 A 
ATOM     12  C   UNL d   1       8.865  -9.316  -0.841  0.00  0.00     0.030 A 
ATOM     13  C   UNL d   1       9.912 -10.205  -1.067  0.00  0.00     0.003 A 
ATOM     14  C   UNL d   1       9.762 -11.230  -1.989  0.00  0.00     0.012 A 
ATOM     15  C   UNL d   1       8.547 -11.405  -2.660  0.00  0.00    -0.024 A 
ATOM     16  C   UNL d   1       8.420 -12.489  -3.547  0.00  0.00     0.012 A 
ATOM     17  C   UNL d   1       7.467 -10.487  -2.454  0.00  0.00     0.001 A 
ATOM     18  C   UNL d   1       7.239 -12.701  -4.248  0.00  0.00     0.001 A 
ATOM     19  C   UNL d   1       6.177 -11.821  -4.075  0.00  0.00     0.001 A 
ATOM     20  C   UNL d   1       6.291 -10.728  -3.201  0.00  0.00     0.014 A 
ENDBRANCH   9  11
ENDBRANCH   7   9
ENDBRANCH   5   7
ENDBRANCH   3   5
BRANCH   1  21
ATOM     21  C   UNL d   1       5.298  -2.358  -0.883  0.00  0.00     0.098 A 
ATOM     22  C   UNL d   1       6.535  -1.659  -1.013  0.00  0.00     0.160 A 
ATOM     23  N   UNL d   1       6.420  -0.324  -0.929  0.00  0.00    -0.181 NA
ATOM     24  N   UNL d   1       5.111  -0.142  -0.693  0.00  0.00    -0.240 N 
ATOM     25  C   UNL d   1       4.521   1.188  -0.547  0.00  0.00     0.221 C 
ATOM     26  C   UNL d   1       4.392  -1.320  -0.694  0.00  0.00     0.138 A 
ATOM     27  C   UNL d   1       2.995   1.110  -0.772  0.00  0.00     0.061 C 
ATOM     28  C   UNL d   1       2.441  -0.075   0.029  0.00  0.00     0.081 C 
ATOM     29  C   UNL d   1       0.926  -0.101   0.014  0.00  0.00     0.032 C 
ATOM     30  N   UNL d   1       3.040  -1.276  -0.545  0.00  0.00    -0.370 N 
ATOM     31  H   UNL d   1       2.503  -2.146  -0.521  0.00  0.00     0.161 HD
BRANCH  25  32
ATOM     32  C   UNL d   1       4.821   1.785   0.818  0.00  0.00     0.409 C 
ATOM     33  F   UNL d   1       4.383   1.029   1.848  0.00  0.00    -0.169 F 
ATOM     34  F   UNL d   1       6.132   2.024   1.021  0.00  0.00    -0.169 F 
ATOM     35  F   UNL d   1       4.190   2.986   0.939  0.00  0.00    -0.169 F 
ENDBRANCH  25  32
ENDBRANCH   1  21
TORSDOF 6
