REMARK  7 active torsions:
REMARK  status: ('A' for Active; 'I' for Inactive)
REMARK    1  A    between atoms: O_2  and  C_3 
REMARK    2  A    between atoms: C_9  and  C_10 
REMARK       I    between atoms: C_10  and  N_12 
REMARK    3  A    between atoms: N_12  and  C_13 
REMARK    4  A    between atoms: C_13  and  C_14 
REMARK    5  A    between atoms: C_20  and  N_21 
REMARK    6  A    between atoms: N_21  and  N_22 
REMARK       I    between atoms: N_22  and  C_23 
REMARK    7  A    between atoms: C_23  and  C_25 
ROOT
ATOM      1  C   UNL d   1       3.113   0.983   0.790  0.00  0.00     0.102 C 
ATOM      2  C   UNL d   1       2.692   1.274   2.084  0.00  0.00     0.040 C 
ATOM      3  C   UNL d   1       3.507   2.032   2.929  0.00  0.00     0.004 C 
ATOM      4  C   UNL d   1       4.796   2.388   2.533  0.00  0.00     0.014 C 
ATOM      5  C   UNL d   1       5.174   2.230   1.202  0.00  0.00     0.002 A 
ATOM      6  C   UNL d   1       6.404   2.816   0.671  0.00  0.00     0.035 A 
ATOM      7  C   UNL d   1       6.693   2.784  -0.646  0.00  0.00     0.085 A 
ATOM      8  C   UNL d   1       5.723   2.082  -1.504  0.00  0.00     0.178 A 
ATOM      9  O   UNL d   1       4.610   1.448  -1.026  0.00  0.00    -0.288 OA
ATOM     10  C   UNL d   1       4.314   1.545   0.345  0.00  0.00     0.121 A 
ENDROOT
BRANCH   8  11
ATOM     11  N   UNL d   1       5.836   1.987  -2.764  0.00  0.00    -0.276 N 
ATOM     12  H   UNL d   1       6.646   2.406  -3.183  0.00  0.00     0.189 HD
BRANCH  11  13
ATOM     13  N   UNL d   1       5.031   1.383  -3.702  0.00  0.00    -0.264 N 
ATOM     14  C   UNL d   1       5.524   1.434  -4.997  0.00  0.00     0.270 C 
ATOM     15  O   UNL d   1       6.606   1.969  -5.246  0.00  0.00    -0.266 OA
ATOM     16  H   UNL d   1       4.191   0.898  -3.405  0.00  0.00     0.190 HD
BRANCH  14  17
ATOM     17  C   UNL d   1       4.705   0.786  -6.026  0.00  0.00     0.036 C 
ATOM     18  C   UNL d   1       3.325   1.012  -6.015  0.00  0.00     0.017 C 
ATOM     19  C   UNL d   1       2.507   0.316  -6.897  0.00  0.00     0.004 C 
ATOM     20  C   UNL d   1       3.054  -0.678  -7.705  0.00  0.00     0.042 C 
ATOM     21  C   UNL d   1       4.434  -0.863  -7.734  0.00  0.00     0.117 C 
ATOM     22  F   UNL d   1       4.949  -1.829  -8.504  0.00  0.00    -0.206 F 
ATOM     23  C   UNL d   1       5.280  -0.084  -6.954  0.00  0.00     0.059 C 
ENDBRANCH  14  17
ENDBRANCH  11  13
ENDBRANCH   8  11
BRANCH   7  24
ATOM     24  C   UNL d   1       7.977   3.473  -1.097  0.00  0.00     0.256 C 
ATOM     25  O   UNL d   1       8.689   4.027  -0.263  0.00  0.00    -0.268 OA
ATOM     26  N   UNL d   1       8.339   3.475  -2.430  0.00  0.00    -0.352 N 
ATOM     27  H   UNL d   1       7.912   3.144  -3.257  0.00  0.00     0.163 HD
BRANCH  26  28
ATOM     28  C   UNL d   1       9.565   4.085  -2.927  0.00  0.00     0.161 C 
BRANCH  28  29
ATOM     29  C   UNL d   1       9.603   3.888  -4.440  0.00  0.00    -0.041 A 
ATOM     30  C   UNL d   1       9.395   4.974  -5.301  0.00  0.00     0.009 A 
ATOM     31  C   UNL d   1       9.208   4.774  -6.673  0.00  0.00     0.001 A 
ATOM     32  C   UNL d   1       9.327   3.499  -7.220  0.00  0.00     0.000 A 
ATOM     33  C   UNL d   1       9.638   2.422  -6.394  0.00  0.00     0.001 A 
ATOM     34  C   UNL d   1       9.719   2.604  -5.008  0.00  0.00     0.009 A 
ENDBRANCH  28  29
ENDBRANCH  26  28
ENDBRANCH   7  24
BRANCH   1  35
ATOM     35  O   UNL d   1       2.470   0.144  -0.077  0.00  0.00    -0.353 OA
ATOM     36  C   UNL d   1       1.053   0.080   0.050  0.00  0.00     0.210 C 
ENDBRANCH   1  35
TORSDOF 7
