@<TRIPOS>MOLECULE
*****
 66 69 0 0 0
SMALL
GASTEIGER

@<TRIPOS>ATOM
      1 C           1.1132    0.0682   -0.0873 C.3     1  UNL1       -0.0306
      2 C           2.6359    0.0745   -0.1043 C.3     1  UNL1        0.0900
      3 O           3.1143    0.7633   -1.2772 O.3     1  UNL1       -0.4614
      4 C           4.4668    0.7758   -1.4283 C.2     1  UNL1        0.3392
      5 O           5.2841    0.2583   -0.6683 O.2     1  UNL1       -0.2450
      6 C           4.8635    1.5243   -2.6495 C.ar    1  UNL1        0.0591
      7 C           5.8912    1.0973   -3.5074 C.ar    1  UNL1       -0.0460
      8 C           6.3026    1.8981   -4.6118 C.ar    1  UNL1       -0.0397
      9 C           5.6557    3.1141   -4.8962 C.ar    1  UNL1        0.0334
     10 N           5.9663    3.8936   -6.0683 N.am    1  UNL1       -0.2848
     11 C           5.2828    5.0742   -6.4268 C.2     1  UNL1        0.2275
     12 O           4.3374    5.5355   -5.7892 O.2     1  UNL1       -0.2746
     13 C           5.7006    5.7684   -7.7305 C.3     1  UNL1        0.0779
     14 S           4.7053    7.3377   -7.9512 S.3     1  UNL1       -0.0763
     15 C           5.0009    8.0418   -9.5159 C.ar    1  UNL1        0.1966
     16 N           4.8136    9.3102   -9.8256 N.ar    1  UNL1       -0.1221
     17 N           5.0622    9.4730  -11.1751 N.ar    1  UNL1       -0.1315
     18 C           5.3787    8.2932  -11.6765 C.ar    1  UNL1        0.1557
     19 C           5.6253    7.9948  -13.1377 C.3     1  UNL1        0.0696
     20 N           5.7373    6.5960  -13.4729 N.pl3   1  UNL1       -0.3363
     21 C           6.1250    5.8879  -14.5745 C.ar    1  UNL1        0.0334
     22 C           5.4351    4.6716  -14.8447 C.ar    1  UNL1       -0.0294
     23 C           4.2094    4.2256  -14.0745 C.3     1  UNL1       -0.0380
     24 C           5.8274    3.8750  -15.9221 C.ar    1  UNL1       -0.0571
     25 C           6.8040    4.3306  -16.7975 C.ar    1  UNL1       -0.0611
     26 C           7.4786    5.5221  -16.5398 C.ar    1  UNL1       -0.0571
     27 C           7.1646    6.2958  -15.4181 C.ar    1  UNL1       -0.0294
     28 C           7.9658    7.5301  -15.1328 C.3     1  UNL1       -0.0380
     29 N           5.4140    7.3720  -10.6345 N.ar    1  UNL1       -0.2729
     30 C           5.6692    6.0003  -10.7315 C.ar    1  UNL1        0.0502
     31 C           6.9128    5.5777  -11.2114 C.ar    1  UNL1       -0.0377
     32 C           7.0340    4.2607  -11.6361 C.ar    1  UNL1       -0.0598
     33 C           5.9938    3.3528  -11.4200 C.ar    1  UNL1       -0.0616
     34 C           4.7776    3.7744  -10.8755 C.ar    1  UNL1       -0.0598
     35 C           4.5856    5.1183  -10.5851 C.ar    1  UNL1       -0.0377
     36 C           4.6748    3.5235   -3.9863 C.ar    1  UNL1       -0.0397
     37 C           4.2740    2.7539   -2.8922 C.ar    1  UNL1       -0.0460
     38 H           0.7341   -0.4570    0.7968 H       1  UNL1        0.0262
     39 H           0.7130   -0.4258   -0.9787 H       1  UNL1        0.0262
     40 H           0.7150    1.0881   -0.0784 H       1  UNL1        0.0262
     41 H           2.9967   -0.9602   -0.1103 H       1  UNL1        0.0695
     42 H           3.0017    0.5836    0.7947 H       1  UNL1        0.0695
     43 H           6.3718    0.1363   -3.3239 H       1  UNL1        0.0626
     44 H           7.1402    1.5460   -5.2123 H       1  UNL1        0.0636
     45 H           6.6519    3.5015   -6.7071 H       1  UNL1        0.1548
     46 H           5.4887    5.0145   -8.4786 H       1  UNL1        0.0475
     47 H           6.7643    6.0063   -7.7397 H       1  UNL1        0.0475
     48 H           6.5268    8.5533  -13.3789 H       1  UNL1        0.0542
     49 H           4.8084    8.3955  -13.7481 H       1  UNL1        0.0542
     50 H           5.2508    5.9941  -12.8373 H       1  UNL1        0.1465
     51 H           3.9251    4.8887  -13.2572 H       1  UNL1        0.0278
     52 H           4.3456    3.2243  -13.6551 H       1  UNL1        0.0278
     53 H           3.3376    4.2229  -14.7311 H       1  UNL1        0.0278
     54 H           5.3390    2.9206  -16.1024 H       1  UNL1        0.0621
     55 H           7.0242    3.7679  -17.6985 H       1  UNL1        0.0618
     56 H           8.2583    5.8510  -17.2211 H       1  UNL1        0.0621
     57 H           8.7520    7.7009  -15.8700 H       1  UNL1        0.0278
     58 H           8.4392    7.4592  -14.1447 H       1  UNL1        0.0278
     59 H           7.3085    8.4005  -15.1843 H       1  UNL1        0.0278
     60 H           7.7029    6.2938  -11.4364 H       1  UNL1        0.0638
     61 H           7.8846    3.9760  -12.2528 H       1  UNL1        0.0618
     62 H           6.0987    2.3297  -11.7717 H       1  UNL1        0.0618
     63 H           3.9488    3.0783  -10.7780 H       1  UNL1        0.0618
     64 H           3.6024    5.4711  -10.2725 H       1  UNL1        0.0638
     65 H           4.1701    4.4749   -4.0698 H       1  UNL1        0.0636
     66 H           3.5080    3.1528   -2.2341 H       1  UNL1        0.0626
@<TRIPOS>BOND
     1     1     2    1
     2     2     3    1
     3     3     4    1
     4     4     5    2
     5     4     6    1
     6     6     7   ar
     7     7     8   ar
     8     8     9   ar
     9     9    10    1
    10    10    11   am
    11    11    12    2
    12    11    13    1
    13    13    14    1
    14    14    15    1
    15    15    16   ar
    16    16    17   ar
    17    17    18   ar
    18    18    19    1
    19    19    20    1
    20    20    21    1
    21    21    22   ar
    22    22    23    1
    23    22    24   ar
    24    24    25   ar
    25    25    26   ar
    26    26    27   ar
    27    21    27   ar
    28    27    28    1
    29    18    29   ar
    30    15    29   ar
    31    29    30    1
    32    30    31   ar
    33    31    32   ar
    34    32    33   ar
    35    33    34   ar
    36    34    35   ar
    37    30    35   ar
    38     9    36   ar
    39    36    37   ar
    40     6    37   ar
    41     1    38    1
    42     1    39    1
    43     1    40    1
    44     2    41    1
    45     2    42    1
    46     7    43    1
    47     8    44    1
    48    10    45    1
    49    13    46    1
    50    13    47    1
    51    19    48    1
    52    19    49    1
    53    20    50    1
    54    23    51    1
    55    23    52    1
    56    23    53    1
    57    24    54    1
    58    25    55    1
    59    26    56    1
    60    28    57    1
    61    28    58    1
    62    28    59    1
    63    31    60    1
    64    32    61    1
    65    33    62    1
    66    34    63    1
    67    35    64    1
    68    36    65    1
    69    37    66    1
