@<TRIPOS>MOLECULE
*****
 44 45 0 0 0
SMALL
GASTEIGER

@<TRIPOS>ATOM
      1 C           1.1956    0.5794    0.1041 C.3     1  UNL1        0.0790
      2 O           2.5442    0.1320   -0.0476 O.3     1  UNL1       -0.4914
      3 C           3.0873   -0.9770    0.5695 C.ar    1  UNL1        0.1624
      4 C           4.3349   -0.6895    1.2075 C.ar    1  UNL1       -0.0042
      5 C           5.2499   -1.7007    1.6089 C.ar    1  UNL1        0.0404
      6 C           6.6658   -1.3458    2.0385 C.2     1  UNL1        0.2446
      7 O           7.0033   -0.1786    2.1104 O.2     1  UNL1       -0.2702
      8 N           7.5613   -2.3889    2.2926 N.am    1  UNL1       -0.3027
      9 C           8.9722   -2.1723    2.6532 C.3     1  UNL1        0.0898
     10 C           9.7295   -3.5144    2.8980 C.2     1  UNL1        0.2462
     11 O           9.1782   -4.6094    2.7642 O.2     1  UNL1       -0.2726
     12 N          11.0614   -3.3959    3.2735 N.am    1  UNL1       -0.2339
     13 N          11.8814   -4.5556    3.5158 N.am    1  UNL1       -0.2458
     14 C          13.2115   -4.3954    3.9141 C.2     1  UNL1        0.1470
     15 S          13.8682   -2.8640    4.1733 S.2     1  UNL1       -0.0174
     16 N          13.9304   -5.5873    4.0394 N.am    1  UNL1       -0.3226
     17 C          15.3238   -5.6664    4.4469 C.3     1  UNL1        0.0224
     18 C          16.3551   -6.4769    3.6935 C.3     1  UNL1       -0.0329
     19 C          16.3915   -4.9848    3.6221 C.3     1  UNL1       -0.0329
     20 C           4.8440   -3.0232    1.4885 C.ar    1  UNL1       -0.0459
     21 C           3.6249   -3.3262    0.8840 C.ar    1  UNL1       -0.0154
     22 C           2.7497   -2.3364    0.3949 C.ar    1  UNL1        0.1683
     23 O           1.7140   -2.9660   -0.2498 O.3     1  UNL1       -0.4305
     24 C           0.6947   -2.1296   -0.7038 C.3     1  UNL1        0.3894
     25 F           1.1863   -1.4012   -1.7317 F       1  UNL1       -0.1663
     26 F          -0.3239   -2.8594   -1.2166 F       1  UNL1       -0.1663
     27 H           1.1232    1.6265   -0.2042 H       1  UNL1        0.0660
     28 H           0.8087    0.4431    1.1159 H       1  UNL1        0.0660
     29 H           0.5066    0.1430   -0.6195 H       1  UNL1        0.0660
     30 H           4.6203    0.3550    1.3449 H       1  UNL1        0.0663
     31 H           7.3029   -3.3583    2.1837 H       1  UNL1        0.1495
     32 H           8.9950   -1.5623    3.5611 H       1  UNL1        0.0558
     33 H           9.4519   -1.6216    1.8369 H       1  UNL1        0.0558
     34 H          11.5374   -2.4997    3.3771 H       1  UNL1        0.1728
     35 H          11.4230   -5.4576    3.4017 H       1  UNL1        0.1718
     36 H          13.4343   -6.4711    3.9936 H       1  UNL1        0.1480
     37 H          15.4429   -5.6541    5.5304 H       1  UNL1        0.0498
     38 H          16.0648   -7.0084    2.7961 H       1  UNL1        0.0284
     39 H          17.1726   -6.9482    4.2321 H       1  UNL1        0.0284
     40 H          16.0960   -4.5181    2.6890 H       1  UNL1        0.0284
     41 H          17.1577   -4.4330    4.1554 H       1  UNL1        0.0284
     42 H           5.4564   -3.8539    1.8164 H       1  UNL1        0.0626
     43 H           3.3745   -4.3762    0.7275 H       1  UNL1        0.0655
     44 H           0.2844   -1.5743    0.1445 H       1  UNL1        0.1520
@<TRIPOS>BOND
     1     1     2    1
     2     2     3    1
     3     3     4   ar
     4     4     5   ar
     5     5     6    1
     6     6     7    2
     7     6     8   am
     8     8     9    1
     9     9    10    1
    10    10    11    2
    11    10    12   am
    12    12    13    1
    13    13    14    1
    14    14    15    2
    15    14    16    1
    16    16    17    1
    17    17    18    1
    18    18    19    1
    19    17    19    1
    20     5    20   ar
    21    20    21   ar
    22    21    22   ar
    23     3    22   ar
    24    22    23    1
    25    23    24    1
    26    24    25    1
    27    24    26    1
    28     1    27    1
    29     1    28    1
    30     1    29    1
    31     4    30    1
    32     8    31    1
    33     9    32    1
    34     9    33    1
    35    12    34    1
    36    13    35    1
    37    16    36    1
    38    17    37    1
    39    18    38    1
    40    18    39    1
    41    19    40    1
    42    19    41    1
    43    20    42    1
    44    21    43    1
    45    24    44    1
