@<TRIPOS>MOLECULE
*****
 56 58 0 0 0
SMALL
GASTEIGER

@<TRIPOS>ATOM
      1 N           0.9711   -0.0052    0.0544 N.1     1  UNL1       -0.1907
      2 C           2.1364    0.0127    0.0543 C.1     1  UNL1        0.1044
      3 C           3.5557    0.0226    0.0547 C.ar    1  UNL1        0.1134
      4 C           4.4216    1.1285    0.0526 C.ar    1  UNL1        0.1557
      5 N           4.0017    2.3958    0.0482 N.pl3   1  UNL1       -0.3407
      6 N           5.6995    0.7546    0.0557 N.ar    1  UNL1       -0.1576
      7 N           5.6483   -0.5898    0.0556 N.ar    1  UNL1       -0.2785
      8 C           4.3714   -1.0864    0.0566 C.ar    1  UNL1        0.0553
      9 C           3.9917   -2.5207    0.0581 C.3     1  UNL1       -0.0096
     10 C           5.1763   -3.4686    0.0595 C.3     1  UNL1       -0.0476
     11 C           4.6968   -4.9135    0.0617 C.3     1  UNL1       -0.0513
     12 C           5.8905   -5.8622    0.0642 C.3     1  UNL1       -0.0374
     13 C           5.4338   -7.3149    0.0661 C.3     1  UNL1        0.0119
     14 N           6.5549   -8.2419    0.0790 N.am    1  UNL1       -0.3113
     15 C           6.3394   -9.6081    0.0233 C.2     1  UNL1        0.2441
     16 O           5.2204  -10.1069   -0.0181 O.2     1  UNL1       -0.2702
     17 C           7.5415  -10.4984    0.0434 C.ar    1  UNL1        0.0368
     18 C           7.5578  -11.6743   -0.7200 C.ar    1  UNL1       -0.0478
     19 C           8.5914  -12.6165   -0.5554 C.ar    1  UNL1       -0.0344
     20 C           9.6670  -12.3490    0.3091 C.ar    1  UNL1        0.1085
     21 S          11.0595  -13.4865    0.2900 S.O2    1  UNL1        0.0723
     22 O          10.5823  -14.7463    0.8166 O.2     1  UNL1       -0.1500
     23 O          11.5964  -13.3846   -1.0520 O.2     1  UNL1       -0.1500
     24 N          12.2183  -12.8999    1.3709 N.pl3   1  UNL1       -0.2163
     25 C          13.4822  -13.5577    1.5258 C.ar    1  UNL1        0.0482
     26 C          14.0636  -13.6426    2.7995 C.ar    1  UNL1       -0.0366
     27 C          15.3666  -14.1418    2.9517 C.ar    1  UNL1       -0.0247
     28 C          16.0498  -14.6306    1.8450 C.ar    1  UNL1        0.1235
     29 F          17.2497  -15.2044    2.0020 F       1  UNL1       -0.2055
     30 C          15.4923  -14.5450    0.5795 C.ar    1  UNL1       -0.0247
     31 C          14.2200  -13.9906    0.4218 C.ar    1  UNL1       -0.0366
     32 C           9.6562  -11.1736    1.0614 C.ar    1  UNL1       -0.0344
     33 C           8.5955  -10.2572    0.9315 C.ar    1  UNL1       -0.0478
     34 H           3.0220    2.6545    0.0389 H       1  UNL1        0.1438
     35 H           4.6625    3.1618    0.0433 H       1  UNL1        0.1438
     36 H           6.5260   -1.1028    0.0543 H       1  UNL1        0.1886
     37 H           3.3664   -2.7147   -0.8231 H       1  UNL1        0.0328
     38 H           3.3660   -2.7127    0.9395 H       1  UNL1        0.0328
     39 H           5.7999   -3.2852    0.9434 H       1  UNL1        0.0269
     40 H           5.8001   -3.2877   -0.8247 H       1  UNL1        0.0269
     41 H           4.0714   -5.0950   -0.8214 H       1  UNL1        0.0266
     42 H           4.0706   -5.0922    0.9447 H       1  UNL1        0.0266
     43 H           6.5139   -5.6635    0.9446 H       1  UNL1        0.0280
     44 H           6.5140   -5.6670   -0.8172 H       1  UNL1        0.0280
     45 H           4.8207   -7.5187   -0.8198 H       1  UNL1        0.0462
     46 H           4.8147   -7.5143    0.9489 H       1  UNL1        0.0462
     47 H           7.4948   -7.8734    0.0379 H       1  UNL1        0.1490
     48 H           6.7663  -11.8633   -1.4451 H       1  UNL1        0.0626
     49 H           8.5444  -13.5621   -1.0968 H       1  UNL1        0.0637
     50 H          12.0928  -12.0178    1.8501 H       1  UNL1        0.1737
     51 H          13.5104  -13.3550    3.6901 H       1  UNL1        0.0637
     52 H          15.8571  -14.1568    3.9208 H       1  UNL1        0.0647
     53 H          16.0471  -14.8939   -0.2852 H       1  UNL1        0.0647
     54 H          13.8286  -13.9053   -0.5854 H       1  UNL1        0.0637
     55 H          10.4343  -10.9442    1.7754 H       1  UNL1        0.0637
     56 H           8.5838   -9.3710    1.5593 H       1  UNL1        0.0626
@<TRIPOS>BOND
     1     1     2    3
     2     2     3    1
     3     3     4   ar
     4     4     5    1
     5     4     6   ar
     6     6     7   ar
     7     7     8   ar
     8     3     8   ar
     9     8     9    1
    10     9    10    1
    11    10    11    1
    12    11    12    1
    13    12    13    1
    14    13    14    1
    15    14    15   am
    16    15    16    2
    17    15    17    1
    18    17    18   ar
    19    18    19   ar
    20    19    20   ar
    21    20    21    1
    22    21    22    2
    23    21    23    2
    24    21    24    1
    25    24    25    1
    26    25    26   ar
    27    26    27   ar
    28    27    28   ar
    29    28    29    1
    30    28    30   ar
    31    30    31   ar
    32    25    31   ar
    33    20    32   ar
    34    32    33   ar
    35    17    33   ar
    36     5    34    1
    37     5    35    1
    38     7    36    1
    39     9    37    1
    40     9    38    1
    41    10    39    1
    42    10    40    1
    43    11    41    1
    44    11    42    1
    45    12    43    1
    46    12    44    1
    47    13    45    1
    48    13    46    1
    49    14    47    1
    50    18    48    1
    51    19    49    1
    52    24    50    1
    53    26    51    1
    54    27    52    1
    55    30    53    1
    56    31    54    1
    57    32    55    1
    58    33    56    1
