REMARK  15 active torsions:
REMARK  status: ('A' for Active; 'I' for Inactive)
REMARK    1  A    between atoms: C_2  and  C_3 
REMARK    2  A    between atoms: C_3  and  C_4 
REMARK    3  A    between atoms: C_4  and  O_5 
REMARK    4  A    between atoms: O_5  and  C_6 
REMARK    5  A    between atoms: C_9  and  C_10 
REMARK       I    between atoms: C_10  and  N_12 
REMARK    6  A    between atoms: N_12  and  N_13 
REMARK    7  A    between atoms: C_14  and  C_15 
REMARK    8  A    between atoms: C_18  and  O_19 
REMARK    9  A    between atoms: O_19  and  C_20 
REMARK   10  A    between atoms: C_20  and  C_22 
REMARK   11  A    between atoms: C_25  and  O_26 
REMARK   12  A    between atoms: O_26  and  C_27 
REMARK   13  A    between atoms: C_27  and  C_28 
REMARK   14  A    between atoms: C_28  and  C_29 
REMARK   15  A    between atoms: C_33  and  O_34 
ROOT
ATOM      1  C   UNL d   1      15.165  -2.320   2.560  0.00  0.00    -0.014 A 
ATOM      2  C   UNL d   1      15.957  -1.942   3.651  0.00  0.00     0.016 A 
ATOM      3  C   UNL d   1      17.367  -2.060   3.579  0.00  0.00     0.041 A 
ATOM      4  C   UNL d   1      17.973  -2.572   2.416  0.00  0.00     0.112 A 
ATOM      5  C   UNL d   1      17.161  -2.878   1.313  0.00  0.00     0.102 A 
ATOM      6  C   UNL d   1      15.773  -2.801   1.408  0.00  0.00     0.052 A 
ENDROOT
BRANCH   1   7
ATOM      7  C   UNL d   1      13.691  -2.125   2.504  0.00  0.00     0.150 C 
ATOM      8  N   UNL d   1      12.935  -2.998   1.911  0.00  0.00    -0.183 NA
BRANCH   8   9
ATOM      9  N   UNL d   1      11.582  -2.755   1.852  0.00  0.00    -0.243 N 
ATOM     10  C   UNL d   1      10.736  -3.724   1.292  0.00  0.00     0.271 C 
ATOM     11  O   UNL d   1      11.134  -4.800   0.848  0.00  0.00    -0.266 OA
ATOM     12  H   UNL d   1      11.241  -1.869   2.195  0.00  0.00     0.192 HD
BRANCH  10  13
ATOM     13  C   UNL d   1       9.259  -3.420   1.201  0.00  0.00     0.033 A 
ATOM     14  C   UNL d   1       8.408  -4.360   0.587  0.00  0.00     0.020 A 
ATOM     15  C   UNL d   1       7.050  -4.074   0.360  0.00  0.00     0.038 A 
ATOM     16  C   UNL d   1       6.497  -2.874   0.803  0.00  0.00     0.068 A 
ATOM     17  C   UNL d   1       7.319  -1.963   1.464  0.00  0.00     0.038 A 
ATOM     18  C   UNL d   1       8.687  -2.229   1.658  0.00  0.00     0.020 A 
BRANCH  16  19
ATOM     19  O   UNL d   1       5.144  -2.727   0.647  0.00  0.00    -0.351 OA
BRANCH  19  20
ATOM     20  C   UNL d   1       4.688  -1.399   0.366  0.00  0.00     0.175 C 
BRANCH  20  21
ATOM     21  C   UNL d   1       3.159  -1.387   0.373  0.00  0.00     0.026 C 
BRANCH  21  22
ATOM     22  C   UNL d   1       2.616  -0.011  -0.008  0.00  0.00    -0.002 C 
ATOM     23  C   UNL d   1       1.097   0.003  -0.009  0.00  0.00     0.005 C 
ENDBRANCH  21  22
ENDBRANCH  20  21
ENDBRANCH  19  20
ENDBRANCH  16  19
ENDBRANCH  10  13
ENDBRANCH   8   9
ENDBRANCH   1   7
BRANCH   5  24
ATOM     24  O   UNL d   1      17.767  -3.096   0.126  0.00  0.00    -0.353 OA
ATOM     25  C   UNL d   1      17.049  -3.631  -0.965  0.00  0.00     0.210 C 
ENDBRANCH   5  24
BRANCH   4  26
ATOM     26  O   UNL d   1      19.413  -2.737   2.418  0.00  0.00    -0.272 OA
BRANCH  26  27
ATOM     27  C   UNL d   1      20.160  -3.423   1.450  0.00  0.00     0.298 C 
ATOM     28  O   UNL d   1      19.792  -4.036   0.448  0.00  0.00    -0.259 OA
BRANCH  27  29
ATOM     29  C   UNL d   1      21.601  -3.508   1.671  0.00  0.00     0.040 A 
ATOM     30  C   UNL d   1      22.424  -3.329   0.543  0.00  0.00     0.020 A 
ATOM     31  C   UNL d   1      23.739  -3.787   0.553  0.00  0.00     0.038 A 
ATOM     32  C   UNL d   1      24.262  -4.360   1.712  0.00  0.00     0.068 A 
ATOM     33  C   UNL d   1      23.427  -4.562   2.820  0.00  0.00     0.038 A 
ATOM     34  C   UNL d   1      22.092  -4.149   2.802  0.00  0.00     0.020 A 
BRANCH  32  35
ATOM     35  O   UNL d   1      25.594  -4.680   1.656  0.00  0.00    -0.351 OA
BRANCH  35  36
ATOM     36  C   UNL d   1      26.169  -5.115   2.889  0.00  0.00     0.175 C 
BRANCH  36  37
ATOM     37  C   UNL d   1      27.674  -5.272   2.719  0.00  0.00     0.026 C 
BRANCH  37  38
ATOM     38  C   UNL d   1      28.311  -5.806   4.000  0.00  0.00    -0.002 C 
ATOM     39  C   UNL d   1      29.810  -5.980   3.832  0.00  0.00     0.005 C 
ENDBRANCH  37  38
ENDBRANCH  36  37
ENDBRANCH  35  36
ENDBRANCH  32  35
ENDBRANCH  27  29
ENDBRANCH  26  27
ENDBRANCH   4  26
TORSDOF 15
