@<TRIPOS>MOLECULE
*****
 59 62 0 0 0
SMALL
GASTEIGER

@<TRIPOS>ATOM
      1 C           1.0682   -0.0266    0.0409 C.3     1  UNL1       -0.0587
      2 C           2.5997    0.0719   -0.0036 C.3     1  UNL1       -0.0215
      3 C           3.1242   -0.6606   -1.2388 C.3     1  UNL1       -0.0587
      4 C           3.1029    1.5112    0.0438 C.ar    1  UNL1       -0.0447
      5 C           4.4046    1.7908    0.4673 C.ar    1  UNL1       -0.0565
      6 C           4.8385    3.1185    0.6062 C.ar    1  UNL1       -0.0389
      7 C           4.0327    4.2116    0.2484 C.ar    1  UNL1        0.0514
      8 N           4.5051    5.5049    0.3959 N.pl3   1  UNL1       -0.2017
      9 N           3.8341    6.4481    1.1651 N.3     1  UNL1       -0.1797
     10 N           4.8308    7.4253    1.4452 N.4     1  UNL1        0.4192
     11 N           5.6972    7.5161    0.2629 N.3     1  UNL1       -0.2341
     12 C           5.4873    6.2109   -0.4283 C.3     1  UNL1        0.1757
     13 S           7.0940    5.3938   -0.5796 S.3     1  UNL1       -0.1093
     14 C           8.0583    6.6818   -1.4665 C.3     1  UNL1        0.0596
     15 C           9.5334    6.3185   -1.5625 C.2     1  UNL1        0.1708
     16 O           9.9927    5.2307   -1.2218 O.2     1  UNL1       -0.2915
     17 C          10.4462    7.3293   -2.1397 C.2     1  UNL1        0.0198
     18 C          10.5592    8.6269   -1.8427 C.2     1  UNL1        0.0349
     19 N          11.4977    9.2871   -2.6020 N.2     1  UNL1       -0.2540
     20 C          11.9980    8.3632   -3.3836 C.2     1  UNL1        0.1073
     21 C          12.9947    8.5963   -4.5159 C.2     1  UNL1        0.2611
     22 O          13.1979    7.6467   -5.2736 O.2     1  UNL1       -0.2687
     23 N          13.4438    9.8843   -4.7396 N.am    1  UNL1       -0.2965
     24 C          13.4503   10.5106   -6.0468 C.3     1  UNL1        0.0151
     25 C          14.7689   11.2559   -6.1396 C.3     1  UNL1       -0.0357
     26 C          15.1010   11.6007   -4.6905 C.3     1  UNL1       -0.0357
     27 C          14.2971   10.6186   -3.8239 C.3     1  UNL1        0.0151
     28 C          11.4214    6.9710   -3.2056 C.3     1  UNL1        0.0246
     29 C           2.7345    3.9247   -0.1759 C.ar    1  UNL1       -0.0389
     30 C           2.2874    2.6002   -0.2927 C.ar    1  UNL1       -0.0565
     31 H           0.7318   -1.0669    0.0748 H       1  UNL1        0.0235
     32 H           0.6139    0.4249   -0.8484 H       1  UNL1        0.0235
     33 H           0.6720    0.4874    0.9243 H       1  UNL1        0.0235
     34 H           2.9745   -0.4473    0.8909 H       1  UNL1        0.0343
     35 H           2.7835   -0.1720   -2.1578 H       1  UNL1        0.0235
     36 H           2.7696   -1.6978   -1.2558 H       1  UNL1        0.0235
     37 H           4.2189   -0.6846   -1.2561 H       1  UNL1        0.0235
     38 H           5.0941    0.9813    0.7060 H       1  UNL1        0.0621
     39 H           5.8201    3.2813    1.0467 H       1  UNL1        0.0637
     40 H           3.3876    6.0290    1.9925 H       1  UNL1        0.1991
     41 H           5.3853    7.0974    2.2627 H       1  UNL1        0.2445
     42 H           4.4282    8.3489    1.6871 H       1  UNL1        0.2445
     43 H           6.6751    7.5043    0.5607 H       1  UNL1        0.1771
     44 H           5.0794    6.4038   -1.4288 H       1  UNL1        0.0851
     45 H           8.0005    7.6126   -0.9015 H       1  UNL1        0.0458
     46 H           7.6484    6.8306   -2.4698 H       1  UNL1        0.0458
     47 H           9.9994    9.1683   -1.0892 H       1  UNL1        0.0833
     48 H          12.6306   11.2391   -6.0172 H       1  UNL1        0.0465
     49 H          13.2651    9.8197   -6.8732 H       1  UNL1        0.0465
     50 H          14.6985   12.1508   -6.7698 H       1  UNL1        0.0281
     51 H          15.5473   10.6142   -6.5676 H       1  UNL1        0.0281
     52 H          14.8102   12.6332   -4.4655 H       1  UNL1        0.0281
     53 H          16.1799   11.5274   -4.5103 H       1  UNL1        0.0281
     54 H          13.6515   11.1655   -3.1329 H       1  UNL1        0.0465
     55 H          14.9461    9.9437   -3.2569 H       1  UNL1        0.0465
     56 H          12.1776    6.2625   -2.8673 H       1  UNL1        0.0380
     57 H          10.9019    6.6338   -4.1058 H       1  UNL1        0.0380
     58 H           2.0340    4.7136   -0.4370 H       1  UNL1        0.0637
     59 H           1.2756    2.4399   -0.6556 H       1  UNL1        0.0621
@<TRIPOS>UNITY_ATOM_ATTR
10 1
charge 1
@<TRIPOS>BOND
     1     1     2    1
     2     2     3    1
     3     2     4    1
     4     4     5   ar
     5     5     6   ar
     6     6     7   ar
     7     7     8    1
     8     8     9    1
     9     9    10    1
    10    10    11    1
    11    11    12    1
    12     8    12    1
    13    13    14    1
    14    14    15    1
    15    15    16    2
    16    15    17    1
    17    17    18    2
    18    18    19    1
    19    19    20    2
    20    20    21    1
    21    21    22    2
    22    21    23   am
    23    23    24    1
    24    24    25    1
    25    25    26    1
    26    26    27    1
    27    23    27    1
    28    20    28    1
    29    17    28    1
    30     7    29   ar
    31    29    30   ar
    32     4    30   ar
    33    12    13    1
    34     1    31    1
    35     1    32    1
    36     1    33    1
    37     2    34    1
    38     3    35    1
    39     3    36    1
    40     3    37    1
    41     5    38    1
    42     6    39    1
    43     9    40    1
    44    10    41    1
    45    10    42    1
    46    11    43    1
    47    12    44    1
    48    14    45    1
    49    14    46    1
    50    18    47    1
    51    24    48    1
    52    24    49    1
    53    25    50    1
    54    25    51    1
    55    26    52    1
    56    26    53    1
    57    27    54    1
    58    27    55    1
    59    28    56    1
    60    28    57    1
    61    29    58    1
    62    30    59    1
