REMARK  9 active torsions:
REMARK  status: ('A' for Active; 'I' for Inactive)
REMARK    1  A    between atoms: C_2  and  C_3 
REMARK       I    between atoms: C_2  and  N_17 
REMARK    2  A    between atoms: C_3  and  N_4 
REMARK    3  A    between atoms: C_5  and  N_6 
REMARK    4  A    between atoms: N_6  and  C_7 
REMARK    5  A    between atoms: C_7  and  C_8 
REMARK    6  A    between atoms: C_8  and  O_9 
REMARK    7  A    between atoms: N_17  and  C_18 
REMARK    8  A    between atoms: C_23  and  S_24 
REMARK    9  A    between atoms: S_24  and  C_25 
ROOT
ATOM      1  O   UNL d   1       2.193   0.501  -1.484  0.00  0.00    -0.278 OA
ATOM      2  C   UNL d   1       2.912   0.351  -0.482  0.00  0.00     0.220 C 
ATOM      3  N   UNL d   1       3.263  -0.884   0.053  0.00  0.00    -0.227 NA
ATOM      4  H   UNL d   1       2.741  -1.643  -0.355  0.00  0.00     0.136 HD
ENDROOT
BRANCH   2   5
ATOM      5  C   UNL d   1       3.292   1.585   0.198  0.00  0.00     0.244 C 
BRANCH   5   6
ATOM      6  N   UNL d   1       2.181   2.509   0.316  0.00  0.00    -0.171 N 
ATOM      7  C   UNL d   1       0.810   2.348   0.489  0.00  0.00     0.704 A 
ATOM      8  N   UNL d   1       0.232   3.535   0.403  0.00  0.00    -0.063 NA
ATOM      9  C   UNL d   1       1.235   4.471   0.276  0.00  0.00     0.103 A 
ATOM     10  C   UNL d   1       1.201   5.874   0.237  0.00  0.00     0.034 A 
ATOM     11  C   UNL d   1       2.466   3.854   0.199  0.00  0.00     0.081 A 
ATOM     12  C   UNL d   1       2.411   6.585   0.123  0.00  0.00     0.002 A 
ATOM     13  C   UNL d   1       3.631   5.923   0.014  0.00  0.00     0.002 A 
ATOM     14  C   UNL d   1       3.682   4.536   0.040  0.00  0.00     0.032 A 
BRANCH   7  15
ATOM     15  N   UNL d   1       0.083   1.211   0.731  0.00  0.00    -0.222 N 
ATOM     16  H   UNL d   1      -0.904   1.283   0.493  0.00  0.00     0.177 HD
BRANCH  15  17
ATOM     17  C   UNL d   1       0.580  -0.130   0.907  0.00  0.00     0.164 C 
BRANCH  17  18
ATOM     18  C   UNL d   1      -0.380  -1.292   0.978  0.00  0.00     0.184 C 
BRANCH  18  19
ATOM     19  O   UNL d   1       0.376  -2.518   0.943  0.00  0.00    -0.399 OA
ATOM     20  H   UNL d   1       0.922  -2.521   0.138  0.00  0.00     0.209 HD
ENDBRANCH  18  19
ENDBRANCH  17  18
ENDBRANCH  15  17
ENDBRANCH   7  15
ENDBRANCH   5   6
ENDBRANCH   2   5
BRANCH   3  21
ATOM     21  C   UNL d   1       4.628  -1.173   0.003  0.00  0.00     0.032 C 
ATOM     22  C   UNL d   1       5.408  -0.428   0.895  0.00  0.00     0.025 C 
ATOM     23  C   UNL d   1       6.749  -0.249   0.662  0.00  0.00     0.002 C 
ATOM     24  C   UNL d   1       7.348  -1.026  -0.315  0.00  0.00     0.001 C 
ATOM     25  C   UNL d   1       6.589  -1.951  -1.066  0.00  0.00     0.021 C 
ATOM     26  C   UNL d   1       5.181  -2.000  -0.987  0.00  0.00     0.027 C 
BRANCH  26  27
ATOM     27  S   UNL d   1       4.349  -3.034  -2.225  0.00  0.00    -0.089 SA
BRANCH  27  28
ATOM     28  C   UNL d   1       2.562  -2.912  -2.227  0.00  0.00     0.005 C 
ATOM     29  C   UNL d   1       1.874  -1.757  -2.594  0.00  0.00     0.020 C 
ATOM     30  C   UNL d   1       0.480  -1.607  -2.382  0.00  0.00     0.025 C 
ATOM     31  C   UNL d   1      -0.286  -2.713  -2.047  0.00  0.00     0.034 C 
ATOM     32 CL   UNL d   1      -1.986  -2.607  -1.764  0.00  0.00    -0.084 Cl
ATOM     33  C   UNL d   1       0.364  -3.919  -1.816  0.00  0.00     0.025 C 
ATOM     34  C   UNL d   1       1.772  -4.007  -1.874  0.00  0.00     0.020 C 
ENDBRANCH  27  28
ENDBRANCH  26  27
ENDBRANCH   3  21
TORSDOF 9
