REMARK  6 active torsions:
REMARK  status: ('A' for Active; 'I' for Inactive)
REMARK    1  A    between atoms: C_2  and  C_23 
REMARK    2  A    between atoms: N_3  and  N_4 
REMARK       I    between atoms: N_4  and  C_5 
REMARK    3  A    between atoms: C_5  and  C_7 
REMARK    4  A    between atoms: C_10  and  N_11 
REMARK       I    between atoms: N_11  and  C_12 
REMARK    5  A    between atoms: C_12  and  C_14 
REMARK    6  A    between atoms: C_26  and  N_27 
ROOT
ATOM      1  C   UNL d   1       2.538  -1.973  -4.423  0.00  0.00     0.033 A 
ATOM      2  C   UNL d   1       2.870  -3.148  -5.117  0.00  0.00     0.019 A 
ATOM      3  C   UNL d   1       2.165  -3.517  -6.287  0.00  0.00     0.030 A 
ATOM      4  C   UNL d   1       1.087  -2.742  -6.744  0.00  0.00     0.035 A 
ATOM      5  C   UNL d   1       0.782  -1.576  -6.039  0.00  0.00     0.030 A 
ATOM      6  C   UNL d   1       1.493  -1.189  -4.901  0.00  0.00     0.019 A 
ENDROOT
BRANCH   1   7
ATOM      7  C   UNL d   1       3.357  -1.481  -3.272  0.00  0.00     0.271 C 
ATOM      8  N   UNL d   1       2.639  -0.920  -2.220  0.00  0.00    -0.243 N 
ATOM      9  H   UNL d   1       1.631  -0.978  -2.239  0.00  0.00     0.192 HD
ATOM     10  O   UNL d   1       4.583  -1.586  -3.339  0.00  0.00    -0.266 OA
BRANCH   8  11
ATOM     11  N   UNL d   1       3.278  -0.398  -1.119  0.00  0.00    -0.176 NA
ATOM     12  C   UNL d   1       2.595   0.038  -0.094  0.00  0.00     0.061 C 
ATOM     13  C   UNL d   1       1.079   0.063   0.002  0.00  0.00     0.073 C 
BRANCH  12  14
ATOM     14  C   UNL d   1       3.346   0.530   1.123  0.00  0.00    -0.010 A 
ATOM     15  C   UNL d   1       4.537   1.252   0.990  0.00  0.00     0.015 A 
ATOM     16  C   UNL d   1       5.326   1.538   2.120  0.00  0.00     0.024 A 
ATOM     17  C   UNL d   1       4.897   1.208   3.410  0.00  0.00     0.005 A 
ATOM     18  C   UNL d   1       3.707   0.491   3.536  0.00  0.00     0.024 A 
ATOM     19  C   UNL d   1       2.928   0.171   2.411  0.00  0.00     0.015 A 
BRANCH  17  20
ATOM     20  N   UNL d   1       5.744   1.375   4.510  0.00  0.00    -0.303 NA
ATOM     21  H   UNL d   1       6.440   2.109   4.414  0.00  0.00     0.124 HD
ATOM     22  H   UNL d   1       5.288   1.383   5.417  0.00  0.00     0.124 HD
ENDBRANCH  17  20
ENDBRANCH  12  14
ENDBRANCH   8  11
ENDBRANCH   1   7
BRANCH   4  23
ATOM     23  N   UNL d   1       0.328  -3.155  -7.874  0.00  0.00    -0.323 N 
ATOM     24  C   UNL d   1      -0.838  -2.545  -8.335  0.00  0.00     0.256 C 
ATOM     25  O   UNL d   1      -1.329  -1.498  -7.915  0.00  0.00    -0.267 OA
ATOM     26  H   UNL d   1       0.646  -3.991  -8.348  0.00  0.00     0.169 HD
BRANCH  24  27
ATOM     27  C   UNL d   1      -1.607  -3.210  -9.425  0.00  0.00     0.038 A 
ATOM     28  C   UNL d   1      -2.129  -2.380 -10.436  0.00  0.00     0.017 A 
ATOM     29  C   UNL d   1      -3.020  -2.884 -11.386  0.00  0.00     0.001 A 
ATOM     30  C   UNL d   1      -3.363  -4.231 -11.362  0.00  0.00     0.001 A 
ATOM     31  C   UNL d   1      -2.860  -5.060 -10.358  0.00  0.00     0.007 A 
ATOM     32  C   UNL d   1      -1.988  -4.562  -9.372  0.00  0.00    -0.046 A 
ATOM     33  C   UNL d   1      -1.541  -5.480  -8.275  0.00  0.00     0.049 C 
ENDBRANCH  24  27
ENDBRANCH   4  23
TORSDOF 6
