REMARK  3 active torsions:
REMARK  status: ('A' for Active; 'I' for Inactive)
REMARK    1  A    between atoms: C_3  and  C_4 
REMARK       I    between atoms: C_4  and  N_6 
REMARK    2  A    between atoms: N_6  and  N_7 
REMARK       I    between atoms: N_7  and  C_8 
REMARK    3  A    between atoms: C_8  and  C_10 
ROOT
ATOM      1  C   UNL d   1       3.384   1.530   0.028  0.00  0.00     0.294 C 
ATOM      2  O   UNL d   1       3.518   2.760   0.039  0.00  0.00    -0.264 OA
ATOM      3  N   UNL d   1       4.518   0.716   0.034  0.00  0.00    -0.261 N 
ATOM      4  H   UNL d   1       4.494  -0.287   0.007  0.00  0.00     0.190 HD
ENDROOT
BRANCH   3   5
ATOM      5  N   UNL d   1       5.841   1.201   0.069  0.00  0.00    -0.263 N 
ATOM      6  C   UNL d   1       6.870   0.259   0.056  0.00  0.00     0.273 C 
ATOM      7  O   UNL d   1       6.666  -0.953  -0.014  0.00  0.00    -0.266 OA
ATOM      8  H   UNL d   1       5.976   2.208   0.115  0.00  0.00     0.190 HD
BRANCH   6   9
ATOM      9  C   UNL d   1       8.261   0.772   0.093  0.00  0.00     0.072 A 
ATOM     10  C   UNL d   1       9.256   0.211  -0.724  0.00  0.00     0.020 A 
ATOM     11  C   UNL d   1      10.559   0.731  -0.700  0.00  0.00     0.001 A 
ATOM     12  C   UNL d   1      10.877   1.783   0.159  0.00  0.00     0.003 A 
ATOM     13  C   UNL d   1       9.900   2.307   1.005  0.00  0.00     0.043 A 
ATOM     14  C   UNL d   1       8.602   1.801   0.966  0.00  0.00     0.132 A 
ATOM     15  F   UNL d   1       7.689   2.317   1.800  0.00  0.00    -0.205 F 
ENDBRANCH   6   9
ENDBRANCH   3   5
BRANCH   1  16
ATOM     16  C   UNL d   1       2.068   0.849   0.007  0.00  0.00     0.152 A 
ATOM     17  C   UNL d   1       1.667  -0.490   0.004  0.00  0.00    -0.009 A 
ATOM     18  C   UNL d   1       2.457  -1.742   0.040  0.00  0.00     0.052 C 
ATOM     19  C   UNL d   1       0.233  -0.508  -0.016  0.00  0.00     0.007 A 
ATOM     20  C   UNL d   1      -0.739  -1.532  -0.026  0.00  0.00     0.015 A 
ATOM     21  C   UNL d   1      -0.184   0.812  -0.001  0.00  0.00     0.087 A 
ATOM     22  C   UNL d   1      -2.096  -1.199  -0.003  0.00  0.00     0.001 A 
ATOM     23  C   UNL d   1      -2.490   0.138   0.023  0.00  0.00     0.003 A 
ATOM     24  C   UNL d   1      -1.539   1.178   0.018  0.00  0.00     0.038 A 
ATOM     25  O   UNL d   1       0.914   1.635   0.001  0.00  0.00    -0.304 OA
ENDBRANCH   1  16
TORSDOF 3
