@<TRIPOS>MOLECULE
*****
 66 68 0 0 0
SMALL
GASTEIGER

@<TRIPOS>ATOM
      1 C           0.9354   -0.0023    0.0295 C.3     1  UNL1        0.0004
      2 N           2.3887   -0.0678    0.0728 N.pl3   1  UNL1       -0.3360
      3 C           3.1112    0.7079    1.0672 C.3     1  UNL1        0.0004
      4 C           3.0911   -0.7561   -0.9022 C.ar    1  UNL1        0.0293
      5 C           4.1959   -1.5664   -0.5995 C.ar    1  UNL1       -0.0389
      6 C           4.9319   -2.2540   -1.5981 C.ar    1  UNL1       -0.0387
      7 C           4.5420   -2.1899   -2.9404 C.ar    1  UNL1        0.0349
      8 N           5.1967   -2.9761   -3.9463 N.am    1  UNL1       -0.2695
      9 C           4.7993   -3.0304   -5.2712 C.2     1  UNL1        0.3041
     10 O           3.8821   -2.3817   -5.7747 O.2     1  UNL1       -0.2525
     11 N           5.5049   -3.8841   -6.0837 N.am    1  UNL1       -0.2950
     12 C           5.0962   -3.9551   -7.4827 C.3     1  UNL1        0.0383
     13 C           5.8960   -4.9419   -8.2809 C.ar    1  UNL1       -0.0300
     14 C           5.5677   -6.2963   -8.3041 C.ar    1  UNL1       -0.0571
     15 C           6.4027   -7.2040   -8.9530 C.ar    1  UNL1       -0.0611
     16 C           7.5310   -6.7528   -9.6481 C.ar    1  UNL1       -0.0571
     17 C           7.8617   -5.3861   -9.6718 C.ar    1  UNL1       -0.0300
     18 C           9.1194   -4.9267  -10.3781 C.3     1  UNL1        0.0383
     19 N           9.3927   -3.4979  -10.2977 N.am    1  UNL1       -0.2950
     20 C          10.5121   -2.9679  -10.8677 C.2     1  UNL1        0.3041
     21 O          11.3128   -3.6841  -11.4744 O.2     1  UNL1       -0.2525
     22 N          10.6442   -1.6049  -10.6717 N.am    1  UNL1       -0.2695
     23 C          11.6977   -0.8708  -11.2552 C.ar    1  UNL1        0.0349
     24 C          12.3307    0.1704  -10.5891 C.ar    1  UNL1       -0.0387
     25 C          13.3639    0.8894  -11.2300 C.ar    1  UNL1       -0.0389
     26 C          13.8322    0.5772  -12.5224 C.ar    1  UNL1        0.0293
     27 N          14.9006    1.2262  -13.1258 N.pl3   1  UNL1       -0.3360
     28 C          15.7261    2.2142  -12.4313 C.3     1  UNL1        0.0004
     29 C          15.4403    0.8130  -14.4261 C.3     1  UNL1        0.0004
     30 C          13.1199   -0.4415  -13.1691 C.ar    1  UNL1       -0.0389
     31 C          12.0885   -1.1538  -12.5543 C.ar    1  UNL1       -0.0387
     32 C           7.0211   -4.5013   -8.9847 C.ar    1  UNL1       -0.0524
     33 C           3.4634   -1.3548   -3.2357 C.ar    1  UNL1       -0.0387
     34 C           2.7466   -0.6698   -2.2465 C.ar    1  UNL1       -0.0389
     35 H           0.5328    0.5877    0.8607 H       1  UNL1        0.0428
     36 H           0.5206   -1.0117    0.1252 H       1  UNL1        0.0428
     37 H           0.5562    0.4498   -0.8925 H       1  UNL1        0.0428
     38 H           2.4284    1.2299    1.7471 H       1  UNL1        0.0428
     39 H           3.7357    1.4721    0.5897 H       1  UNL1        0.0428
     40 H           3.7456    0.0665    1.6850 H       1  UNL1        0.0428
     41 H           4.4647   -1.7149    0.4443 H       1  UNL1        0.0637
     42 H           5.7962   -2.8302   -1.2792 H       1  UNL1        0.0637
     43 H           5.9330   -3.5952   -3.6371 H       1  UNL1        0.1564
     44 H           6.2483   -4.4771   -5.7482 H       1  UNL1        0.1506
     45 H           5.1990   -2.9502   -7.9176 H       1  UNL1        0.0512
     46 H           4.0298   -4.2043   -7.5426 H       1  UNL1        0.0512
     47 H           4.6612   -6.6453   -7.8153 H       1  UNL1        0.0621
     48 H           6.1806   -8.2675   -8.9004 H       1  UNL1        0.0618
     49 H           8.1495   -7.4846  -10.1672 H       1  UNL1        0.0621
     50 H           9.0751   -5.2068  -11.4385 H       1  UNL1        0.0512
     51 H           9.9790   -5.4454   -9.9333 H       1  UNL1        0.0512
     52 H           8.7737   -2.8720   -9.8186 H       1  UNL1        0.1506
     53 H          10.0767   -1.1383   -9.9792 H       1  UNL1        0.1564
     54 H          12.1055    0.4063   -9.5525 H       1  UNL1        0.0637
     55 H          13.7880    1.7111  -10.6637 H       1  UNL1        0.0637
     56 H          15.3883    2.4905  -11.4326 H       1  UNL1        0.0428
     57 H          15.7549    3.1394  -13.0166 H       1  UNL1        0.0428
     58 H          16.7537    1.8481  -12.3201 H       1  UNL1        0.0428
     59 H          14.8877    0.0291  -14.9444 H       1  UNL1        0.0428
     60 H          16.4657    0.4402  -14.3185 H       1  UNL1        0.0428
     61 H          15.4559    1.6723  -15.1046 H       1  UNL1        0.0428
     62 H          13.3205   -0.7366  -14.1904 H       1  UNL1        0.0637
     63 H          11.5809   -1.9235  -13.1282 H       1  UNL1        0.0637
     64 H           7.2144   -3.4361   -8.9715 H       1  UNL1        0.0624
     65 H           3.1238   -1.1877   -4.2486 H       1  UNL1        0.0637
     66 H           1.9265   -0.0394   -2.5766 H       1  UNL1        0.0637
@<TRIPOS>BOND
     1     1     2    1
     2     2     3    1
     3     2     4    1
     4     4     5   ar
     5     5     6   ar
     6     6     7   ar
     7     7     8    1
     8     8     9   am
     9     9    10    2
    10     9    11   am
    11    11    12    1
    12    12    13    1
    13    13    14   ar
    14    14    15   ar
    15    15    16   ar
    16    16    17   ar
    17    17    18    1
    18    18    19    1
    19    19    20   am
    20    20    21    2
    21    20    22   am
    22    22    23    1
    23    23    24   ar
    24    24    25   ar
    25    25    26   ar
    26    26    27    1
    27    27    28    1
    28    27    29    1
    29    26    30   ar
    30    30    31   ar
    31    23    31   ar
    32    17    32   ar
    33    13    32   ar
    34     7    33   ar
    35    33    34   ar
    36     4    34   ar
    37     1    35    1
    38     1    36    1
    39     1    37    1
    40     3    38    1
    41     3    39    1
    42     3    40    1
    43     5    41    1
    44     6    42    1
    45     8    43    1
    46    11    44    1
    47    12    45    1
    48    12    46    1
    49    14    47    1
    50    15    48    1
    51    16    49    1
    52    18    50    1
    53    18    51    1
    54    19    52    1
    55    22    53    1
    56    24    54    1
    57    25    55    1
    58    28    56    1
    59    28    57    1
    60    28    58    1
    61    29    59    1
    62    29    60    1
    63    29    61    1
    64    30    62    1
    65    31    63    1
    66    32    64    1
    67    33    65    1
    68    34    66    1
