@<TRIPOS>MOLECULE
*****
 52 55 0 0 0
SMALL
GASTEIGER

@<TRIPOS>ATOM
      1 C           1.0193    0.0662   -0.0121 C.3     1  UNL1       -0.0305
      2 C           2.5486    0.0890   -0.0724 C.3     1  UNL1        0.0913
      3 O           3.0234    0.1724   -1.4479 O.3     1  UNL1       -0.4505
      4 C           4.3858    0.0011   -1.6200 C.2     1  UNL1        0.4032
      5 O           5.1514   -0.1691   -0.6922 O.2     1  UNL1       -0.2262
      6 N           4.7827   -0.0492   -2.9625 N.am    1  UNL1       -0.2623
      7 C           4.2447    0.8520   -3.9857 C.3     1  UNL1        0.0222
      8 C           5.2740    1.9491   -4.3709 C.3     1  UNL1       -0.0101
      9 C           6.6803    1.4224   -4.4786 C.ar    1  UNL1       -0.0202
     10 C           6.9902    0.1500   -4.0359 C.ar    1  UNL1        0.0129
     11 S           8.6285   -0.2412   -4.3822 S.2     1  UNL1       -0.0761
     12 C           8.9524    1.3145   -5.0743 C.ar    1  UNL1        0.0798
     13 C           7.8307    2.1220   -5.0129 C.ar    1  UNL1        0.0684
     14 C           7.8477    3.3994   -5.7203 C.2     1  UNL1        0.2483
     15 O           6.8570    4.1312   -5.8075 O.2     1  UNL1       -0.2701
     16 N           8.9749    3.6903   -6.4442 N.am    1  UNL1       -0.2890
     17 C          10.0536    2.7749   -6.7384 C.3     1  UNL1        0.1175
     18 C          10.1875    2.4678   -8.2708 C.ar    1  UNL1        0.0324
     19 C          11.2854    3.0882   -8.9379 C.ar    1  UNL1       -0.0483
     20 C          11.4590    3.0276  -10.3429 C.ar    1  UNL1       -0.0194
     21 C          10.6020    2.2769  -11.1362 C.ar    1  UNL1        0.1236
     22 O          10.8664    2.1621  -12.4723 O.3     1  UNL1       -0.4950
     23 C          10.0204    1.2519  -13.1893 C.3     1  UNL1        0.0788
     24 C           9.5313    1.6757  -10.5215 C.ar    1  UNL1        0.0221
     25 C           9.3106    1.7578   -9.1415 C.ar    1  UNL1        0.1301
     26 O           8.1545    1.0357   -8.9564 O.3     1  UNL1       -0.4946
     27 C           7.9030    0.7945   -7.6271 C.3     1  UNL1        0.0788
     28 N          10.0674    1.6342   -5.8136 N.pl3   1  UNL1       -0.3161
     29 C           6.0041   -0.7902   -3.3580 C.3     1  UNL1        0.0493
     30 H           0.6598    0.0702    1.0261 H       1  UNL1        0.0262
     31 H           0.6135   -0.8271   -0.4987 H       1  UNL1        0.0262
     32 H           0.5920    0.9357   -0.5202 H       1  UNL1        0.0262
     33 H           2.9248   -0.8164    0.4226 H       1  UNL1        0.0695
     34 H           2.9034    0.9681    0.4761 H       1  UNL1        0.0695
     35 H           3.3188    1.3305   -3.6520 H       1  UNL1        0.0469
     36 H           4.0100    0.2365   -4.8642 H       1  UNL1        0.0469
     37 H           5.2972    2.7221   -3.5976 H       1  UNL1        0.0329
     38 H           4.9638    2.4103   -5.3158 H       1  UNL1        0.0329
     39 H           8.8600    4.4740   -7.0701 H       1  UNL1        0.1511
     40 H          10.9429    3.3620   -6.4623 H       1  UNL1        0.0761
     41 H          12.0363    3.6491   -8.3771 H       1  UNL1        0.0624
     42 H          12.2677    3.5784  -10.8186 H       1  UNL1        0.0654
     43 H          10.3836    1.1771  -14.2163 H       1  UNL1        0.0660
     44 H           8.9894    1.6252  -13.2276 H       1  UNL1        0.0660
     45 H          10.0467    0.2412  -12.7582 H       1  UNL1        0.0660
     46 H           8.7974    1.1068  -11.0876 H       1  UNL1        0.0691
     47 H           6.9985    0.2398   -7.3951 H       1  UNL1        0.0660
     48 H           7.7132    1.7841   -7.2663 H       1  UNL1        0.0660
     49 H           8.7590    0.2475   -7.2342 H       1  UNL1        0.0660
     50 H          10.6885    0.8858   -6.1118 H       1  UNL1        0.1486
     51 H           6.4502   -1.3011   -2.5022 H       1  UNL1        0.0520
     52 H           5.6587   -1.5595   -4.0669 H       1  UNL1        0.0520
@<TRIPOS>BOND
     1     1     2    1
     2     2     3    1
     3     3     4    1
     4     4     5    2
     5     4     6   am
     6     6     7    1
     7     7     8    1
     8     8     9    1
     9     9    10   ar
    10    10    11   ar
    11    11    12   ar
    12    12    13   ar
    13     9    13   ar
    14    13    14    1
    15    14    15    2
    16    14    16   am
    17    16    17    1
    18    17    18    1
    19    18    19   ar
    20    19    20   ar
    21    20    21   ar
    22    21    22    1
    23    22    23    1
    24    21    24   ar
    25    24    25   ar
    26    18    25   ar
    27    25    26    1
    28    26    27    1
    29    17    28    1
    30    12    28    1
    31    10    29    1
    32     6    29    1
    33     1    30    1
    34     1    31    1
    35     1    32    1
    36     2    33    1
    37     2    34    1
    38     7    35    1
    39     7    36    1
    40     8    37    1
    41     8    38    1
    42    16    39    1
    43    17    40    1
    44    19    41    1
    45    20    42    1
    46    23    43    1
    47    23    44    1
    48    23    45    1
    49    24    46    1
    50    27    47    1
    51    27    48    1
    52    27    49    1
    53    28    50    1
    54    29    51    1
    55    29    52    1
