@<TRIPOS>MOLECULE
*****
 46 47 0 0 0
SMALL
GASTEIGER

@<TRIPOS>ATOM
      1 C           1.2124    0.5072   -0.3456 C.3     1  UNL1        0.0790
      2 O           2.5669    0.0927   -0.1701 O.3     1  UNL1       -0.4915
      3 C           3.0676   -0.2971    1.0523 C.ar    1  UNL1        0.1615
      4 C           4.2629    0.3686    1.3978 C.ar    1  UNL1       -0.0160
      5 C           5.0871   -0.0666    2.4592 C.ar    1  UNL1       -0.0531
      6 C           4.7039   -1.1314    3.2881 C.ar    1  UNL1       -0.0238
      7 C           5.4938   -1.4868    4.5583 C.3     1  UNL1        0.0472
      8 C           5.5661   -0.2297    5.4415 C.3     1  UNL1       -0.0424
      9 N           4.9283   -2.6085    5.3323 N.am    1  UNL1       -0.2912
     10 C           5.5029   -3.1105    6.4740 C.2     1  UNL1        0.3231
     11 O           6.5617   -2.6729    6.9353 O.2     1  UNL1       -0.2507
     12 N           4.7709   -4.1176    7.0547 N.am    1  UNL1       -0.1781
     13 O           5.3228   -4.6697    8.2412 O.3     1  UNL1       -0.2740
     14 C           4.5161   -5.7434    8.7258 C.3     1  UNL1        0.0983
     15 C           5.0474   -6.2862   10.0336 C.ar    1  UNL1       -0.0197
     16 C           5.0108   -7.6638   10.2997 C.ar    1  UNL1       -0.0563
     17 C           5.2819   -8.1459   11.5831 C.ar    1  UNL1       -0.0614
     18 C           5.6750   -7.2680   12.5911 C.ar    1  UNL1       -0.0617
     19 C           5.7649   -5.9034   12.3263 C.ar    1  UNL1       -0.0614
     20 C           5.4437   -5.4143   11.0584 C.ar    1  UNL1       -0.0563
     21 C           3.5333   -1.7944    2.9208 C.ar    1  UNL1       -0.0114
     22 C           2.7185   -1.4113    1.8348 C.ar    1  UNL1        0.1618
     23 O           1.6964   -2.3249    1.7496 O.3     1  UNL1       -0.4914
     24 C           0.7081   -2.0227    0.8147 C.3     1  UNL1        0.0790
     25 H           1.1330    1.1083   -1.2550 H       1  UNL1        0.0660
     26 H           0.8098    1.0501    0.5129 H       1  UNL1        0.0660
     27 H           0.5532   -0.3142   -0.6259 H       1  UNL1        0.0660
     28 H           4.5812    1.2394    0.8240 H       1  UNL1        0.0655
     29 H           6.0347    0.4465    2.6273 H       1  UNL1        0.0622
     30 H           6.5082   -1.7890    4.2659 H       1  UNL1        0.0546
     31 H           4.5601    0.0933    5.7337 H       1  UNL1        0.0251
     32 H           6.0523    0.6057    4.9279 H       1  UNL1        0.0251
     33 H           6.1342   -0.3988    6.3589 H       1  UNL1        0.0251
     34 H           4.0708   -3.0382    5.0398 H       1  UNL1        0.1509
     35 H           3.9330   -4.5229    6.6632 H       1  UNL1        0.1841
     36 H           4.4793   -6.5343    7.9683 H       1  UNL1        0.0634
     37 H           3.4960   -5.3832    8.9115 H       1  UNL1        0.0634
     38 H           4.7525   -8.3724    9.5162 H       1  UNL1        0.0621
     39 H           5.1672   -9.2044   11.8027 H       1  UNL1        0.0618
     40 H           5.9117   -7.6471   13.5818 H       1  UNL1        0.0618
     41 H           6.0598   -5.2140   13.1131 H       1  UNL1        0.0618
     42 H           5.4910   -4.3427   10.8728 H       1  UNL1        0.0621
     43 H           3.1973   -2.6744    3.4558 H       1  UNL1        0.0659
     44 H          -0.0981   -2.7542    0.7832 H       1  UNL1        0.0660
     45 H           1.1792   -2.0461   -0.1717 H       1  UNL1        0.0660
     46 H           0.2362   -1.0890    1.1351 H       1  UNL1        0.0660
@<TRIPOS>BOND
     1     1     2    1
     2     2     3    1
     3     3     4   ar
     4     4     5   ar
     5     5     6   ar
     6     6     7    1
     7     7     8    1
     8     7     9    1
     9     9    10   am
    10    10    11    2
    11    10    12   am
    12    12    13    1
    13    13    14    1
    14    14    15    1
    15    15    16   ar
    16    16    17   ar
    17    17    18   ar
    18    18    19   ar
    19    19    20   ar
    20    15    20   ar
    21     6    21   ar
    22    21    22   ar
    23     3    22   ar
    24    22    23    1
    25    23    24    1
    26     1    25    1
    27     1    26    1
    28     1    27    1
    29     4    28    1
    30     5    29    1
    31     7    30    1
    32     8    31    1
    33     8    32    1
    34     8    33    1
    35     9    34    1
    36    12    35    1
    37    14    36    1
    38    14    37    1
    39    16    38    1
    40    17    39    1
    41    18    40    1
    42    19    41    1
    43    20    42    1
    44    21    43    1
    45    24    44    1
    46    24    45    1
    47    24    46    1
