REMARK  9 active torsions:
REMARK  status: ('A' for Active; 'I' for Inactive)
REMARK    1  A    between atoms: C_2  and  N_3 
REMARK    2  A    between atoms: C_4  and  C_5 
REMARK    3  A    between atoms: C_5  and  C_6 
REMARK    4  A    between atoms: C_6  and  N_7 
REMARK       I    between atoms: N_7  and  C_8 
REMARK    5  A    between atoms: C_8  and  C_10 
REMARK    6  A    between atoms: C_10  and  C_11 
REMARK    7  A    between atoms: C_11  and  N_12 
REMARK       I    between atoms: N_12  and  C_13 
REMARK    8  A    between atoms: C_13  and  C_15 
REMARK    9  A    between atoms: C_21  and  O_22 
ROOT
ATOM      1  N   UNL d   1      -0.273   4.071  -2.143  0.00  0.00    -0.361 N 
ATOM      2  C   UNL d   1      -0.803   5.308  -2.454  0.00  0.00     0.219 C 
ATOM      3  O   UNL d   1      -0.310   6.342  -2.011  0.00  0.00    -0.274 OA
ATOM      4  H   UNL d   1      -0.706   3.222  -2.486  0.00  0.00     0.162 HD
ENDROOT
BRANCH   2   5
ATOM      5  C   UNL d   1      -2.019   5.303  -3.371  0.00  0.00     0.122 C 
BRANCH   5   6
ATOM      6  C   UNL d   1      -2.482   6.741  -3.642  0.00  0.00     0.132 C 
BRANCH   6   7
ATOM      7  N   UNL d   1      -3.662   6.848  -4.501  0.00  0.00    -0.356 N 
ATOM      8  C   UNL d   1      -4.151   8.100  -4.860  0.00  0.00     0.254 C 
ATOM      9  O   UNL d   1      -3.673   9.144  -4.418  0.00  0.00    -0.268 OA
ATOM     10  H   UNL d   1      -4.041   6.022  -4.943  0.00  0.00     0.162 HD
BRANCH   8  11
ATOM     11  C   UNL d   1      -5.319   8.142  -5.796  0.00  0.00     0.065 A 
ATOM     12  C   UNL d   1      -6.419   7.293  -5.596  0.00  0.00     0.020 A 
ATOM     13  C   UNL d   1      -7.551   7.379  -6.427  0.00  0.00     0.008 A 
ATOM     14  C   UNL d   1      -7.609   8.323  -7.459  0.00  0.00    -0.059 A 
ATOM     15  C   UNL d   1      -8.806   8.456  -8.358  0.00  0.00     0.048 C 
ATOM     16  C   UNL d   1      -6.514   9.172  -7.657  0.00  0.00     0.044 A 
ATOM     17  C   UNL d   1      -5.380   9.078  -6.839  0.00  0.00     0.081 A 
BRANCH  17  18
ATOM     18  O   UNL d   1      -4.317   9.895  -7.108  0.00  0.00    -0.360 OA
ATOM     19  H   UNL d   1      -4.545  10.507  -7.826  0.00  0.00     0.217 HD
ENDBRANCH  17  18
ENDBRANCH   8  11
ENDBRANCH   6   7
ENDBRANCH   5   6
ENDBRANCH   2   5
BRANCH   1  20
ATOM     20  C   UNL d   1       0.899   4.008  -1.269  0.00  0.00     0.130 C 
BRANCH  20  21
ATOM     21  C   UNL d   1       1.325   2.590  -0.971  0.00  0.00     0.100 C 
BRANCH  21  22
ATOM     22  C   UNL d   1       2.520   2.470  -0.061  0.00  0.00     0.130 A 
ATOM     23  N   UNL d   1       3.014   1.265   0.328  0.00  0.00    -0.310 N 
ATOM     24  C   UNL d   1       4.101   1.569   1.119  0.00  0.00     0.196 A 
ATOM     25  N   UNL d   1       4.143   2.952   1.190  0.00  0.00    -0.251 N 
ATOM     26  S   UNL d   1       5.194   0.579   1.876  0.00  0.00    -0.039 SA
ATOM     27  N   UNL d   1       3.149   3.497   0.436  0.00  0.00    -0.159 NA
ATOM     28  H   UNL d   1       4.805   3.518   1.708  0.00  0.00     0.191 HD
BRANCH  23  29
ATOM     29  C   UNL d   1       2.573  -0.081  -0.049  0.00  0.00     0.128 C 
ATOM     30  C   UNL d   1       1.064  -0.260  -0.023  0.00  0.00     0.027 C 
ENDBRANCH  23  29
ENDBRANCH  21  22
ENDBRANCH  20  21
ENDBRANCH   1  20
TORSDOF 9
