@<TRIPOS>MOLECULE
*****
 52 52 0 0 0
SMALL
GASTEIGER

@<TRIPOS>ATOM
      1 C           7.2535    1.0048    1.7301 C.3     1  UNL1       -0.0305
      2 C           7.8603    0.1182    0.6588 C.3     1  UNL1        0.0912
      3 O           7.1612    0.3795   -0.5613 O.3     1  UNL1       -0.4507
      4 C           7.4823   -0.4400   -1.5894 C.2     1  UNL1        0.4005
      5 O           8.3255   -1.3324   -1.5523 O.2     1  UNL1       -0.2265
      6 N           6.7551   -0.1708   -2.7112 N.am    1  UNL1       -0.2768
      7 C           6.1870    1.1403   -3.0093 C.3     1  UNL1        0.0420
      8 C           4.6746    1.0926   -2.7504 C.3     1  UNL1        0.0316
      9 N           4.3266    1.4826   -1.3927 N.am    1  UNL1       -0.2976
     10 C           3.0236    1.4276   -0.9818 C.2     1  UNL1        0.2999
     11 O           2.1056    1.0731   -1.7104 O.2     1  UNL1       -0.2529
     12 N           2.8448    1.8272    0.3121 N.am    1  UNL1       -0.2953
     13 C           1.5150    1.8611    0.8889 C.3     1  UNL1        0.0385
     14 C           1.4501    2.2930    2.3398 C.ar    1  UNL1       -0.0239
     15 C           2.5237    2.1021    3.2234 C.ar    1  UNL1       -0.0567
     16 C           2.3785    2.3148    4.5961 C.ar    1  UNL1       -0.0550
     17 C           1.1755    2.7895    5.1110 C.ar    1  UNL1        0.0156
     18 C           0.0976    3.0019    4.2451 C.ar    1  UNL1        0.2735
     19 N          -1.1985    3.4196    4.7981 N.pl3   1  UNL1        0.0796
     20 O          -1.2729    3.5976    6.0229 O.2     1  UNL1        0.0414
     21 O          -2.1447    3.5578    4.0102 O.co2   1  UNL1       -0.5760
     22 C           0.2276    2.7555    2.8670 C.ar    1  UNL1        0.0203
     23 C           6.5025    1.6282   -4.4428 C.3     1  UNL1       -0.0306
     24 C           8.0106    1.7723   -4.7549 C.3     1  UNL1       -0.0450
     25 C           8.7544    0.4404   -4.7199 C.3     1  UNL1       -0.0626
     26 C           8.2155    2.3733   -6.1462 C.3     1  UNL1       -0.0626
     27 H           7.7603    0.8622    2.6878 H       1  UNL1        0.0262
     28 H           6.1879    0.7840    1.8575 H       1  UNL1        0.0262
     29 H           7.3250    2.0598    1.4445 H       1  UNL1        0.0262
     30 H           7.7512   -0.9342    0.9447 H       1  UNL1        0.0695
     31 H           8.9200    0.3611    0.5286 H       1  UNL1        0.0695
     32 H           6.8671   -0.8392   -3.4642 H       1  UNL1        0.1523
     33 H           6.6565    1.8699   -2.3382 H       1  UNL1        0.0515
     34 H           4.1337    1.7631   -3.4256 H       1  UNL1        0.0481
     35 H           4.2904    0.0780   -2.9218 H       1  UNL1        0.0481
     36 H           5.0704    1.6591   -0.7318 H       1  UNL1        0.1503
     37 H           3.6356    2.1687    0.8294 H       1  UNL1        0.1506
     38 H           1.0950    0.8494    0.8175 H       1  UNL1        0.0512
     39 H           0.8955    2.5209    0.2691 H       1  UNL1        0.0512
     40 H           3.4889    1.7545    2.8663 H       1  UNL1        0.0621
     41 H           3.2017    2.0762    5.2657 H       1  UNL1        0.0620
     42 H           1.0928    2.9705    6.1805 H       1  UNL1        0.0685
     43 H          -0.6267    2.8943    2.2041 H       1  UNL1        0.0688
     44 H           6.0425    2.6213   -4.5624 H       1  UNL1        0.0286
     45 H           6.0261    0.9781   -5.1868 H       1  UNL1        0.0286
     46 H           8.4585    2.4509   -4.0171 H       1  UNL1        0.0296
     47 H           8.2684   -0.2905   -5.3755 H       1  UNL1        0.0232
     48 H           8.8046    0.0323   -3.7167 H       1  UNL1        0.0232
     49 H           9.7998    0.5489   -5.0142 H       1  UNL1        0.0232
     50 H           7.7763    1.7289   -6.9157 H       1  UNL1        0.0232
     51 H           9.2854    2.4711   -6.3631 H       1  UNL1        0.0232
     52 H           7.7633    3.3656   -6.2267 H       1  UNL1        0.0232
@<TRIPOS>UNITY_ATOM_ATTR
19 1
charge 1
21 1
charge -1
@<TRIPOS>BOND
     1     1     2    1
     2     2     3    1
     3     3     4    1
     4     4     5    2
     5     4     6   am
     6     8     9    1
     7     9    10   am
     8    10    11    2
     9    10    12   am
    10    12    13    1
    11    13    14    1
    12    14    15   ar
    13    15    16   ar
    14    16    17   ar
    15    17    18   ar
    16    18    19    1
    17    19    20    2
    18    19    21    1
    19    18    22   ar
    20    14    22   ar
    21     7    23    1
    22    23    24    1
    23    24    25    1
    24    24    26    1
    25     7     8    1
    26     7     6    1
    27     1    27    1
    28     1    28    1
    29     1    29    1
    30     2    30    1
    31     2    31    1
    32     6    32    1
    33     7    33    1
    34     8    34    1
    35     8    35    1
    36     9    36    1
    37    12    37    1
    38    13    38    1
    39    13    39    1
    40    15    40    1
    41    16    41    1
    42    17    42    1
    43    22    43    1
    44    23    44    1
    45    23    45    1
    46    24    46    1
    47    25    47    1
    48    25    48    1
    49    25    49    1
    50    26    50    1
    51    26    51    1
    52    26    52    1
