@<TRIPOS>MOLECULE
*****
 46 49 0 0 0
SMALL
GASTEIGER

@<TRIPOS>ATOM
      1 O           6.4111    2.9020   -2.2204 O.2     1  UNL1       -0.2686
      2 C           6.1599    3.9731   -1.7108 C.2     1  UNL1        0.2605
      3 N           5.4729    4.0563   -0.4758 N.am    1  UNL1       -0.3071
      4 C           4.5799    3.0195    0.1430 C.3     1  UNL1        0.0450
      5 C           3.3682    3.5857    1.0491 C.3     1  UNL1        0.1066
      6 O           2.2368    2.7277    0.8023 O.3     1  UNL1       -0.3824
      7 C           3.6708    3.5492    2.5759 C.3     1  UNL1       -0.0180
      8 C           2.7904    4.5460    3.3517 C.3     1  UNL1       -0.0461
      9 C           3.1570    5.9636    2.9315 C.3     1  UNL1       -0.0272
     10 C           3.0879    6.1159    1.4332 C.ar    1  UNL1       -0.0414
     11 C           3.1723    7.4053    0.8875 C.ar    1  UNL1       -0.0582
     12 C           3.1967    7.5928   -0.4937 C.ar    1  UNL1       -0.0615
     13 C           3.0777    6.5012   -1.3463 C.ar    1  UNL1       -0.0614
     14 C           2.9251    5.2238   -0.8206 C.ar    1  UNL1       -0.0555
     15 C           3.0265    5.0031    0.5675 C.ar    1  UNL1       -0.0115
     16 C           6.5378    5.3108   -2.3054 C.ar    1  UNL1        0.1029
     17 C           6.2802    6.5282   -1.7205 C.ar    1  UNL1       -0.0239
     18 C           7.0877    7.5047   -2.3025 C.ar    1  UNL1        0.0071
     19 C           7.5389    8.7179   -1.7791 C.ar    1  UNL1       -0.0521
     20 C           8.4229    9.4841   -2.5031 C.ar    1  UNL1       -0.0547
     21 C           8.4712    9.2915   -3.8673 C.ar    1  UNL1        0.0178
     22 C           7.9121    8.1326   -4.4911 C.ar    1  UNL1        0.2967
     23 N           7.6396    8.3530   -5.9449 N.pl3   1  UNL1        0.0818
     24 O           8.0956    9.3894   -6.4709 O.2     1  UNL1        0.0415
     25 O           6.9027    7.5555   -6.5321 O.co2   1  UNL1       -0.5760
     26 C           7.4208    7.0936   -3.5936 C.ar    1  UNL1        0.1251
     27 N           7.2666    5.6711   -3.4915 N.ar    1  UNL1       -0.3453
     28 H           5.2570    4.9863   -0.1649 H       1  UNL1        0.1492
     29 H           5.1944    2.3276    0.7259 H       1  UNL1        0.0494
     30 H           4.1370    2.4413   -0.6774 H       1  UNL1        0.0494
     31 H           1.5776    2.8409    1.5076 H       1  UNL1        0.2107
     32 H           4.7210    3.8038    2.7625 H       1  UNL1        0.0297
     33 H           3.4978    2.5474    2.9904 H       1  UNL1        0.0297
     34 H           2.9275    4.4368    4.4345 H       1  UNL1        0.0269
     35 H           1.7268    4.3648    3.1488 H       1  UNL1        0.0269
     36 H           4.1694    6.2044    3.2831 H       1  UNL1        0.0313
     37 H           2.4673    6.6755    3.4015 H       1  UNL1        0.0313
     38 H           3.2719    8.2700    1.5403 H       1  UNL1        0.0620
     39 H           3.3545    8.5843   -0.9089 H       1  UNL1        0.0618
     40 H           3.2249    6.6198   -2.4180 H       1  UNL1        0.0618
     41 H           2.9438    4.3761   -1.5072 H       1  UNL1        0.0621
     42 H           5.7504    6.6916   -0.8005 H       1  UNL1        0.0646
     43 H           7.2818    8.9743   -0.7594 H       1  UNL1        0.0624
     44 H           8.9706   10.2863   -2.0228 H       1  UNL1        0.0620
     45 H           8.8878   10.1216   -4.4452 H       1  UNL1        0.0686
     46 H           7.8330    4.9914   -3.9904 H       1  UNL1        0.1662
@<TRIPOS>UNITY_ATOM_ATTR
23 1
charge 1
25 1
charge -1
@<TRIPOS>BOND
     1     1     2    2
     2     2     3   am
     3     3     4    1
     4     5     7    1
     5     7     8    1
     6     8     9    1
     7     9    10    1
     8    10    11   ar
     9    11    12   ar
    10    12    13   ar
    11    13    14   ar
    12    14    15   ar
    13    10    15   ar
    14     5    15    1
    15     2    16    1
    16    16    17   ar
    17    17    18   ar
    18    18    19   ar
    19    19    20   ar
    20    20    21   ar
    21    21    22   ar
    22    22    23    1
    23    23    24    2
    24    23    25    1
    25    22    26   ar
    26    18    26   ar
    27    26    27   ar
    28    16    27   ar
    29     5     6    1
    30     5     4    1
    31     3    28    1
    32     4    29    1
    33     4    30    1
    34     6    31    1
    35     7    32    1
    36     7    33    1
    37     8    34    1
    38     8    35    1
    39     9    36    1
    40     9    37    1
    41    11    38    1
    42    12    39    1
    43    13    40    1
    44    14    41    1
    45    17    42    1
    46    19    43    1
    47    20    44    1
    48    21    45    1
    49    27    46    1
