REMARK  13 active torsions:
REMARK  status: ('A' for Active; 'I' for Inactive)
REMARK    1  A    between atoms: C_3  and  O_2 
REMARK    2  A    between atoms: C_3  and  C_32 
REMARK    3  A    between atoms: C_3  and  C_4 
REMARK       I    between atoms: C_4  and  N_6 
REMARK    4  A    between atoms: N_6  and  C_7 
REMARK    5  A    between atoms: N_6  and  C_28 
REMARK    6  A    between atoms: C_7  and  C_8 
REMARK    7  A    between atoms: C_7  and  C_19 
REMARK       I    between atoms: C_8  and  N_10 
REMARK    8  A    between atoms: N_10  and  C_11 
REMARK    9  A    between atoms: C_11  and  C_14 
REMARK   10  A    between atoms: C_14  and  C_15 
REMARK   11  A    between atoms: C_20  and  O_21 
REMARK   12  A    between atoms: C_23  and  O_24 
REMARK   13  A    between atoms: C_26  and  O_27 
ROOT
ATOM      1  C   UNL d   1       4.250  -1.904   0.283  0.00  0.00     0.219 C 
ENDROOT
BRANCH   1   2
ATOM      2  N   UNL d   1       2.813  -1.310   0.311  0.00  0.00    -0.324 N 
ATOM      3  C   UNL d   1       2.174  -0.045  -0.044  0.00  0.00     0.255 C 
ATOM      4  O   UNL d   1       0.915  -0.035  -0.018  0.00  0.00    -0.270 OA
BRANCH   3   5
ATOM      5  C   UNL d   1       2.703   1.539  -0.283  0.00  0.00     0.245 C 
BRANCH   5   6
ATOM      6  C   UNL d   1       4.128   2.097  -0.259  0.00  0.00    -0.021 C 
ATOM      7  C   UNL d   1       4.883   3.287  -1.186  0.00  0.00     0.007 C 
ATOM      8  C   UNL d   1       6.561   3.108  -1.944  0.00  0.00    -0.017 C 
ATOM      9  C   UNL d   1       7.580   1.554  -1.722  0.00  0.00     0.042 C 
ATOM     10  C   UNL d   1       6.821   0.390  -0.602  0.00  0.00    -0.017 C 
ATOM     11  C   UNL d   1       5.016   0.946   0.151  0.00  0.00     0.007 C 
ENDBRANCH   5   6
BRANCH   5  12
ATOM     12  O   UNL d   1       2.150   2.325   0.772  0.00  0.00    -0.377 OA
ATOM     13  C   UNL d   1       2.629   1.826   2.030  0.00  0.00     0.203 C 
ENDBRANCH   5  12
ENDBRANCH   3   5
BRANCH   2  14
ATOM     14  C   UNL d   1       1.833  -2.390   0.645  0.00  0.00     0.025 C 
ATOM     15  C   UNL d   1       1.051  -2.122   1.899  0.00  0.00     0.037 C 
ATOM     16  C   UNL d   1       0.996  -2.721  -0.608  0.00  0.00     0.037 C 
ATOM     17  C   UNL d   1       2.501  -3.694   1.016  0.00  0.00     0.037 C 
ENDBRANCH   2  14
ENDBRANCH   1   2
BRANCH   1  18
ATOM     18  C   UNL d   1       4.760  -2.844  -0.803  0.00  0.00     0.246 C 
ATOM     19  O   UNL d   1       5.501  -2.506  -1.735  0.00  0.00    -0.271 OA
ATOM     20  N   UNL d   1       4.460  -4.140  -0.672  0.00  0.00    -0.351 N 
ATOM     21  H   UNL d   1       4.315  -4.578   0.220  0.00  0.00     0.163 HD
BRANCH  20  22
ATOM     22  C   UNL d   1       4.712  -4.966  -1.769  0.00  0.00     0.026 C 
ATOM     23  C   UNL d   1       4.145  -4.288  -3.038  0.00  0.00     0.038 C 
ATOM     24  C   UNL d   1       6.229  -5.024  -1.681  0.00  0.00     0.038 C 
BRANCH  22  25
ATOM     25  C   UNL d   1       3.972  -6.279  -1.442  0.00  0.00     0.038 C 
BRANCH  25  26
ATOM     26  C   UNL d   1       4.285  -7.388  -2.449  0.00  0.00    -0.049 C 
ATOM     27  C   UNL d   1       3.797  -7.035  -3.851  0.00  0.00     0.014 C 
ATOM     28  C   UNL d   1       5.774  -7.720  -2.465  0.00  0.00     0.014 C 
ATOM     29  C   UNL d   1       3.574  -8.663  -2.055  0.00  0.00     0.014 C 
ENDBRANCH  25  26
ENDBRANCH  22  25
ENDBRANCH  20  22
ENDBRANCH   1  18
BRANCH   1  30
ATOM     30  C   UNL d   1       5.345  -1.021   0.038  0.00  0.00     0.040 A 
ATOM     31  C   UNL d   1       6.231  -0.241   1.435  0.00  0.00     0.076 A 
ATOM     32  C   UNL d   1       6.781   1.364   1.383  0.00  0.00     0.055 A 
ATOM     33  C   UNL d   1       6.476   2.216  -0.057  0.00  0.00     0.137 A 
ATOM     34  C   UNL d   1       5.563   1.328  -1.676  0.00  0.00     0.055 A 
ATOM     35  C   UNL d   1       5.006  -0.236  -1.568  0.00  0.00     0.076 A 
BRANCH  31  36
ATOM     36  O   UNL d   1       6.086  -0.626   2.730  0.00  0.00    -0.360 OA
ATOM     37  H   UNL d   1       5.333  -1.214   2.692  0.00  0.00     0.217 HD
ENDBRANCH  31  36
BRANCH  33  38
ATOM     38  O   UNL d   1       7.862   2.973  -0.059  0.00  0.00    -0.378 OA
ATOM     39  H   UNL d   1       7.834   3.898   0.200  0.00  0.00     0.211 HD
ENDBRANCH  33  38
BRANCH  35  40
ATOM     40  O   UNL d   1       3.882  -0.386  -2.373  0.00  0.00    -0.360 OA
ATOM     41  H   UNL d   1       3.915   0.373  -3.001  0.00  0.00     0.217 HD
ENDBRANCH  35  40
ENDBRANCH   1  30
TORSDOF 13
