REMARK  12 active torsions:
REMARK  status: ('A' for Active; 'I' for Inactive)
REMARK    1  A    between atoms: C_2  and  O_3 
REMARK    2  A    between atoms: O_3  and  C_4 
REMARK    3  A    between atoms: C_4  and  C_5 
REMARK    4  A    between atoms: C_5  and  O_6 
REMARK    5  A    between atoms: O_6  and  C_7 
REMARK    6  A    between atoms: C_10  and  C_11 
REMARK       I    between atoms: C_11  and  N_13 
REMARK    7  A    between atoms: N_13  and  C_14 
REMARK    8  A    between atoms: C_14  and  N_16 
REMARK    9  A    between atoms: N_16  and  N_17 
REMARK       I    between atoms: N_17  and  C_18 
REMARK   10  A    between atoms: C_18  and  C_20 
REMARK   11  A    between atoms: C_23  and  N_24 
REMARK       I    between atoms: N_24  and  C_25 
REMARK   12  A    between atoms: C_25  and  C_27 
ROOT
ATOM      1  N   UNL d   1       8.609   7.217  -8.812  0.00  0.00    -0.273 N 
ATOM      2  H   UNL d   1       7.822   7.672  -8.353  0.00  0.00     0.189 HD
ENDROOT
BRANCH   1   3
ATOM      3  C   UNL d   1       9.202   5.990  -8.449  0.00  0.00     0.193 C 
ATOM      4  S   UNL d   1      10.494   5.394  -9.361  0.00  0.00    -0.039 SA
BRANCH   3   5
ATOM      5  N   UNL d   1       8.644   5.353  -7.312  0.00  0.00    -0.298 N 
ATOM      6  C   UNL d   1       9.066   4.122  -6.739  0.00  0.00     0.257 C 
ATOM      7  O   UNL d   1      10.004   3.456  -7.177  0.00  0.00    -0.267 OA
ATOM      8  H   UNL d   1       7.854   5.811  -6.886  0.00  0.00     0.171 HD
BRANCH   6   9
ATOM      9  C   UNL d   1       8.362   3.507  -5.554  0.00  0.00     0.032 A 
ATOM     10  C   UNL d   1       8.807   2.238  -5.102  0.00  0.00     0.020 A 
ATOM     11  C   UNL d   1       8.124   1.524  -4.103  0.00  0.00     0.038 A 
ATOM     12  C   UNL d   1       7.015   2.092  -3.487  0.00  0.00     0.068 A 
ATOM     13  C   UNL d   1       6.620   3.377  -3.865  0.00  0.00     0.038 A 
ATOM     14  C   UNL d   1       7.276   4.077  -4.896  0.00  0.00     0.020 A 
BRANCH  12  15
ATOM     15  O   UNL d   1       6.432   1.381  -2.471  0.00  0.00    -0.349 OA
BRANCH  15  16
ATOM     16  C   UNL d   1       5.001   1.451  -2.425  0.00  0.00     0.201 C 
BRANCH  16  17
ATOM     17  C   UNL d   1       4.498   0.740  -1.172  0.00  0.00     0.194 C 
BRANCH  17  18
ATOM     18  O   UNL d   1       3.067   0.748  -1.148  0.00  0.00    -0.389 OA
BRANCH  18  19
ATOM     19  C   UNL d   1       2.577   0.076   0.013  0.00  0.00     0.163 C 
ATOM     20  C   UNL d   1       1.061   0.085  -0.001  0.00  0.00     0.033 C 
ENDBRANCH  18  19
ENDBRANCH  17  18
ENDBRANCH  16  17
ENDBRANCH  15  16
ENDBRANCH  12  15
ENDBRANCH   6   9
ENDBRANCH   3   5
ENDBRANCH   1   3
BRANCH   1  21
ATOM     21  N   UNL d   1       9.132   7.928  -9.965  0.00  0.00    -0.264 N 
ATOM     22  C   UNL d   1       8.678   9.180 -10.356  0.00  0.00     0.270 C 
ATOM     23  O   UNL d   1       7.775   9.786  -9.774  0.00  0.00    -0.266 OA
ATOM     24  H   UNL d   1       9.930   7.478 -10.418  0.00  0.00     0.190 HD
BRANCH  22  25
ATOM     25  C   UNL d   1       9.328   9.776 -11.579  0.00  0.00     0.033 A 
ATOM     26  C   UNL d   1       9.649  11.142 -11.698  0.00  0.00     0.019 A 
ATOM     27  C   UNL d   1      10.191  11.675 -12.905  0.00  0.00     0.030 A 
ATOM     28  C   UNL d   1      10.464  10.836 -13.995  0.00  0.00     0.034 A 
ATOM     29  C   UNL d   1      10.081   9.497 -13.864  0.00  0.00     0.030 A 
ATOM     30  C   UNL d   1       9.534   8.968 -12.689  0.00  0.00     0.019 A 
BRANCH  28  31
ATOM     31  N   UNL d   1      11.133  11.322 -15.169  0.00  0.00    -0.327 N 
ATOM     32  C   UNL d   1      11.524  10.510 -16.234  0.00  0.00     0.225 C 
ATOM     33  O   UNL d   1      11.277   9.306 -16.315  0.00  0.00    -0.273 OA
ATOM     34  H   UNL d   1      11.408  12.299 -15.178  0.00  0.00     0.169 HD
BRANCH  32  35
ATOM     35  C   UNL d   1      12.304  11.155 -17.384  0.00  0.00     0.070 C 
ATOM     36  C   UNL d   1      13.646  11.714 -16.932  0.00  0.00     0.019 C 
ATOM     37  C   UNL d   1      12.559  10.072 -18.455  0.00  0.00     0.019 C 
ENDBRANCH  32  35
ENDBRANCH  28  31
ENDBRANCH  22  25
ENDBRANCH   1  21
TORSDOF 12
