REMARK  10 active torsions:
REMARK  status: ('A' for Active; 'I' for Inactive)
REMARK    1  A    between atoms: C_2  and  C_3 
REMARK    2  A    between atoms: C_3  and  C_4 
REMARK    3  A    between atoms: C_4  and  C_5 
REMARK    4  A    between atoms: C_5  and  N_6 
REMARK    5  A    between atoms: N_6  and  C_7 
REMARK    6  A    between atoms: C_7  and  N_9 
REMARK    7  A    between atoms: N_9  and  N_10 
REMARK       I    between atoms: N_10  and  C_11 
REMARK    8  A    between atoms: C_11  and  C_13 
REMARK    9  A    between atoms: C_15  and  N_16 
REMARK   10  A    between atoms: C_21  and  O_22 
ROOT
ATOM      1  N   UNL d   1       9.443  -5.015  -1.715  0.00  0.00    -0.264 N 
ATOM      2  C   UNL d   1      10.793  -4.902  -2.060  0.00  0.00     0.273 C 
ATOM      3  O   UNL d   1      11.450  -3.891  -1.847  0.00  0.00    -0.266 OA
ATOM      4  H   UNL d   1       8.919  -5.867  -1.898  0.00  0.00     0.190 HD
ENDROOT
BRANCH   1   5
ATOM      5  N   UNL d   1       8.619  -3.828  -1.569  0.00  0.00    -0.274 N 
ATOM      6  H   UNL d   1       9.117  -2.975  -1.321  0.00  0.00     0.189 HD
BRANCH   5   7
ATOM      7  C   UNL d   1       7.226  -3.900  -1.702  0.00  0.00     0.186 C 
ATOM      8  S   UNL d   1       6.425  -5.265  -2.280  0.00  0.00    -0.040 SA
BRANCH   7   9
ATOM      9  N   UNL d   1       6.547  -2.761  -1.280  0.00  0.00    -0.366 N 
ATOM     10  H   UNL d   1       7.074  -1.992  -0.886  0.00  0.00     0.161 HD
BRANCH   9  11
ATOM     11  C   UNL d   1       5.075  -2.667  -1.223  0.00  0.00     0.122 C 
BRANCH  11  12
ATOM     12  C   UNL d   1       4.537  -1.375  -0.612  0.00  0.00     0.020 C 
BRANCH  12  13
ATOM     13  C   UNL d   1       3.001  -1.369  -0.605  0.00  0.00     0.001 C 
BRANCH  13  14
ATOM     14  C   UNL d   1       2.453  -0.078   0.002  0.00  0.00    -0.004 C 
ATOM     15  C   UNL d   1       0.932  -0.072   0.005  0.00  0.00     0.005 C 
ENDBRANCH  13  14
ENDBRANCH  12  13
ENDBRANCH  11  12
ENDBRANCH   9  11
ENDBRANCH   7   9
ENDBRANCH   5   7
ENDBRANCH   1   5
BRANCH   2  16
ATOM     16  C   UNL d   1      11.472  -6.095  -2.707  0.00  0.00     0.069 A 
ATOM     17  C   UNL d   1      12.639  -6.559  -2.047  0.00  0.00     0.056 A 
ATOM     18  C   UNL d   1      13.467  -7.541  -2.633  0.00  0.00     0.104 A 
ATOM     19  C   UNL d   1      13.099  -8.160  -3.825  0.00  0.00     0.039 A 
ATOM     20  C   UNL d   1      11.965  -7.699  -4.489  0.00  0.00     0.040 A 
ATOM     21  C   UNL d   1      11.171  -6.645  -3.976  0.00  0.00     0.084 A 
BRANCH  18  22
ATOM     22  N   UNL d   1      14.789  -7.849  -2.057  0.00  0.00    -0.116 N 
ATOM     23  O   UNL d   1      15.122  -7.244  -1.029  0.00  0.00    -0.532 OA
ATOM     24  O   UNL d   1      15.502  -8.670  -2.652  0.00  0.00    -0.532 OA
ENDBRANCH  18  22
BRANCH  21  25
ATOM     25  O   UNL d   1      10.234  -6.281  -4.910  0.00  0.00    -0.355 OA
ATOM     26  C   UNL d   1       9.311  -5.272  -4.571  0.00  0.00     0.210 C 
ENDBRANCH  21  25
ENDBRANCH   2  16
TORSDOF 10
