@<TRIPOS>MOLECULE
*****
 45 45 0 0 0
SMALL
GASTEIGER

@<TRIPOS>ATOM
      1 C           6.2979    1.2022   -6.9716 C.3     1  UNL1       -0.0653
      2 C           5.1288    0.9310   -6.0344 C.3     1  UNL1       -0.0559
      3 C           5.6576    0.1257   -4.8762 C.3     1  UNL1       -0.0516
      4 C           4.6147   -0.3095   -3.8618 C.3     1  UNL1       -0.0324
      5 CA          5.1629   -1.1787   -2.6956 C.3     1  UNL1        0.0465
      6 C           4.6308   -0.5958   -1.3604 C.3     1  UNL1        0.0626
      7 O           4.4847   -1.5893   -0.3523 O.3     1  UNL1       -0.3932
      8 N           6.6345   -1.2953   -2.6984 N.am    1  UNL1       -0.3063
      9 C           7.3257   -1.9045   -3.7431 C.2     1  UNL1        0.2444
     10 O           6.8107   -2.6183   -4.6046 O.2     1  UNL1       -0.2702
     11 C           8.7857   -1.6907   -3.8066 C.ar    1  UNL1        0.0385
     12 C           9.5002   -1.3702   -4.9563 C.ar    1  UNL1       -0.0495
     13 C          10.8939   -1.5307   -4.9505 C.ar    1  UNL1       -0.0593
     14 C          11.5650   -1.9661   -3.7878 C.ar    1  UNL1       -0.0404
     15 C          10.8371   -2.2613   -2.6301 C.ar    1  UNL1        0.0341
     16 N          11.4531   -2.7825   -1.4590 N.am    1  UNL1       -0.2855
     17 C          10.7369   -3.1506   -0.3226 C.2     1  UNL1        0.2169
     18 O           9.5176   -3.0501   -0.1799 O.2     1  UNL1       -0.2755
     19 C          11.5278   -3.7062    0.8330 C.3     1  UNL1        0.0215
     20 C          10.5397   -4.0195    1.9645 C.3     1  UNL1       -0.0570
     21 C           9.4587   -2.0922   -2.6729 C.ar    1  UNL1       -0.0284
     22 H           5.9671    1.7758   -7.8370 H       1  UNL1        0.0230
     23 H           6.7407    0.2628   -7.3280 H       1  UNL1        0.0230
     24 H           7.0887    1.7572   -6.4543 H       1  UNL1        0.0230
     25 H           4.3642    0.3463   -6.5574 H       1  UNL1        0.0263
     26 H           4.6802    1.8611   -5.6794 H       1  UNL1        0.0263
     27 H           6.4606    0.6767   -4.3700 H       1  UNL1        0.0266
     28 H           6.0784   -0.7487   -5.3608 H       1  UNL1        0.0266
     29 H           3.8251   -0.8823   -4.3655 H       1  UNL1        0.0284
     30 H           4.1238    0.5920   -3.4765 H       1  UNL1        0.0284
     31 HA          4.7831   -2.2026   -2.8100 H       1  UNL1        0.0521
     32 H1          5.2956    0.1857   -0.9757 H       1  UNL1        0.0575
     33 H2          3.6391   -0.1480   -1.4923 H       1  UNL1        0.0575
     34 H           5.3339   -2.0543   -0.2664 H       1  UNL1        0.2095
     35 H           7.1601   -0.7724   -2.0063 H       1  UNL1        0.1494
     36 H           8.9844   -1.0359   -5.8530 H       1  UNL1        0.0625
     37 H          11.4533   -1.3652   -5.8712 H       1  UNL1        0.0618
     38 H          12.6450   -2.0861   -3.8279 H       1  UNL1        0.0636
     39 H          12.4545   -2.9328   -1.4857 H       1  UNL1        0.1548
     40 H          12.2523   -2.9591    1.1667 H       1  UNL1        0.0356
     41 H          12.0426   -4.6191    0.5228 H       1  UNL1        0.0356
     42 H           9.9875   -3.1164    2.2601 H       1  UNL1        0.0234
     43 H          11.0415   -4.4165    2.8464 H       1  UNL1        0.0234
     44 H           9.7892   -4.7517    1.6352 H       1  UNL1        0.0234
     45 H           8.8113   -2.3536   -1.8555 H       1  UNL1        0.0644
@<TRIPOS>BOND
     1     1     2    1
     2     2     3    1
     3     3     4    1
     4     6     7    1
     5     5     8    1
     6     8     9   am
     7     9    10    2
     8     9    11    1
     9    11    12   ar
    10    12    13   ar
    11    13    14   ar
    12    14    15   ar
    13    15    16    1
    14    16    17   am
    15    17    18    2
    16    17    19    1
    17    19    20    1
    18    15    21   ar
    19    11    21   ar
    20     5     6    1
    21     5     4    1
    22     1    22    1
    23     1    23    1
    24     1    24    1
    25     2    25    1
    26     2    26    1
    27     3    27    1
    28     3    28    1
    29     4    29    1
    30     4    30    1
    31     5    31    1
    32     6    32    1
    33     6    33    1
    34     7    34    1
    35     8    35    1
    36    12    36    1
    37    13    37    1
    38    14    38    1
    39    16    39    1
    40    19    40    1
    41    19    41    1
    42    20    42    1
    43    20    43    1
    44    20    44    1
    45    21    45    1
