@<TRIPOS>MOLECULE
*****
 55 55 0 0 0
SMALL
GASTEIGER

@<TRIPOS>ATOM
      1 C           1.2392    0.5649   -0.0452 C.3     1  UNL1        0.0790
      2 O           2.5840    0.0961   -0.0875 O.3     1  UNL1       -0.4913
      3 C           3.0994   -0.8004    0.8290 C.ar    1  UNL1        0.1654
      4 C           4.3525   -0.3864    1.3560 C.ar    1  UNL1       -0.0129
      5 C           5.2387   -1.2830    1.9999 C.ar    1  UNL1       -0.0398
      6 C           6.6830   -0.8861    2.2901 C.3     1  UNL1       -0.0191
      7 C           7.5902   -2.0101    2.8464 C.3     1  UNL1        0.0294
      8 C           9.0348   -1.5594    3.0718 C.2     1  UNL1        0.2294
      9 O           9.4336   -0.4372    2.8217 O.2     1  UNL1       -0.2743
     10 N           9.8601   -2.5514    3.5923 N.am    1  UNL1       -0.2351
     11 N          11.2292   -2.2622    3.8735 N.am    1  UNL1       -0.2459
     12 C          12.0609   -3.2380    4.4128 C.2     1  UNL1        0.1468
     13 S          11.5090   -4.7950    4.7449 S.2     1  UNL1       -0.0174
     14 N          13.3647   -2.8098    4.6531 N.am    1  UNL1       -0.3254
     15 C          14.4076   -3.6949    5.1866 C.3     1  UNL1        0.0109
     16 C          15.7995   -3.0746    5.3484 C.3     1  UNL1       -0.0351
     17 C          16.8249   -4.0881    5.9189 C.3     1  UNL1       -0.0453
     18 C          16.9875   -5.3139    5.0150 C.3     1  UNL1       -0.0626
     19 C          18.1910   -3.4237    6.1074 C.3     1  UNL1       -0.0626
     20 C           4.7917   -2.5827    2.2346 C.ar    1  UNL1       -0.0129
     21 C           3.5636   -3.0239    1.7444 C.ar    1  UNL1        0.1654
     22 O           3.3669   -4.3769    1.9696 O.3     1  UNL1       -0.4913
     23 C           2.2019   -4.9890    1.4203 C.3     1  UNL1        0.0790
     24 C           2.7093   -2.1399    1.0363 C.ar    1  UNL1        0.2035
     25 O           1.6118   -2.7958    0.5918 O.3     1  UNL1       -0.4885
     26 C           0.5669   -2.1575   -0.0457 C.3     1  UNL1        0.0791
     27 H           1.1643    1.4933   -0.6157 H       1  UNL1        0.0660
     28 H           0.8578    0.6978    0.9695 H       1  UNL1        0.0660
     29 H           0.5538   -0.0370   -0.6382 H       1  UNL1        0.0660
     30 H           4.6669    0.6468    1.2013 H       1  UNL1        0.0658
     31 H           6.6914   -0.0298    2.9739 H       1  UNL1        0.0318
     32 H           7.1183   -0.5469    1.3393 H       1  UNL1        0.0318
     33 H           7.6028   -2.8561    2.1453 H       1  UNL1        0.0362
     34 H           7.1869   -2.3668    3.8021 H       1  UNL1        0.0362
     35 H           9.5468   -3.4957    3.8076 H       1  UNL1        0.1728
     36 H          11.5285   -1.3142    3.6579 H       1  UNL1        0.1718
     37 H          13.6361   -1.8705    4.3926 H       1  UNL1        0.1478
     38 H          14.4650   -4.5440    4.5002 H       1  UNL1        0.0462
     39 H          14.0681   -4.0642    6.1613 H       1  UNL1        0.0462
     40 H          15.7389   -2.2081    6.0190 H       1  UNL1        0.0283
     41 H          16.1558   -2.7001    4.3813 H       1  UNL1        0.0283
     42 H          16.4770   -4.4300    6.9032 H       1  UNL1        0.0296
     43 H          17.3221   -5.0162    4.0156 H       1  UNL1        0.0232
     44 H          16.0512   -5.8687    4.9105 H       1  UNL1        0.0232
     45 H          17.7218   -6.0137    5.4272 H       1  UNL1        0.0232
     46 H          18.5900   -3.0697    5.1508 H       1  UNL1        0.0232
     47 H          18.9142   -4.1305    6.5307 H       1  UNL1        0.0232
     48 H          18.1230   -2.5688    6.7872 H       1  UNL1        0.0232
     49 H           5.4076   -3.3097    2.7560 H       1  UNL1        0.0658
     50 H           2.2009   -6.0560    1.6434 H       1  UNL1        0.0660
     51 H           2.1888   -4.9078    0.3245 H       1  UNL1        0.0660
     52 H           1.3008   -4.5739    1.8889 H       1  UNL1        0.0660
     53 H          -0.2397   -2.8504   -0.2818 H       1  UNL1        0.0660
     54 H           0.9578   -1.8042   -1.0003 H       1  UNL1        0.0660
     55 H           0.1433   -1.4421    0.6615 H       1  UNL1        0.0660
@<TRIPOS>BOND
     1     1     2    1
     2     2     3    1
     3     3     4   ar
     4     4     5   ar
     5     5     6    1
     6     6     7    1
     7     7     8    1
     8     8     9    2
     9     8    10   am
    10    10    11    1
    11    11    12    1
    12    12    13    2
    13    12    14    1
    14    14    15    1
    15    15    16    1
    16    16    17    1
    17    17    18    1
    18    17    19    1
    19     5    20   ar
    20    20    21   ar
    21    21    22    1
    22    22    23    1
    23    21    24   ar
    24     3    24   ar
    25    24    25    1
    26    25    26    1
    27     1    27    1
    28     1    28    1
    29     1    29    1
    30     4    30    1
    31     6    31    1
    32     6    32    1
    33     7    33    1
    34     7    34    1
    35    10    35    1
    36    11    36    1
    37    14    37    1
    38    15    38    1
    39    15    39    1
    40    16    40    1
    41    16    41    1
    42    17    42    1
    43    18    43    1
    44    18    44    1
    45    18    45    1
    46    19    46    1
    47    19    47    1
    48    19    48    1
    49    20    49    1
    50    23    50    1
    51    23    51    1
    52    23    52    1
    53    26    53    1
    54    26    54    1
    55    26    55    1
