REMARK  8 active torsions:
REMARK  status: ('A' for Active; 'I' for Inactive)
REMARK       I    between atoms: C_2  and  N_3 
REMARK    1  A    between atoms: C_2  and  C_17 
REMARK    2  A    between atoms: N_3  and  N_4 
REMARK    3  A    between atoms: C_5  and  C_6 
REMARK    4  A    between atoms: C_7  and  O_8 
REMARK    5  A    between atoms: C_20  and  C_21 
REMARK    6  A    between atoms: C_21  and  N_22 
REMARK    7  A    between atoms: N_25  and  C_26 
REMARK    8  A    between atoms: C_26  and  C_27 
ROOT
ATOM      1  C   UNL d   1       3.607  -0.530   0.904  0.00  0.00     0.033 C 
ATOM      2  C   UNL d   1       4.704  -0.279   1.666  0.00  0.00     0.017 C 
ATOM      3  C   UNL d   1       5.549  -1.383   2.087  0.00  0.00     0.010 C 
ATOM      4  C   UNL d   1       5.380  -2.702   1.617  0.00  0.00    -0.030 C 
ATOM      5  C   UNL d   1       4.729  -2.651   0.428  0.00  0.00     0.010 C 
ATOM      6  C   UNL d   1       3.614  -1.821   0.447  0.00  0.00     0.017 C 
ENDROOT
BRANCH   1   7
ATOM      7  C   UNL d   1       2.683   0.499   0.260  0.00  0.00     0.271 C 
ATOM      8  O   UNL d   1       1.517   0.599   0.478  0.00  0.00    -0.266 OA
ATOM      9  N   UNL d   1       3.324   1.300  -0.680  0.00  0.00    -0.243 N 
ATOM     10  H   UNL d   1       4.320   1.272  -0.816  0.00  0.00     0.192 HD
BRANCH   9  11
ATOM     11  N   UNL d   1       2.530   2.211  -1.303  0.00  0.00    -0.183 NA
ATOM     12  C   UNL d   1       3.113   3.112  -2.023  0.00  0.00     0.153 C 
BRANCH  12  13
ATOM     13  C   UNL d   1       2.303   4.166  -2.669  0.00  0.00     0.027 A 
ATOM     14  C   UNL d   1       1.202   4.706  -1.986  0.00  0.00     0.078 A 
ATOM     15  C   UNL d   1       0.495   5.772  -2.528  0.00  0.00     0.038 A 
ATOM     16  C   UNL d   1       0.883   6.309  -3.755  0.00  0.00     0.015 A 
ATOM     17  C   UNL d   1       1.964   5.768  -4.468  0.00  0.00    -0.025 A 
ATOM     18  C   UNL d   1       2.336   6.310  -5.708  0.00  0.00     0.012 A 
ATOM     19  C   UNL d   1       2.684   4.668  -3.935  0.00  0.00    -0.011 A 
ATOM     20  C   UNL d   1       3.389   5.764  -6.439  0.00  0.00     0.001 A 
ATOM     21  C   UNL d   1       4.078   4.664  -5.947  0.00  0.00     0.001 A 
ATOM     22  C   UNL d   1       3.731   4.122  -4.711  0.00  0.00     0.013 A 
BRANCH  14  23
ATOM     23  O   UNL d   1       0.788   4.265  -0.757  0.00  0.00    -0.360 OA
ATOM     24  H   UNL d   1       1.238   3.413  -0.562  0.00  0.00     0.217 HD
ENDBRANCH  14  23
ENDBRANCH  12  13
ENDBRANCH   9  11
ENDBRANCH   1   7
BRANCH   4  25
ATOM     25  C   UNL d   1       5.862  -4.073   2.252  0.00  0.00     0.311 C 
BRANCH  25  26
ATOM     26  N   UNL d   1       4.930  -5.351   2.488  0.00  0.00     0.095 NA
ATOM     27  C   UNL d   1       4.608  -6.441   1.492  0.00  0.00     0.300 C 
ATOM     28  C   UNL d   1       3.903  -6.071   0.141  0.00  0.00     0.265 C 
ATOM     29  N   UNL d   1       2.608  -5.192   0.389  0.00  0.00    -0.064 N 
ATOM     30  C   UNL d   1       2.792  -4.471   1.733  0.00  0.00     0.265 C 
ATOM     31  H   UNL d   1       1.772  -5.764   0.524  0.00  0.00     0.280 HD
ATOM     32  C   UNL d   1       3.595  -4.936   2.966  0.00  0.00     0.300 C 
BRANCH  29  33
ATOM     33  C   UNL d   1       2.222  -4.323  -1.011  0.00  0.00     0.273 C 
BRANCH  33  34
ATOM     34  C   UNL d   1       0.992  -3.400  -1.013  0.00  0.00    -0.033 C 
ATOM     35  C   UNL d   1      -0.075  -3.434  -1.893  0.00  0.00     0.009 C 
ATOM     36  C   UNL d   1      -1.027  -2.359  -1.921  0.00  0.00     0.001 C 
ATOM     37  C   UNL d   1      -1.079  -1.379  -0.927  0.00  0.00     0.000 C 
ATOM     38  C   UNL d   1      -0.215  -1.509   0.101  0.00  0.00     0.001 C 
ATOM     39  C   UNL d   1       0.881  -2.290  -0.194  0.00  0.00     0.009 C 
ENDBRANCH  33  34
ENDBRANCH  29  33
ENDBRANCH  25  26
ENDBRANCH   4  25
TORSDOF 8
