@<TRIPOS>MOLECULE
*****
 34 35 0 0 0
SMALL
GASTEIGER

@<TRIPOS>ATOM
      1 C           2.4913    1.1870   -0.0010 C.3     1  UNL1       -0.0396
      2 C           1.2498    0.3422    0.0027 C.ar    1  UNL1       -0.0470
      3 C           1.3045   -1.0528    0.0167 C.ar    1  UNL1       -0.0579
      4 C           0.1261   -1.8183   -0.0015 C.ar    1  UNL1       -0.0458
      5 C          -1.1396   -1.2098   -0.0235 C.ar    1  UNL1        0.0795
      6 C          -2.4124   -2.0204   -0.0321 C.2     1  UNL1        0.2637
      7 O          -3.4953   -1.4344   -0.0600 O.2     1  UNL1       -0.2685
      8 N          -2.3103   -3.4129   -0.0015 N.am    1  UNL1       -0.2299
      9 N          -3.4985   -4.2074    0.0441 N.am    1  UNL1       -0.2276
     10 C          -3.4590   -5.6036   -0.0981 C.2     1  UNL1        0.2954
     11 O          -4.2705   -6.1393   -0.8594 O.2     1  UNL1       -0.2653
     12 C          -2.5247   -6.3506    0.7417 C.ar    1  UNL1        0.1909
     13 C          -1.6317   -5.9440    1.7191 C.ar    1  UNL1       -0.0110
     14 C          -1.0490   -7.1013    2.2756 C.ar    1  UNL1       -0.0202
     15 C          -1.6204   -8.1751    1.6365 C.ar    1  UNL1        0.1029
     16 C          -1.4237   -9.6319    1.8253 C.3     1  UNL1       -0.0063
     17 O          -2.5109   -7.7364    0.6937 O.2     1  UNL1       -0.4553
     18 C          -1.1800    0.1987   -0.0154 C.ar    1  UNL1        0.1292
     19 O          -2.3367    0.9351   -0.0036 O.3     1  UNL1       -0.5060
     20 C          -0.0034    0.9601   -0.0096 C.ar    1  UNL1       -0.0165
     21 H           3.4018    0.5788    0.0030 H       1  UNL1        0.0278
     22 H           2.5121    1.8310    0.8846 H       1  UNL1        0.0278
     23 H           2.5133    1.8167   -0.8971 H       1  UNL1        0.0278
     24 H           2.2659   -1.5634    0.0404 H       1  UNL1        0.0620
     25 H           0.2477   -2.8942    0.0049 H       1  UNL1        0.0626
     26 H          -1.4360   -3.9072   -0.1211 H       1  UNL1        0.1731
     27 H          -4.2999   -3.7626   -0.4039 H       1  UNL1        0.1732
     28 H          -1.4466   -4.9269    2.0256 H       1  UNL1        0.0657
     29 H          -0.3186   -7.1623    3.0693 H       1  UNL1        0.0652
     30 H          -0.6747   -9.8002    2.6105 H       1  UNL1        0.0308
     31 H          -1.0519  -10.1090    0.9148 H       1  UNL1        0.0308
     32 H          -2.3431  -10.1307    2.1457 H       1  UNL1        0.0308
     33 H          -3.1001    0.3191   -0.0010 H       1  UNL1        0.2922
     34 H          -0.0685    2.0473   -0.0129 H       1  UNL1        0.0657
@<TRIPOS>BOND
     1     1     2    1
     2     2     3   ar
     3     3     4   ar
     4     4     5   ar
     5     5     6    1
     6     6     7    2
     7     6     8   am
     8     8     9    1
     9     9    10   am
    10    10    11    2
    11    10    12    1
    12    12    13   ar
    13    13    14   ar
    14    14    15   ar
    15    15    16    1
    16    15    17   ar
    17    12    17   ar
    18     5    18   ar
    19    18    19    1
    20    18    20   ar
    21     2    20   ar
    22     1    21    1
    23     1    22    1
    24     1    23    1
    25     3    24    1
    26     4    25    1
    27     8    26    1
    28     9    27    1
    29    13    28    1
    30    14    29    1
    31    16    30    1
    32    16    31    1
    33    16    32    1
    34    19    33    1
    35    20    34    1
