@<TRIPOS>MOLECULE
*****
 62 64 0 0 0
SMALL
GASTEIGER

@<TRIPOS>ATOM
      1 C           1.0262   -0.0339    0.0101 C.3     1  UNL1       -0.0652
      2 C           2.5282    0.0013    0.1434 C.3     1  UNL1       -0.0528
      3 C           2.9251    1.0365    1.2336 C.3     1  UNL1       -0.0189
      4 C           4.4344    1.0002    1.4025 C.3     1  UNL1        0.0898
      5 O           5.0747    2.1207    2.0011 O.3     1  UNL1       -0.4883
      6 C           6.4590    2.2283    1.9226 C.ar    1  UNL1        0.1619
      7 C           7.0422    2.5094    3.1782 C.ar    1  UNL1       -0.0156
      8 C           8.4082    2.8666    3.3171 C.ar    1  UNL1       -0.0459
      9 C           9.2735    2.8735    2.2129 C.ar    1  UNL1        0.0418
     10 C          10.7635    3.1254    2.3803 C.2     1  UNL1        0.2603
     11 O          11.2158    3.3477    3.5031 O.2     1  UNL1       -0.2687
     12 N          11.5925    3.0646    1.2477 N.am    1  UNL1       -0.2301
     13 N          13.0061    3.2804    1.3677 N.am    1  UNL1       -0.2301
     14 C          13.8333    3.2893    0.2207 C.2     1  UNL1        0.2602
     15 O          13.3981    3.1093   -0.9124 O.2     1  UNL1       -0.2687
     16 C          15.3352    3.4000    0.4491 C.ar    1  UNL1        0.0403
     17 C          16.3272    4.1047   -0.4420 C.ar    1  UNL1       -0.0460
     18 C          17.7004    3.9977   -0.1384 C.ar    1  UNL1       -0.0416
     19 C          17.8588    3.2315    1.0267 C.ar    1  UNL1       -0.0178
     20 C          17.0597    2.5020    1.8339 C.ar    1  UNL1        0.1091
     21 S          17.8279    1.4534    3.0412 S.O2    1  UNL1        0.0562
     22 N          18.8688    0.4928    2.1017 N.3     1  UNL1       -0.2035
     23 O          18.6560    2.3095    3.9057 O.2     1  UNL1       -0.1532
     24 O          16.8326    0.5986    3.5563 O.2     1  UNL1       -0.1532
     25 C          15.7424    2.5990    1.5546 C.ar    1  UNL1       -0.0229
     26 C          19.2103    3.3140    1.3042 C.3     1  UNL1       -0.0256
     27 C          20.4486    3.3976    1.9507 C.3     1  UNL1       -0.0487
     28 C          20.8622    4.0504    0.5339 C.3     1  UNL1       -0.0488
     29 C          19.3788    4.4280   -0.6685 C.3     1  UNL1       -0.0273
     30 C           8.6984    2.6103    0.9735 C.ar    1  UNL1       -0.0041
     31 C           7.3202    2.3072    0.7991 C.ar    1  UNL1        0.1622
     32 O           7.1152    2.2085   -0.5615 O.3     1  UNL1       -0.4914
     33 C           5.8729    1.7310   -0.9639 C.3     1  UNL1        0.0790
     34 H           0.7090   -0.8078   -0.6937 H       1  UNL1        0.0230
     35 H           0.6593    0.9337   -0.3465 H       1  UNL1        0.0230
     36 H           0.5855   -0.2398    0.9877 H       1  UNL1        0.0230
     37 H           2.9603    0.2527   -0.8409 H       1  UNL1        0.0264
     38 H           2.9201   -0.9922    0.3942 H       1  UNL1        0.0264
     39 H           2.4163    0.8607    2.1794 H       1  UNL1        0.0298
     40 H           2.6275    2.0310    0.8659 H       1  UNL1        0.0298
     41 H           4.5448    1.1079    0.3709 H       1  UNL1        0.0696
     42 H           4.8822    0.0357    1.6570 H       1  UNL1        0.0696
     43 H           6.4233    2.4634    4.0767 H       1  UNL1        0.0655
     44 H           8.7776    3.1513    4.3027 H       1  UNL1        0.0626
     45 H          11.2715    2.8528    0.3089 H       1  UNL1        0.1731
     46 H          13.3396    3.4224    2.3212 H       1  UNL1        0.1731
     47 H          15.9279    4.6915   -1.2707 H       1  UNL1        0.0628
     48 H          19.7248    0.8572    1.6888 H       1  UNL1        0.1442
     49 H          18.3814   -0.1891    1.5277 H       1  UNL1        0.1442
     50 H          15.0672    2.0287    2.1748 H       1  UNL1        0.0645
     51 H          19.0990    4.4457    1.3634 H       1  UNL1        0.0314
     52 H          19.4654    2.6241    0.4545 H       1  UNL1        0.0314
     53 H          20.7376    2.3799    2.2148 H       1  UNL1        0.0268
     54 H          20.2608    4.0129    2.8415 H       1  UNL1        0.0268
     55 H          21.5240    3.2681    0.1144 H       1  UNL1        0.0268
     56 H          21.4439    4.9181    0.8580 H       1  UNL1        0.0268
     57 H          19.5547    3.7774   -1.5425 H       1  UNL1        0.0313
     58 H          19.4290    5.4826   -0.9593 H       1  UNL1        0.0313
     59 H           9.2946    2.6619    0.0679 H       1  UNL1        0.0663
     60 H           5.6963    1.6334   -2.0329 H       1  UNL1        0.0660
     61 H           5.1273    2.4632   -0.6208 H       1  UNL1        0.0660
     62 H           5.8352    0.6889   -0.6137 H       1  UNL1        0.0660
@<TRIPOS>BOND
     1     1     2    1
     2     2     3    1
     3     3     4    1
     4     4     5    1
     5     5     6    1
     6     6     7   ar
     7     7     8   ar
     8     8     9   ar
     9     9    10    1
    10    10    11    2
    11    10    12   am
    12    12    13    1
    13    13    14   am
    14    14    15    2
    15    14    16    1
    16    16    17   ar
    17    17    18   ar
    18    18    19   ar
    19    19    20   ar
    20    20    21    1
    21    21    22    1
    22    21    23    2
    23    21    24    2
    24    20    25   ar
    25    16    25   ar
    26    19    26    1
    27    26    27    1
    28    27    28    1
    29    28    29    1
    30    18    29    1
    31     9    30   ar
    32    30    31   ar
    33     6    31   ar
    34    31    32    1
    35    32    33    1
    36     1    34    1
    37     1    35    1
    38     1    36    1
    39     2    37    1
    40     2    38    1
    41     3    39    1
    42     3    40    1
    43     4    41    1
    44     4    42    1
    45     7    43    1
    46     8    44    1
    47    12    45    1
    48    13    46    1
    49    17    47    1
    50    22    48    1
    51    22    49    1
    52    25    50    1
    53    26    51    1
    54    26    52    1
    55    27    53    1
    56    27    54    1
    57    28    55    1
    58    28    56    1
    59    29    57    1
    60    29    58    1
    61    30    59    1
    62    33    60    1
    63    33    61    1
    64    33    62    1
