@<TRIPOS>MOLECULE
*****
 69 72 0 0 0
SMALL
GASTEIGER

@<TRIPOS>ATOM
      1 O          12.8957    0.6391    2.5253 O.2     1  UNL1       -0.2738
      2 C          12.4362    0.6056    3.6698 C.2     1  UNL1        0.2343
      3 C          11.3231    1.5758    4.1391 C.3     1  UNL1        0.0861
      4 N          10.9996    2.6124    3.1398 N.pl3   1  UNL1       -0.3354
      5 C           9.8367    3.3577    3.3811 C.ar    1  UNL1        0.0283
      6 C           9.7183    4.0699    4.5755 C.ar    1  UNL1       -0.0394
      7 C           8.5819    4.8239    4.8590 C.ar    1  UNL1       -0.0409
      8 C           7.5087    4.8708    3.9657 C.ar    1  UNL1        0.0532
      9 CL          6.1716    5.8298    4.5089 Cl      1  UNL1       -0.0828
     10 C           7.5741    4.1687    2.7511 C.ar    1  UNL1        0.0567
     11 C           6.4893    4.1743    1.6981 C.2     1  UNL1        0.2458
     12 O           6.6384    3.5189    0.6680 O.2     1  UNL1       -0.2701
     13 N           5.3513    4.9272    1.9233 N.am    1  UNL1       -0.3085
     14 C           4.2043    4.9750    1.0219 C.3     1  UNL1        0.0234
     15 C           3.4130    3.6617    1.0757 C.3     1  UNL1       -0.0345
     16 C           2.1824    3.7056    0.1738 C.3     1  UNL1       -0.0514
     17 C           1.2778    4.8847    0.5146 C.3     1  UNL1       -0.0529
     18 C           2.0516    6.1980    0.4580 C.3     1  UNL1       -0.0514
     19 C           3.2818    6.1605    1.3659 C.3     1  UNL1       -0.0345
     20 C           8.7531    3.4076    2.4811 C.ar    1  UNL1       -0.0273
     21 N          12.9760   -0.2833    4.5857 N.am    1  UNL1       -0.2842
     22 C          12.5016   -0.5913    5.8721 C.ar    1  UNL1        0.0341
     23 C          13.3873   -0.8632    6.9120 C.ar    1  UNL1       -0.0404
     24 C          12.8857   -1.2005    8.1757 C.ar    1  UNL1       -0.0593
     25 C          11.5035   -1.2230    8.4090 C.ar    1  UNL1       -0.0495
     26 C          10.6087   -0.9882    7.3605 C.ar    1  UNL1        0.0384
     27 C           9.1326   -1.0890    7.5829 C.2     1  UNL1        0.2442
     28 O           8.7050   -1.3908    8.6982 O.2     1  UNL1       -0.2702
     29 N           8.2956   -0.8469    6.5079 N.am    1  UNL1       -0.3089
     30 C           6.8495   -0.9714    6.6239 C.3     1  UNL1        0.0382
     31 C           6.1219   -0.7236    5.2851 C.3     1  UNL1        0.0742
     32 C           4.9224   -1.6398    5.0984 C.3     1  UNL1       -0.0231
     33 C           3.7825   -0.8311    5.6576 C.3     1  UNL1       -0.0271
     34 C           4.1779    0.5866    5.3104 C.3     1  UNL1        0.0482
     35 O           5.6129    0.6260    5.2510 O.3     1  UNL1       -0.3750
     36 C          11.1324   -0.7161    6.0977 C.ar    1  UNL1       -0.0284
     37 H          11.6634    2.0436    5.0700 H       1  UNL1        0.0557
     38 H          10.4113    1.0053    4.3139 H       1  UNL1        0.0557
     39 H          11.1725    2.3096    2.1827 H       1  UNL1        0.1466
     40 H          10.5381    4.0804    5.2888 H       1  UNL1        0.0636
     41 H           8.5446    5.3884    5.7878 H       1  UNL1        0.0633
     42 H           5.2471    5.3913    2.8167 H       1  UNL1        0.1493
     43 H           4.5978    5.1168    0.0078 H       1  UNL1        0.0498
     44 H           3.1009    3.4596    2.1090 H       1  UNL1        0.0283
     45 H           4.0493    2.8233    0.7733 H       1  UNL1        0.0283
     46 H           1.6224    2.7691    0.2683 H       1  UNL1        0.0266
     47 H           2.5027    3.7858   -0.8723 H       1  UNL1        0.0266
     48 H           0.8553    4.7479    1.5180 H       1  UNL1        0.0265
     49 H           0.4351    4.9186   -0.1853 H       1  UNL1        0.0265
     50 H           1.3945    7.0260    0.7475 H       1  UNL1        0.0266
     51 H           2.3689    6.3872   -0.5749 H       1  UNL1        0.0266
     52 H           2.9522    6.0915    2.4119 H       1  UNL1        0.0283
     53 H           3.8292    7.1065    1.2772 H       1  UNL1        0.0283
     54 H           8.8143    2.8434    1.5501 H       1  UNL1        0.0644
     55 H          13.8215   -0.7483    4.2692 H       1  UNL1        0.1549
     56 H          14.4630   -0.7758    6.7748 H       1  UNL1        0.0636
     57 H          13.5703   -1.4493    8.9849 H       1  UNL1        0.0618
     58 H          11.1295   -1.4514    9.4060 H       1  UNL1        0.0625
     59 H           8.6457   -0.5753    5.6038 H       1  UNL1        0.1491
     60 H           6.5243   -0.2631    7.3930 H       1  UNL1        0.0487
     61 H           6.6668   -1.9882    6.9856 H       1  UNL1        0.0487
     62 H           6.8125   -0.8383    4.4412 H       1  UNL1        0.0611
     63 H           5.0356   -2.6153    5.5796 H       1  UNL1        0.0291
     64 H           4.7596   -1.8187    4.0287 H       1  UNL1        0.0291
     65 H           3.7406   -0.9514    6.7459 H       1  UNL1        0.0288
     66 H           2.8088   -1.1149    5.2485 H       1  UNL1        0.0288
     67 H           3.8211    1.3059    6.0538 H       1  UNL1        0.0560
     68 H           3.7870    0.8820    4.3305 H       1  UNL1        0.0560
     69 H          10.4755   -0.6853    5.2457 H       1  UNL1        0.0644
@<TRIPOS>BOND
     1     1     2    2
     2     2     3    1
     3     3     4    1
     4     4     5    1
     5     5     6   ar
     6     6     7   ar
     7     7     8   ar
     8     8     9    1
     9     8    10   ar
    10    10    11    1
    11    11    12    2
    12    11    13   am
    13    13    14    1
    14    14    15    1
    15    15    16    1
    16    16    17    1
    17    17    18    1
    18    18    19    1
    19    14    19    1
    20    10    20   ar
    21     5    20   ar
    22     2    21   am
    23    21    22    1
    24    22    23   ar
    25    23    24   ar
    26    24    25   ar
    27    25    26   ar
    28    26    27    1
    29    27    28    2
    30    27    29   am
    31    29    30    1
    32    31    32    1
    33    32    33    1
    34    33    34    1
    35    34    35    1
    36    31    35    1
    37    26    36   ar
    38    22    36   ar
    39    31    30    1
    40     3    37    1
    41     3    38    1
    42     4    39    1
    43     6    40    1
    44     7    41    1
    45    13    42    1
    46    14    43    1
    47    15    44    1
    48    15    45    1
    49    16    46    1
    50    16    47    1
    51    17    48    1
    52    17    49    1
    53    18    50    1
    54    18    51    1
    55    19    52    1
    56    19    53    1
    57    20    54    1
    58    21    55    1
    59    23    56    1
    60    24    57    1
    61    25    58    1
    62    29    59    1
    63    30    60    1
    64    30    61    1
    65    31    62    1
    66    32    63    1
    67    32    64    1
    68    33    65    1
    69    33    66    1
    70    34    67    1
    71    34    68    1
    72    36    69    1
