@<TRIPOS>MOLECULE
*****
 71 73 0 0 0
SMALL
GASTEIGER

@<TRIPOS>ATOM
      1 O           1.0931   -0.0412   -0.1992 O.2     1  UNL1       -0.2754
      2 C           2.2856    0.2590   -0.2896 C.2     1  UNL1        0.2185
      3 C           2.9044    1.4468    0.4815 C.3     1  UNL1        0.0248
      4 C           1.9290    2.2815    1.3000 C.3     1  UNL1       -0.0347
      5 C           2.6661    3.3947    2.0899 C.3     1  UNL1        0.0454
      6 C           1.6671    4.1932    2.8776 C.2     1  UNL1        0.3071
      7 O           0.4417    4.0082    2.8411 O.2     1  UNL1       -0.2509
      8 O           2.2690    5.1513    3.6254 O.3     1  UNL1       -0.4646
      9 C           1.3294    6.0104    4.2849 C.3     1  UNL1        0.0928
     10 C           2.0892    7.0807    5.0525 C.3     1  UNL1       -0.0146
     11 C           1.1177    8.0317    5.7371 C.3     1  UNL1       -0.0246
     12 C           1.7962    9.1365    6.5027 C.ar    1  UNL1       -0.0472
     13 C           2.6253    8.8633    7.5991 C.ar    1  UNL1       -0.0586
     14 C           3.0689    9.9027    8.4171 C.ar    1  UNL1       -0.0615
     15 C           2.7645   11.2240    8.0946 C.ar    1  UNL1       -0.0617
     16 C           1.9928   11.5072    6.9704 C.ar    1  UNL1       -0.0615
     17 C           1.5070   10.4679    6.1810 C.ar    1  UNL1       -0.0586
     18 N           3.1457   -0.6063   -0.9911 N.am    1  UNL1       -0.2676
     19 C           4.5105   -0.5147   -1.3842 C.2     1  UNL1        0.1409
     20 S           5.4250    0.9044   -1.3819 S.2     1  UNL1       -0.0182
     21 N           5.0905   -1.7925   -1.5632 N.am    1  UNL1       -0.2937
     22 C           6.4968   -2.0189   -1.4023 C.ar    1  UNL1        0.0748
     23 C           7.2352   -2.3441   -2.5561 C.ar    1  UNL1       -0.0369
     24 C           8.6264   -2.4991   -2.4989 C.ar    1  UNL1       -0.0598
     25 C           9.3004   -2.2798   -1.3021 C.ar    1  UNL1       -0.0582
     26 C           8.5764   -1.9806   -0.1452 C.ar    1  UNL1       -0.0181
     27 C           7.1734   -1.8805   -0.1620 C.ar    1  UNL1        0.1416
     28 O           6.6469   -1.6904    1.1057 O.3     1  UNL1       -0.4901
     29 C           5.2353   -1.6877    1.2237 C.3     1  UNL1        0.0900
     30 C           4.6834   -1.1964    2.5385 C.3     1  UNL1       -0.0146
     31 C           3.1490   -1.1454    2.4764 C.3     1  UNL1       -0.0246
     32 C           2.6110   -0.6451    3.7663 C.ar    1  UNL1       -0.0472
     33 C           2.6301    0.7046    4.1185 C.ar    1  UNL1       -0.0586
     34 C           2.3416    1.1545    5.3917 C.ar    1  UNL1       -0.0615
     35 C           1.9849    0.2059    6.3284 C.ar    1  UNL1       -0.0617
     36 C           1.9167   -1.1481    5.9720 C.ar    1  UNL1       -0.0615
     37 C           2.2095   -1.5731    4.6886 C.ar    1  UNL1       -0.0586
     38 H           3.3691    2.1212   -0.2239 H       1  UNL1        0.0359
     39 H           3.6904    1.0927    1.1597 H       1  UNL1        0.0359
     40 H           1.3107    1.6538    1.9595 H       1  UNL1        0.0275
     41 H           1.2147    2.7419    0.6128 H       1  UNL1        0.0275
     42 H           3.2169    4.0337    1.3971 H       1  UNL1        0.0378
     43 H           3.4323    3.0342    2.7884 H       1  UNL1        0.0378
     44 H           0.7080    5.4257    4.9756 H       1  UNL1        0.0697
     45 H           0.6862    6.4818    3.5310 H       1  UNL1        0.0697
     46 H           2.7434    7.6337    4.3676 H       1  UNL1        0.0301
     47 H           2.7508    6.6008    5.7827 H       1  UNL1        0.0301
     48 H           0.4661    7.4876    6.4336 H       1  UNL1        0.0314
     49 H           0.4492    8.4674    4.9826 H       1  UNL1        0.0314
     50 H           2.9095    7.8421    7.8428 H       1  UNL1        0.0620
     51 H           3.6312    9.6804    9.3202 H       1  UNL1        0.0618
     52 H           3.1270   12.0337    8.7212 H       1  UNL1        0.0618
     53 H           1.7407   12.5342    6.7225 H       1  UNL1        0.0618
     54 H           0.8820   10.7002    5.3220 H       1  UNL1        0.0620
     55 H           2.6556   -1.4631   -1.2264 H       1  UNL1        0.1565
     56 H           4.5819   -2.5085   -2.0697 H       1  UNL1        0.1539
     57 H           6.7545   -2.3968   -3.5301 H       1  UNL1        0.0637
     58 H           9.1903   -2.7647   -3.3914 H       1  UNL1        0.0618
     59 H          10.3867   -2.3414   -1.2661 H       1  UNL1        0.0619
     60 H           9.1147   -1.8317    0.7887 H       1  UNL1        0.0655
     61 H           4.7907   -2.6347    0.8970 H       1  UNL1        0.0696
     62 H           4.8950   -0.8715    0.6369 H       1  UNL1        0.0696
     63 H           5.0875   -0.1875    2.7157 H       1  UNL1        0.0301
     64 H           5.0236   -1.8239    3.3604 H       1  UNL1        0.0301
     65 H           2.7147   -2.0995    2.1590 H       1  UNL1        0.0314
     66 H           2.7539   -0.4738    1.7451 H       1  UNL1        0.0314
     67 H           2.9048    1.4186    3.3831 H       1  UNL1        0.0620
     68 H           2.4266    2.2114    5.6369 H       1  UNL1        0.0618
     69 H           1.7596    0.5172    7.3402 H       1  UNL1        0.0618
     70 H           1.6637   -1.8995    6.7046 H       1  UNL1        0.0618
     71 H           2.1808   -2.6151    4.3918 H       1  UNL1        0.0620
@<TRIPOS>BOND
     1     1     2    2
     2     2     3    1
     3     3     4    1
     4     4     5    1
     5     5     6    1
     6     6     7    2
     7     6     8    1
     8     8     9    1
     9     9    10    1
    10    10    11    1
    11    11    12    1
    12    12    13   ar
    13    13    14   ar
    14    14    15   ar
    15    15    16   ar
    16    16    17   ar
    17    12    17   ar
    18     2    18   am
    19    18    19    1
    20    19    20    2
    21    19    21    1
    22    21    22    1
    23    22    23   ar
    24    23    24   ar
    25    24    25   ar
    26    25    26   ar
    27    26    27   ar
    28    22    27   ar
    29    27    28    1
    30    28    29    1
    31    29    30    1
    32    30    31    1
    33    31    32    1
    34    32    33   ar
    35    33    34   ar
    36    34    35   ar
    37    35    36   ar
    38    36    37   ar
    39    32    37   ar
    40     3    38    1
    41     3    39    1
    42     4    40    1
    43     4    41    1
    44     5    42    1
    45     5    43    1
    46     9    44    1
    47     9    45    1
    48    10    46    1
    49    10    47    1
    50    11    48    1
    51    11    49    1
    52    13    50    1
    53    14    51    1
    54    15    52    1
    55    16    53    1
    56    17    54    1
    57    18    55    1
    58    21    56    1
    59    23    57    1
    60    24    58    1
    61    25    59    1
    62    26    60    1
    63    29    61    1
    64    29    62    1
    65    30    63    1
    66    30    64    1
    67    31    65    1
    68    31    66    1
    69    33    67    1
    70    34    68    1
    71    35    69    1
    72    36    70    1
    73    37    71    1
