@<TRIPOS>MOLECULE
*****
 48 51 0 0 0
SMALL
GASTEIGER

@<TRIPOS>ATOM
      1 C           1.0627    0.0246    0.0700 C.3     1  UNL1       -0.0652
      2 C           2.5854    0.0289    0.0816 C.3     1  UNL1       -0.0545
      3 C           3.0980    1.4295    0.3863 C.3     1  UNL1       -0.0374
      4 C           4.6234    1.5352    0.3967 C.3     1  UNL1        0.0159
      5 N           5.0937    2.8858    0.6944 N.am    1  UNL1       -0.2851
      6 C           6.3065    3.1800    1.3398 C.2     1  UNL1        0.2655
      7 O           7.1442    2.4053    1.7731 O.2     1  UNL1       -0.2683
      8 C           6.3383    4.5975    1.3731 C.ar    1  UNL1        0.1262
      9 N           7.1036    5.6079    1.8195 N.ar    1  UNL1       -0.2716
     10 N           6.5681    6.8226    1.5107 N.ar    1  UNL1       -0.1727
     11 C           5.3930    6.5390    0.8981 C.ar    1  UNL1        0.1020
     12 C           4.4748    7.5672    0.4250 C.ar    1  UNL1        0.0438
     13 C           4.9075    8.4884   -0.5391 C.ar    1  UNL1       -0.0490
     14 C           4.0254    9.4395   -1.0590 C.ar    1  UNL1       -0.0609
     15 C           2.7093    9.4938   -0.6015 C.ar    1  UNL1       -0.0583
     16 C           2.2666    8.5894    0.3675 C.ar    1  UNL1       -0.0195
     17 C           3.1438    7.6208    0.8655 C.ar    1  UNL1        0.1261
     18 O           2.7014    6.7041    1.7844 O.3     1  UNL1       -0.5061
     19 C           5.2457    5.1526    0.7810 C.ar    1  UNL1        0.0349
     20 C           4.3308    4.1079    0.3036 C.3     1  UNL1        0.0811
     21 C           4.1285    4.2772   -1.1797 C.ar    1  UNL1       -0.0190
     22 C           5.1688    4.2126   -2.1190 C.ar    1  UNL1       -0.0563
     23 C           4.8979    4.3447   -3.4841 C.ar    1  UNL1       -0.0580
     24 C           3.5852    4.5183   -3.9320 C.ar    1  UNL1       -0.0202
     25 C           2.5507    4.5610   -3.0064 C.ar    1  UNL1        0.1172
     26 O           1.2434    4.6911   -3.3703 O.3     1  UNL1       -0.5068
     27 C           2.8158    4.4580   -1.6485 C.ar    1  UNL1       -0.0149
     28 H           0.6832   -0.9781   -0.1436 H       1  UNL1        0.0230
     29 H           0.6746    0.7067   -0.6949 H       1  UNL1        0.0230
     30 H           0.6659    0.3438    1.0395 H       1  UNL1        0.0230
     31 H           2.9543   -0.3016   -0.8963 H       1  UNL1        0.0263
     32 H           2.9506   -0.6779    0.8332 H       1  UNL1        0.0263
     33 H           2.7043    1.7705    1.3513 H       1  UNL1        0.0280
     34 H           2.6835    2.0952   -0.3743 H       1  UNL1        0.0280
     35 H           5.0284    1.2473   -0.5810 H       1  UNL1        0.0465
     36 H           5.0483    0.8448    1.1347 H       1  UNL1        0.0465
     37 H           7.9825    5.5721    2.3261 H       1  UNL1        0.1891
     38 H           5.9318    8.4511   -0.9030 H       1  UNL1        0.0625
     39 H           4.3664   10.1340   -1.8229 H       1  UNL1        0.0618
     40 H           2.0293   10.2405   -1.0058 H       1  UNL1        0.0619
     41 H           1.2383    8.6522    0.7105 H       1  UNL1        0.0654
     42 H           1.7830    6.9040    2.0244 H       1  UNL1        0.2922
     43 H           3.3936    4.1192    0.8681 H       1  UNL1        0.0602
     44 H           6.1959    4.0588   -1.7925 H       1  UNL1        0.0621
     45 H           5.7178    4.3067   -4.1974 H       1  UNL1        0.0619
     46 H           3.3956    4.6155   -4.9957 H       1  UNL1        0.0654
     47 H           1.1856    4.7444   -4.3374 H       1  UNL1        0.2921
     48 H           1.9825    4.4915   -0.9502 H       1  UNL1        0.0657
@<TRIPOS>BOND
     1     1     2    1
     2     2     3    1
     3     3     4    1
     4     4     5    1
     5     5     6   am
     6     6     7    2
     7     6     8    1
     8     8     9   ar
     9     9    10   ar
    10    10    11   ar
    11    11    12    1
    12    12    13   ar
    13    13    14   ar
    14    14    15   ar
    15    15    16   ar
    16    16    17   ar
    17    12    17   ar
    18    17    18    1
    19    11    19   ar
    20     8    19   ar
    21    19    20    1
    22     5    20    1
    23    21    22   ar
    24    22    23   ar
    25    23    24   ar
    26    24    25   ar
    27    25    26    1
    28    25    27   ar
    29    21    27   ar
    30    20    21    1
    31     1    28    1
    32     1    29    1
    33     1    30    1
    34     2    31    1
    35     2    32    1
    36     3    33    1
    37     3    34    1
    38     4    35    1
    39     4    36    1
    40     9    37    1
    41    13    38    1
    42    14    39    1
    43    15    40    1
    44    16    41    1
    45    18    42    1
    46    20    43    1
    47    22    44    1
    48    23    45    1
    49    24    46    1
    50    26    47    1
    51    27    48    1
