@<TRIPOS>MOLECULE
*****
 66 67 0 0 0
SMALL
GASTEIGER

@<TRIPOS>ATOM
      1 C           1.0401   -0.0479    0.0350 C.3     1  UNL1       -0.0653
      2 C           2.5507   -0.0296    0.0684 C.3     1  UNL1       -0.0559
      3 C           3.1277   -0.6820   -1.1626 C.3     1  UNL1       -0.0533
      4 C           4.6566   -0.6245   -1.0738 C.3     1  UNL1       -0.0516
      5 C           5.1516   -1.2663   -2.3266 C.3     1  UNL1       -0.0371
      6 C           6.6202   -1.4155   -2.5576 C.3     1  UNL1        0.0158
      7 N           7.0287   -2.1354   -3.7878 N.am    1  UNL1       -0.2857
      8 C           6.1397   -2.6174   -4.7846 C.2     1  UNL1        0.2162
      9 O           6.4909   -3.1294   -5.8560 O.2     1  UNL1       -0.2756
     10 C           4.6352   -2.5486   -4.6459 C.3     1  UNL1        0.0214
     11 C           3.8692   -3.1593   -5.7984 C.3     1  UNL1       -0.0570
     12 C           8.5484   -2.2339   -3.9977 C.3     1  UNL1        0.1341
     13 C           9.3823   -2.8831   -2.8143 C.2     1  UNL1        0.2386
     14 O          10.2414   -3.7446   -3.0318 O.2     1  UNL1       -0.2734
     15 N           9.1607   -2.5070   -1.5085 N.am    1  UNL1       -0.3106
     16 C           9.6901   -3.2993   -0.3914 C.3     1  UNL1        0.0232
     17 C           9.1503   -2.7472    0.9369 C.3     1  UNL1       -0.0345
     18 C           9.5348   -3.6160    2.1340 C.3     1  UNL1       -0.0514
     19 C           9.1158   -5.0689    1.9382 C.3     1  UNL1       -0.0529
     20 C           9.7089   -5.6274    0.6580 C.3     1  UNL1       -0.0514
     21 C           9.3001   -4.7869   -0.5386 C.3     1  UNL1       -0.0345
     22 C           8.9295   -2.9348   -5.3176 C.ar    1  UNL1        0.0648
     23 C           8.8864   -4.3485   -5.4609 C.ar    1  UNL1        0.1292
     24 O           8.6237   -5.2269   -4.4373 O.3     1  UNL1       -0.5062
     25 C           8.9376   -4.9642   -6.7083 C.ar    1  UNL1        0.0219
     26 C           8.9733   -4.1800   -7.8494 C.ar    1  UNL1        0.1238
     27 O           8.9327   -4.7501   -9.0892 O.3     1  UNL1       -0.5065
     28 C           9.0114   -2.7929   -7.7623 C.ar    1  UNL1        0.0219
     29 C           9.0194   -2.1761   -6.5042 C.ar    1  UNL1        0.1292
     30 O           8.9886   -0.8061   -6.4340 O.3     1  UNL1       -0.5062
     31 H           0.6507    0.4320    0.9354 H       1  UNL1        0.0230
     32 H           0.6638   -1.0749   -0.0053 H       1  UNL1        0.0230
     33 H           0.6635    0.4916   -0.8399 H       1  UNL1        0.0230
     34 H           2.9124   -0.5604    0.9552 H       1  UNL1        0.0263
     35 H           2.9111    1.0028    0.1243 H       1  UNL1        0.0263
     36 H           2.7727   -0.1739   -2.0719 H       1  UNL1        0.0265
     37 H           2.7805   -1.7234   -1.2463 H       1  UNL1        0.0265
     38 H           5.0145   -1.1771   -0.2004 H       1  UNL1        0.0266
     39 H           5.0090    0.4082   -1.0226 H       1  UNL1        0.0266
     40 H           4.7486   -0.6539   -3.1288 H       1  UNL1        0.0280
     41 H           4.7471   -2.2755   -2.2661 H       1  UNL1        0.0280
     42 H           6.9648   -1.9948   -1.7045 H       1  UNL1        0.0465
     43 H           7.1083   -0.4329   -2.5479 H       1  UNL1        0.0465
     44 H           4.3208   -1.5076   -4.6520 H       1  UNL1        0.0356
     45 H           4.3216   -3.1319   -3.7837 H       1  UNL1        0.0356
     46 H           4.1102   -2.6438   -6.7315 H       1  UNL1        0.0234
     47 H           2.7989   -3.0532   -5.6008 H       1  UNL1        0.0234
     48 H           4.1112   -4.2204   -5.8939 H       1  UNL1        0.0234
     49 H           8.9177   -1.1969   -4.0244 H       1  UNL1        0.0650
     50 H           8.8313   -1.5718   -1.3121 H       1  UNL1        0.1490
     51 H          10.7836   -3.2036   -0.4097 H       1  UNL1        0.0498
     52 H           8.0554   -2.6793    0.8840 H       1  UNL1        0.0283
     53 H           9.5154   -1.7251    1.0945 H       1  UNL1        0.0283
     54 H           9.0650   -3.2213    3.0412 H       1  UNL1        0.0266
     55 H          10.6201   -3.5684    2.2843 H       1  UNL1        0.0266
     56 H           8.0217   -5.1377    1.8950 H       1  UNL1        0.0265
     57 H           9.4455   -5.6743    2.7888 H       1  UNL1        0.0265
     58 H           9.3765   -6.6601    0.5052 H       1  UNL1        0.0266
     59 H          10.8033   -5.6485    0.7300 H       1  UNL1        0.0266
     60 H           8.2167   -4.8640   -0.6998 H       1  UNL1        0.0283
     61 H           9.7726   -5.2432   -1.4119 H       1  UNL1        0.0283
     62 H           9.0065   -4.8714   -3.6183 H       1  UNL1        0.2922
     63 H           8.8664   -6.0451   -6.7541 H       1  UNL1        0.0691
     64 H           8.8712   -5.7129   -8.9669 H       1  UNL1        0.2921
     65 H           8.9650   -2.2156   -8.6792 H       1  UNL1        0.0691
     66 H           8.9569   -0.4657   -7.3454 H       1  UNL1        0.2922
@<TRIPOS>BOND
     1     1     2    1
     2     2     3    1
     3     3     4    1
     4     4     5    1
     5     5     6    1
     6     6     7    1
     7     7     8   am
     8     8     9    2
     9     8    10    1
    10    10    11    1
    11     7    12    1
    12    12    13    1
    13    13    14    2
    14    13    15   am
    15    15    16    1
    16    16    17    1
    17    17    18    1
    18    18    19    1
    19    19    20    1
    20    20    21    1
    21    16    21    1
    22    12    22    1
    23    22    23   ar
    24    23    24    1
    25    23    25   ar
    26    25    26   ar
    27    26    27    1
    28    26    28   ar
    29    28    29   ar
    30    22    29   ar
    31    29    30    1
    32     1    31    1
    33     1    32    1
    34     1    33    1
    35     2    34    1
    36     2    35    1
    37     3    36    1
    38     3    37    1
    39     4    38    1
    40     4    39    1
    41     5    40    1
    42     5    41    1
    43     6    42    1
    44     6    43    1
    45    10    44    1
    46    10    45    1
    47    11    46    1
    48    11    47    1
    49    11    48    1
    50    12    49    1
    51    15    50    1
    52    16    51    1
    53    17    52    1
    54    17    53    1
    55    18    54    1
    56    18    55    1
    57    19    56    1
    58    19    57    1
    59    20    58    1
    60    20    59    1
    61    21    60    1
    62    21    61    1
    63    24    62    1
    64    25    63    1
    65    27    64    1
    66    28    65    1
    67    30    66    1
