REMARK  10 active torsions:
REMARK  status: ('A' for Active; 'I' for Inactive)
REMARK    1  A    between atoms: O_2  and  C_3 
REMARK    2  A    between atoms: C_7  and  C_6 
REMARK    3  A    between atoms: C_7  and  N_27 
REMARK    4  A    between atoms: C_7  and  C_8 
REMARK    5  A    between atoms: C_8  and  N_9 
REMARK       I    between atoms: N_9  and  C_10 
REMARK    6  A    between atoms: C_10  and  C_12 
REMARK    7  A    between atoms: C_15  and  S_16 
REMARK    8  A    between atoms: S_16  and  C_17 
REMARK    9  A    between atoms: C_17  and  C_18 
REMARK   10  A    between atoms: C_31  and  O_32 
ROOT
ATOM      1  N   UNL d   1       5.257  -1.222   1.988  0.00  0.00    -0.354 N 
ATOM      2  C   UNL d   1       4.395  -0.292   1.417  0.00  0.00     0.256 C 
ATOM      3  O   UNL d   1       3.303  -0.598   0.981  0.00  0.00    -0.268 OA
ATOM      4  H   UNL d   1       6.174  -0.930   2.313  0.00  0.00     0.162 HD
ENDROOT
BRANCH   1   5
ATOM      5  C   UNL d   1       4.874  -2.627   1.989  0.00  0.00     0.161 C 
BRANCH   5   6
ATOM      6  C   UNL d   1       5.784  -3.618   2.779  0.00  0.00     0.237 C 
BRANCH   6   7
ATOM      7  N   UNL d   1       5.209  -5.046   2.712  0.00  0.00    -0.069 N 
ATOM      8  C   UNL d   1       5.008  -5.558   1.314  0.00  0.00     0.270 C 
ATOM      9  C   UNL d   1       6.035  -6.027   3.513  0.00  0.00     0.270 C 
ATOM     10  H   UNL d   1       4.277  -5.015   3.141  0.00  0.00     0.279 HD
ENDBRANCH   6   7
BRANCH   6  11
ATOM     11  C   UNL d   1       5.897  -3.126   4.210  0.00  0.00    -0.023 A 
ATOM     12  C   UNL d   1       4.851  -3.278   5.124  0.00  0.00     0.012 A 
ATOM     13  C   UNL d   1       4.926  -2.700   6.393  0.00  0.00     0.040 A 
ATOM     14  C   UNL d   1       6.070  -2.007   6.829  0.00  0.00     0.101 A 
ATOM     15  C   UNL d   1       7.138  -1.871   5.917  0.00  0.00     0.102 A 
ATOM     16  C   UNL d   1       7.036  -2.435   4.628  0.00  0.00     0.049 A 
BRANCH  14  17
ATOM     17  O   UNL d   1       6.070  -1.833   8.193  0.00  0.00    -0.353 OA
ATOM     18  C   UNL d   1       6.226  -0.557   8.809  0.00  0.00     0.210 C 
ENDBRANCH  14  17
BRANCH  15  19
ATOM     19  O   UNL d   1       8.375  -1.290   6.035  0.00  0.00    -0.353 OA
ATOM     20  C   UNL d   1       8.581  -0.569   7.217  0.00  0.00     0.210 C 
ENDBRANCH  15  19
ENDBRANCH   6  11
ENDBRANCH   5   6
ENDBRANCH   1   5
BRANCH   2  21
ATOM     21  C   UNL d   1       4.833   1.113   1.377  0.00  0.00     0.090 A 
ATOM     22  C   UNL d   1       3.954   2.133   1.682  0.00  0.00     0.139 A 
ATOM     23  N   UNL d   1       4.286   3.452   1.665  0.00  0.00    -0.234 NA
ATOM     24  C   UNL d   1       5.540   3.745   1.295  0.00  0.00     0.189 A 
ATOM     25  N   UNL d   1       6.456   2.825   0.953  0.00  0.00    -0.210 NA
ATOM     26  C   UNL d   1       6.078   1.538   0.998  0.00  0.00     0.146 A 
ATOM     27 CL   UNL d   1       7.344   0.471   0.517  0.00  0.00    -0.061 Cl
BRANCH  24  28
ATOM     28  S   UNL d   1       6.154   5.395   1.294  0.00  0.00    -0.086 SA
BRANCH  28  29
ATOM     29  C   UNL d   1       4.711   6.447   1.707  0.00  0.00     0.121 C 
BRANCH  29  30
ATOM     30  C   UNL d   1       5.065   7.929   1.617  0.00  0.00    -0.049 A 
ATOM     31  C   UNL d   1       4.485   8.866   2.486  0.00  0.00     0.008 A 
ATOM     32  C   UNL d   1       4.720  10.237   2.314  0.00  0.00     0.001 A 
ATOM     33  C   UNL d   1       5.598  10.686   1.328  0.00  0.00     0.000 A 
ATOM     34  C   UNL d   1       6.197   9.771   0.472  0.00  0.00     0.001 A 
ATOM     35  C   UNL d   1       5.909   8.414   0.599  0.00  0.00     0.008 A 
ENDBRANCH  29  30
ENDBRANCH  28  29
ENDBRANCH  24  28
ENDBRANCH   2  21
TORSDOF 10
