REMARK  7 active torsions:
REMARK  status: ('A' for Active; 'I' for Inactive)
REMARK       I    between atoms: N_1  and  C_2 
REMARK    1  A    between atoms: C_2  and  C_4 
REMARK    2  A    between atoms: C_4  and  C_5 
REMARK    3  A    between atoms: C_8  and  O_9 
REMARK    4  A    between atoms: O_9  and  C_10 
REMARK    5  A    between atoms: C_10  and  C_11 
REMARK       I    between atoms: C_11  and  N_13 
REMARK    6  A    between atoms: N_13  and  N_14 
REMARK    7  A    between atoms: N_14  and  C_15 
ROOT
ATOM      1  C   UNL d   1       9.681   1.378   0.245  0.00  0.00     0.280 C 
ENDROOT
BRANCH   1   2
ATOM      2  O   UNL d   1       8.809   0.263   0.455  0.00  0.00    -0.342 OA
BRANCH   2   3
ATOM      3  C   UNL d   1       7.464   0.499   0.570  0.00  0.00     0.069 A 
ATOM      4  C   UNL d   1       6.655  -0.639   0.654  0.00  0.00     0.037 A 
ATOM      5  C   UNL d   1       5.261  -0.526   0.698  0.00  0.00     0.010 A 
ATOM      6  C   UNL d   1       4.643   0.732   0.715  0.00  0.00    -0.049 A 
ATOM      7  C   UNL d   1       5.459   1.869   0.678  0.00  0.00     0.010 A 
ATOM      8  C   UNL d   1       6.856   1.752   0.600  0.00  0.00     0.037 A 
BRANCH   6   9
ATOM      9  C   UNL d   1       3.138   0.863   0.836  0.00  0.00     0.141 C 
BRANCH   9  10
ATOM     10  C   UNL d   1       2.344   0.011  -0.143  0.00  0.00     0.219 C 
ATOM     11  N   UNL d   1       0.988   0.068  -0.022  0.00  0.00    -0.370 N 
ATOM     12  H   UNL d   1       0.459  -0.500  -0.673  0.00  0.00     0.159 HD
ATOM     13  H   UNL d   1       0.491   0.658   0.630  0.00  0.00     0.159 HD
ATOM     14  O   UNL d   1       2.826  -0.715  -1.013  0.00  0.00    -0.273 OA
ENDBRANCH   9  10
ENDBRANCH   6   9
ENDBRANCH   2   3
ENDBRANCH   1   2
BRANCH   1  15
ATOM     15  C   UNL d   1      11.144   0.915   0.044  0.00  0.00     0.260 C 
ATOM     16  O   UNL d   1      11.472  -0.269  -0.050  0.00  0.00    -0.269 OA
ATOM     17  N   UNL d   1      12.096   1.948  -0.010  0.00  0.00    -0.268 N 
ATOM     18  H   UNL d   1      11.806   2.901  -0.203  0.00  0.00     0.190 HD
BRANCH  17  19
ATOM     19  N   UNL d   1      13.338   1.590  -0.590  0.00  0.00    -0.298 N 
ATOM     20  H   UNL d   1      13.610   0.619  -0.384  0.00  0.00     0.187 HD
BRANCH  19  21
ATOM     21  C   UNL d   1      14.410   2.510  -0.532  0.00  0.00     0.049 A 
ATOM     22  C   UNL d   1      15.477   2.321  -1.432  0.00  0.00     0.031 A 
ATOM     23  C   UNL d   1      16.578   3.186  -1.467  0.00  0.00     0.004 A 
ATOM     24  C   UNL d   1      16.615   4.291  -0.625  0.00  0.00     0.024 A 
ATOM     25  C   UNL d   1      15.574   4.487   0.281  0.00  0.00     0.036 A 
ATOM     26 CL   UNL d   1      15.653   5.822   1.369  0.00  0.00    -0.084 Cl
ATOM     27  C   UNL d   1      14.482   3.606   0.334  0.00  0.00     0.054 A 
ENDBRANCH  19  21
ENDBRANCH  17  19
ENDBRANCH   1  15
TORSDOF 7
