@<TRIPOS>MOLECULE
*****
 39 40 0 0 0
SMALL
GASTEIGER

@<TRIPOS>ATOM
      1 C           2.4427   -0.4165   -0.0062 C.3     1  UNL1       -0.0380
      2 C           0.9833   -0.1423   -0.0090 C.ar    1  UNL1       -0.0292
      3 C           0.1859   -1.2909    0.0093 C.ar    1  UNL1       -0.0571
      4 C          -1.1907   -1.2026    0.0036 C.ar    1  UNL1       -0.0614
      5 C          -1.7883    0.0513   -0.0027 C.ar    1  UNL1       -0.0600
      6 C          -0.9984    1.2186   -0.0142 C.ar    1  UNL1       -0.0402
      7 C           0.4136    1.1421   -0.0417 C.ar    1  UNL1        0.0364
      8 N           1.1634    2.3620   -0.1185 N.am    1  UNL1       -0.2837
      9 C           2.5470    2.5502   -0.1557 C.2     1  UNL1        0.2373
     10 O           3.4502    1.7050   -0.1797 O.2     1  UNL1       -0.2734
     11 C           3.0855    3.9701   -0.1422 C.3     1  UNL1        0.0972
     12 C           2.3626    4.6512    0.9827 C.3     1  UNL1       -0.0381
     13 N           4.5717    3.7905    0.0803 N.am    1  UNL1       -0.3003
     14 C           5.6001    4.6891    0.1161 C.2     1  UNL1        0.2461
     15 O           6.6049    4.5250   -0.5896 O.2     1  UNL1       -0.2701
     16 C           5.5344    5.8276    1.0605 C.ar    1  UNL1        0.0550
     17 C           6.3367    6.9524    0.8821 C.ar    1  UNL1       -0.0482
     18 C           6.1690    8.0558    1.7286 C.ar    1  UNL1       -0.0610
     19 C           5.0980    8.1044    2.6234 C.ar    1  UNL1       -0.0603
     20 C           4.3215    6.9786    2.8089 C.ar    1  UNL1       -0.0427
     21 C           4.7419    5.8005    2.2059 C.ar    1  UNL1        0.0531
     22 CL          4.5730    4.3675    3.1753 Cl      1  UNL1       -0.0828
     23 H           2.7332   -1.4631    0.0127 H       1  UNL1        0.0278
     24 H           2.8537    0.0168    0.9142 H       1  UNL1        0.0278
     25 H           2.8300   -0.0461   -0.9613 H       1  UNL1        0.0278
     26 H           0.6724   -2.2633    0.0157 H       1  UNL1        0.0621
     27 H          -1.7738   -2.1176    0.0029 H       1  UNL1        0.0618
     28 H          -2.8746    0.1078   -0.0095 H       1  UNL1        0.0618
     29 H          -1.5280    2.1707   -0.0137 H       1  UNL1        0.0636
     30 H           0.5846    3.1948   -0.1057 H       1  UNL1        0.1549
     31 H           2.9441    4.4353   -1.1213 H       1  UNL1        0.0592
     32 H           2.4873    4.0445    1.8848 H       1  UNL1        0.0252
     33 H           1.2845    4.7461    0.8726 H       1  UNL1        0.0252
     34 H           2.7259    5.6631    1.0710 H       1  UNL1        0.0252
     35 H           4.8850    2.8658   -0.2332 H       1  UNL1        0.1498
     36 H           7.1375    6.9433    0.1447 H       1  UNL1        0.0625
     37 H           6.8752    8.8795    1.6964 H       1  UNL1        0.0618
     38 H           4.9317    8.9664    3.2621 H       1  UNL1        0.0618
     39 H           3.4919    6.9736    3.5099 H       1  UNL1        0.0632
@<TRIPOS>BOND
     1     1     2    1
     2     2     3   ar
     3     3     4   ar
     4     4     5   ar
     5     5     6   ar
     6     6     7   ar
     7     2     7   ar
     8     7     8    1
     9     8     9   am
    10     9    10    2
    11     9    11    1
    12    11    12    1
    13    11    13    1
    14    13    14   am
    15    14    15    2
    16    14    16    1
    17    16    17   ar
    18    17    18   ar
    19    18    19   ar
    20    19    20   ar
    21    20    21   ar
    22    16    21   ar
    23    21    22    1
    24     1    23    1
    25     1    24    1
    26     1    25    1
    27     3    26    1
    28     4    27    1
    29     5    28    1
    30     6    29    1
    31     8    30    1
    32    11    31    1
    33    12    32    1
    34    12    33    1
    35    12    34    1
    36    13    35    1
    37    17    36    1
    38    18    37    1
    39    19    38    1
    40    20    39    1
