REMARK  17 active torsions:
REMARK  status: ('A' for Active; 'I' for Inactive)
REMARK    1  A    between atoms: C_2  and  C_3 
REMARK    2  A    between atoms: C_3  and  C_4 
REMARK    3  A    between atoms: C_4  and  C_5 
REMARK    4  A    between atoms: C_5  and  C_6 
REMARK    5  A    between atoms: C_6  and  C_7 
REMARK    6  A    between atoms: C_7  and  C_8 
REMARK    7  A    between atoms: C_8  and  C_9 
REMARK    8  A    between atoms: C_9  and  C_11 
REMARK    9  A    between atoms: C_11  and  C_12 
REMARK   10  A    between atoms: C_12  and  C_13 
REMARK       I    between atoms: C_13  and  N_15 
REMARK   11  A    between atoms: N_15  and  C_16 
REMARK   12  A    between atoms: C_16  and  C_17 
REMARK   13  A    between atoms: C_17  and  C_18 
REMARK   14  A    between atoms: N_24  and  N_25 
REMARK   15  A    between atoms: N_25  and  C_26 
REMARK   16  A    between atoms: C_29  and  N_30 
REMARK   17  A    between atoms: C_34  and  N_35 
ROOT
ATOM      1  C   UNL d   1       7.009  -0.862   4.179  0.00  0.00     0.039 C 
ATOM      2  N   UNL d   1       8.268  -0.768   4.546  0.00  0.00    -0.183 NA
ENDROOT
BRANCH   1   3
ATOM      3  C   UNL d   1       6.691  -0.657   2.675  0.00  0.00     0.057 C 
BRANCH   3   4
ATOM      4  C   UNL d   1       5.256  -0.600   2.391  0.00  0.00     0.006 C 
BRANCH   4   5
ATOM      5  C   UNL d   1       4.574  -0.307   1.108  0.00  0.00     0.000 C 
BRANCH   5   6
ATOM      6  C   UNL d   1       3.040  -0.352   1.321  0.00  0.00    -0.000 C 
BRANCH   6   7
ATOM      7  C   UNL d   1       2.408  -0.048  -0.019  0.00  0.00    -0.005 C 
ATOM      8  C   UNL d   1       0.899  -0.059   0.030  0.00  0.00     0.005 C 
ENDBRANCH   6   7
ENDBRANCH   5   6
ENDBRANCH   4   5
ENDBRANCH   3   4
ENDBRANCH   1   3
BRANCH   1   9
ATOM      9  C   UNL d   1       5.946  -1.227   5.320  0.00  0.00     0.134 C 
BRANCH   9  10
ATOM     10  C   UNL d   1       4.428  -1.192   5.112  0.00  0.00     0.132 C 
ATOM     11  O   UNL d   1       3.872  -0.948   4.037  0.00  0.00    -0.298 OA
BRANCH  10  12
ATOM     12  C   UNL d   1       3.357  -1.433   6.105  0.00  0.00     0.088 C 
BRANCH  12  13
ATOM     13  C   UNL d   1       1.999  -1.250   5.286  0.00  0.00     0.110 C 
BRANCH  13  14
ATOM     14  C   UNL d   1       0.815  -1.441   6.140  0.00  0.00     0.217 C 
ATOM     15  O   UNL d   1       0.923  -1.712   7.332  0.00  0.00    -0.274 OA
ATOM     16  N   UNL d   1      -0.389  -1.288   5.489  0.00  0.00    -0.361 N 
ATOM     17  H   UNL d   1      -0.440  -1.071   4.498  0.00  0.00     0.162 HD
BRANCH  16  18
ATOM     18  C   UNL d   1      -1.580  -1.465   6.275  0.00  0.00     0.127 C 
BRANCH  18  19
ATOM     19  C   UNL d   1      -2.873  -1.288   5.489  0.00  0.00     0.058 C 
BRANCH  19  20
ATOM     20  C   UNL d   1      -4.045  -1.507   6.410  0.00  0.00    -0.057 A 
ATOM     21  C   UNL d   1      -4.719  -0.421   6.982  0.00  0.00     0.007 A 
ATOM     22  C   UNL d   1      -5.671  -0.636   7.979  0.00  0.00     0.001 A 
ATOM     23  C   UNL d   1      -6.015  -1.935   8.350  0.00  0.00     0.000 A 
ATOM     24  C   UNL d   1      -5.376  -3.022   7.759  0.00  0.00     0.001 A 
ATOM     25  C   UNL d   1      -4.389  -2.809   6.799  0.00  0.00     0.007 A 
ENDBRANCH  19  20
ENDBRANCH  18  19
ENDBRANCH  16  18
ENDBRANCH  13  14
ENDBRANCH  12  13
ENDBRANCH  10  12
ENDBRANCH   9  10
ENDBRANCH   1   9
BRANCH   2  26
ATOM     26  N   UNL d   1       9.203  -0.537   3.570  0.00  0.00    -0.276 N 
ATOM     27  H   UNL d   1       8.959  -0.592   2.578  0.00  0.00     0.189 HD
BRANCH  26  28
ATOM     28  C   UNL d   1      10.561  -0.865   3.770  0.00  0.00     0.083 A 
ATOM     29  C   UNL d   1      11.479   0.017   3.137  0.00  0.00     0.036 A 
ATOM     30  C   UNL d   1      12.867  -0.143   3.231  0.00  0.00     0.038 A 
ATOM     31  C   UNL d   1      13.374  -1.180   4.009  0.00  0.00     0.105 A 
ATOM     32  C   UNL d   1      12.502  -2.100   4.606  0.00  0.00     0.074 A 
ATOM     33  C   UNL d   1      11.094  -1.953   4.487  0.00  0.00     0.133 A 
BRANCH  31  34
ATOM     34  N   UNL d   1      14.822  -1.266   4.259  0.00  0.00    -0.116 N 
ATOM     35  O   UNL d   1      15.547  -0.404   3.742  0.00  0.00    -0.532 OA
ATOM     36  O   UNL d   1      15.226  -2.178   4.992  0.00  0.00    -0.532 OA
ENDBRANCH  31  34
BRANCH  33  37
ATOM     37  N   UNL d   1      10.279  -3.018   5.121  0.00  0.00    -0.113 N 
ATOM     38  O   UNL d   1      10.886  -3.809   5.862  0.00  0.00    -0.532 OA
ATOM     39  O   UNL d   1       9.082  -3.150   4.850  0.00  0.00    -0.532 OA
ENDBRANCH  33  37
ENDBRANCH  26  28
ENDBRANCH   2  26
TORSDOF 17
