REMARK  5 active torsions:
REMARK  status: ('A' for Active; 'I' for Inactive)
REMARK    1  A    between atoms: C_5  and  C_6 
REMARK    2  A    between atoms: C_6  and  N_8 
REMARK    3  A    between atoms: N_8  and  C_9 
REMARK    4  A    between atoms: C_11  and  N_12 
REMARK    5  A    between atoms: C_17  and  N_18 
ROOT
ATOM      1  C   UNL d   1      -3.621   2.251  -1.006  0.00  0.00     0.056 C 
ATOM      2  C   UNL d   1      -4.320   3.471  -0.937  0.00  0.00     0.067 C 
ATOM      3  C   UNL d   1      -3.924   4.540  -1.762  0.00  0.00     0.105 C 
ATOM      4  C   UNL d   1      -2.811   4.424  -2.597  0.00  0.00     0.038 C 
ATOM      5  C   UNL d   1      -2.149   3.209  -2.687  0.00  0.00     0.028 C 
ATOM      6  C   UNL d   1      -2.600   2.095  -1.977  0.00  0.00     0.033 C 
ENDROOT
BRANCH   1   7
ATOM      7  N   UNL d   1      -3.956   1.254  -0.042  0.00  0.00    -0.345 N 
ATOM      8  H   UNL d   1      -4.897   1.307   0.341  0.00  0.00     0.167 HD
BRANCH   7   9
ATOM      9  C   UNL d   1      -3.312   0.045   0.192  0.00  0.00     0.111 C 
ATOM     10  S   UNL d   1      -4.312  -1.312   0.239  0.00  0.00    -0.059 SA
BRANCH   9  11
ATOM     11  C   UNL d   1      -1.797  -0.002   0.328  0.00  0.00     0.002 A 
ATOM     12  C   UNL d   1      -1.096  -1.210   0.181  0.00  0.00     0.015 A 
ATOM     13  C   UNL d   1       0.301  -1.222   0.076  0.00  0.00     0.007 A 
ATOM     14  C   UNL d   1       1.024  -0.027   0.077  0.00  0.00    -0.062 A 
ATOM     15  C   UNL d   1       2.518  -0.014  -0.024  0.00  0.00     0.048 C 
ATOM     16  C   UNL d   1       0.337   1.179   0.201  0.00  0.00     0.007 A 
ATOM     17  C   UNL d   1      -1.045   1.184   0.403  0.00  0.00     0.015 A 
ENDBRANCH   9  11
ENDBRANCH   7   9
ENDBRANCH   1   7
BRANCH   6  18
ATOM     18  N   UNL d   1      -2.074   0.864  -2.401  0.00  0.00    -0.301 NA
ATOM     19  H   UNL d   1      -1.058   0.863  -2.460  0.00  0.00     0.124 HD
ATOM     20  H   UNL d   1      -2.410   0.042  -1.918  0.00  0.00     0.124 HD
ENDBRANCH   6  18
BRANCH   3  21
ATOM     21  N   UNL d   1      -4.673   5.803  -1.756  0.00  0.00    -0.116 N 
ATOM     22  O   UNL d   1      -5.645   5.901  -1.006  0.00  0.00    -0.532 OA
ATOM     23  O   UNL d   1      -4.279   6.704  -2.523  0.00  0.00    -0.532 OA
ENDBRANCH   3  21
TORSDOF 5
