REMARK  8 active torsions:
REMARK  status: ('A' for Active; 'I' for Inactive)
REMARK    1  A    between atoms: O_2  and  C_3 
REMARK    2  A    between atoms: C_6  and  C_7 
REMARK    3  A    between atoms: C_7  and  C_8 
REMARK    4  A    between atoms: C_8  and  N_9 
REMARK       I    between atoms: N_9  and  C_10 
REMARK    5  A    between atoms: C_10  and  C_12 
REMARK    6  A    between atoms: C_14  and  N_15 
REMARK       I    between atoms: N_15  and  C_16 
REMARK       I    between atoms: C_16  and  N_18 
REMARK    7  A    between atoms: N_18  and  C_19 
REMARK    8  A    between atoms: C_30  and  O_31 
ROOT
ATOM      1  C   UNL d   1       5.759   1.281   9.654  0.00  0.00     0.100 A 
ATOM      2  S   UNL d   1       5.983   0.266  11.009  0.00  0.00    -0.044 SA
ATOM      3  C   UNL d   1       6.825   1.494  11.868  0.00  0.00     0.175 A 
ATOM      4  N   UNL d   1       6.941   2.625  11.194  0.00  0.00    -0.228 NA
ATOM      5  C   UNL d   1       6.333   2.513   9.926  0.00  0.00     0.056 A 
ATOM      6  C   UNL d   1       6.282   3.686   9.011  0.00  0.00     0.072 C 
ENDROOT
BRANCH   1   7
ATOM      7  C   UNL d   1       5.000   0.830   8.498  0.00  0.00     0.260 C 
ATOM      8  N   UNL d   1       5.459   1.237   7.250  0.00  0.00    -0.356 N 
ATOM      9  H   UNL d   1       6.357   1.688   7.167  0.00  0.00     0.162 HD
ATOM     10  O   UNL d   1       3.979   0.129   8.590  0.00  0.00    -0.267 OA
BRANCH   8  11
ATOM     11  C   UNL d   1       4.753   0.861   6.038  0.00  0.00     0.127 C 
BRANCH  11  12
ATOM     12  C   UNL d   1       5.398   1.339   4.719  0.00  0.00     0.058 C 
BRANCH  12  13
ATOM     13  C   UNL d   1       4.599   0.984   3.477  0.00  0.00    -0.054 A 
ATOM     14  C   UNL d   1       4.996   1.390   2.203  0.00  0.00     0.010 A 
ATOM     15  C   UNL d   1       4.167   1.148   1.085  0.00  0.00     0.040 A 
ATOM     16  C   UNL d   1       2.955   0.422   1.182  0.00  0.00     0.101 A 
ATOM     17  C   UNL d   1       2.588  -0.030   2.460  0.00  0.00     0.102 A 
ATOM     18  C   UNL d   1       3.406   0.266   3.564  0.00  0.00     0.046 A 
BRANCH  16  19
ATOM     19  O   UNL d   1       2.454   0.024  -0.039  0.00  0.00    -0.353 OA
ATOM     20  C   UNL d   1       1.111   0.294  -0.447  0.00  0.00     0.210 C 
ENDBRANCH  16  19
BRANCH  17  21
ATOM     21  O   UNL d   1       1.551  -0.809   2.911  0.00  0.00    -0.353 OA
ATOM     22  C   UNL d   1       0.567  -1.072   1.962  0.00  0.00     0.210 C 
ENDBRANCH  17  21
ENDBRANCH  12  13
ENDBRANCH  11  12
ENDBRANCH   8  11
ENDBRANCH   1   7
BRANCH   3  23
ATOM     23  N   UNL d   1       7.325   1.302  13.168  0.00  0.00    -0.287 N 
ATOM     24  C   UNL d   1       7.237   0.107  13.868  0.00  0.00     0.326 C 
ATOM     25  O   UNL d   1       6.708  -0.905  13.417  0.00  0.00    -0.247 OA
ATOM     26  N   UNL d   1       7.776   0.111  15.160  0.00  0.00    -0.309 N 
ATOM     27  H   UNL d   1       7.996   0.978  15.630  0.00  0.00     0.170 HD
ATOM     28  H   UNL d   1       7.783   2.109  13.564  0.00  0.00     0.172 HD
BRANCH  26  29
ATOM     29  C   UNL d   1       7.783  -1.078  15.967  0.00  0.00     0.036 A 
ATOM     30  C   UNL d   1       7.560  -1.027  17.349  0.00  0.00     0.029 A 
ATOM     31  C   UNL d   1       7.643  -2.195  18.131  0.00  0.00     0.003 A 
ATOM     32  C   UNL d   1       7.921  -3.428  17.541  0.00  0.00     0.007 A 
ATOM     33  C   UNL d   1       8.153  -3.498  16.169  0.00  0.00    -0.060 A 
ATOM     34  C   UNL d   1       8.548  -4.789  15.515  0.00  0.00     0.048 C 
ATOM     35  C   UNL d   1       8.070  -2.327  15.397  0.00  0.00     0.036 A 
ENDBRANCH  26  29
ENDBRANCH   3  23
TORSDOF 8
