@<TRIPOS>MOLECULE
*****
 60 61 0 0 0
SMALL
GASTEIGER

@<TRIPOS>ATOM
      1 C           1.0040    0.0647    0.0893 C.3     1  UNL1       -0.0570
      2 C           2.5320    0.0599    0.0050 C.3     1  UNL1        0.0215
      3 C           2.9682    0.0004   -1.4549 C.2     1  UNL1        0.2169
      4 O           2.1307   -0.0278   -2.3566 O.2     1  UNL1       -0.2755
      5 N           4.3400   -0.0563   -1.6815 N.am    1  UNL1       -0.2855
      6 C           4.8856   -0.0492   -2.9959 C.ar    1  UNL1        0.0334
      7 C           6.0079   -0.8098   -3.3287 C.ar    1  UNL1       -0.0398
      8 C           6.5442   -0.7582   -4.6430 C.ar    1  UNL1       -0.0478
      9 C           5.9574    0.0276   -5.6597 C.ar    1  UNL1        0.0383
     10 C           6.4953   -0.0378   -7.0881 C.2     1  UNL1        0.2601
     11 O           7.4615   -0.7626   -7.3555 O.2     1  UNL1       -0.2687
     12 N           5.8557    0.7123   -8.0670 N.am    1  UNL1       -0.2311
     13 N           6.2459    0.7065   -9.4752 N.am    1  UNL1       -0.2453
     14 C           5.5149    1.5192  -10.3672 C.2     1  UNL1        0.1531
     15 S           4.2293    2.4389   -9.7604 S.2     1  UNL1       -0.0170
     16 N           5.9343    1.4990  -11.7229 N.am    1  UNL1       -0.2639
     17 C           5.3542    2.2480  -12.7791 C.2     1  UNL1        0.2561
     18 O           4.3842    2.9901  -12.6141 O.2     1  UNL1       -0.2717
     19 C           5.9433    2.1246  -14.2084 C.3     1  UNL1        0.1655
     20 O           5.2454    3.0897  -15.0275 O.3     1  UNL1       -0.4828
     21 C           5.4299    3.0817  -16.3775 C.ar    1  UNL1        0.1212
     22 C           5.3371    4.3150  -17.0310 C.ar    1  UNL1       -0.0196
     23 C           5.4401    4.3987  -18.4259 C.ar    1  UNL1       -0.0546
     24 C           5.7015    3.2549  -19.1961 C.ar    1  UNL1       -0.0418
     25 C           5.9969    3.3708  -20.6988 C.3     1  UNL1       -0.0127
     26 C           4.7940    3.9702  -21.4493 C.3     1  UNL1       -0.0560
     27 C           7.2252    4.2851  -20.9052 C.3     1  UNL1       -0.0560
     28 C           6.3271    2.0031  -21.3355 C.3     1  UNL1       -0.0560
     29 C           5.7376    2.0224  -18.5226 C.ar    1  UNL1       -0.0546
     30 C           5.5971    1.9340  -17.1347 C.ar    1  UNL1       -0.0196
     31 C           4.8568    0.8106   -5.2943 C.ar    1  UNL1       -0.0478
     32 C           4.3300    0.7615   -3.9892 C.ar    1  UNL1       -0.0398
     33 H           0.6539    0.1095    1.1243 H       1  UNL1        0.0234
     34 H           0.5872   -0.8392   -0.3710 H       1  UNL1        0.0234
     35 H           0.5864    0.9248   -0.4479 H       1  UNL1        0.0234
     36 H           2.9220   -0.8073    0.5478 H       1  UNL1        0.0356
     37 H           2.9223    0.9716    0.4701 H       1  UNL1        0.0356
     38 H           4.9609   -0.2551   -0.9061 H       1  UNL1        0.1548
     39 H           6.4358   -1.5100   -2.6127 H       1  UNL1        0.0636
     40 H           7.4273   -1.3564   -4.8681 H       1  UNL1        0.0626
     41 H           5.0415    1.2941   -7.8743 H       1  UNL1        0.1731
     42 H           7.0290    0.0947   -9.6977 H       1  UNL1        0.1718
     43 H           6.7174    0.9050  -11.9578 H       1  UNL1        0.1566
     44 H           5.7869    1.1026  -14.5635 H       1  UNL1        0.0795
     45 H           7.0028    2.3932  -14.2111 H       1  UNL1        0.0795
     46 H           5.1974    5.2288  -16.4573 H       1  UNL1        0.0654
     47 H           5.3288    5.3726  -18.9005 H       1  UNL1        0.0622
     48 H           4.5477    4.9772  -21.0952 H       1  UNL1        0.0238
     49 H           3.9008    3.3479  -21.3252 H       1  UNL1        0.0238
     50 H           5.0022    4.0494  -22.5231 H       1  UNL1        0.0238
     51 H           7.0518    5.3005  -20.5310 H       1  UNL1        0.0238
     52 H           7.4797    4.3730  -21.9675 H       1  UNL1        0.0238
     53 H           8.1042    3.8898  -20.3819 H       1  UNL1        0.0238
     54 H           5.4819    1.3100  -21.2448 H       1  UNL1        0.0238
     55 H           7.1974    1.5422  -20.8510 H       1  UNL1        0.0238
     56 H           6.5609    2.0941  -22.4006 H       1  UNL1        0.0238
     57 H           5.8769    1.0879  -19.0579 H       1  UNL1        0.0622
     58 H           5.6014    0.9485  -16.6878 H       1  UNL1        0.0654
     59 H           4.3645    1.4822   -5.9872 H       1  UNL1        0.0626
     60 H           3.4751    1.3936   -3.7550 H       1  UNL1        0.0636
@<TRIPOS>BOND
     1     1     2    1
     2     2     3    1
     3     3     4    2
     4     3     5   am
     5     5     6    1
     6     6     7   ar
     7     7     8   ar
     8     8     9   ar
     9     9    10    1
    10    10    11    2
    11    10    12   am
    12    12    13    1
    13    13    14    1
    14    14    15    2
    15    14    16    1
    16    16    17   am
    17    17    18    2
    18    17    19    1
    19    19    20    1
    20    20    21    1
    21    21    22   ar
    22    22    23   ar
    23    23    24   ar
    24    24    25    1
    25    25    26    1
    26    25    27    1
    27    25    28    1
    28    24    29   ar
    29    29    30   ar
    30    21    30   ar
    31     9    31   ar
    32    31    32   ar
    33     6    32   ar
    34     1    33    1
    35     1    34    1
    36     1    35    1
    37     2    36    1
    38     2    37    1
    39     5    38    1
    40     7    39    1
    41     8    40    1
    42    12    41    1
    43    13    42    1
    44    16    43    1
    45    19    44    1
    46    19    45    1
    47    22    46    1
    48    23    47    1
    49    26    48    1
    50    26    49    1
    51    26    50    1
    52    27    51    1
    53    27    52    1
    54    27    53    1
    55    28    54    1
    56    28    55    1
    57    28    56    1
    58    29    57    1
    59    30    58    1
    60    31    59    1
    61    32    60    1
