@<TRIPOS>MOLECULE
*****
 72 76 0 0 0
SMALL
GASTEIGER

@<TRIPOS>ATOM
      1 C           1.0592   -0.2267    0.4745 C.3     1  UNL1        0.0820
      2 O           2.4677   -0.4295    0.7573 O.3     1  UNL1       -0.4644
      3 C           3.1195    0.7027    1.1486 C.2     1  UNL1        0.3407
      4 O           2.5964    1.6507    1.7231 O.2     1  UNL1       -0.2449
      5 C           4.5915    0.7106    0.8251 C.ar    1  UNL1        0.0801
      6 C           5.3757    0.9718    1.9723 C.ar    1  UNL1       -0.0460
      7 C           6.7486    1.1998    1.8886 C.ar    1  UNL1       -0.0609
      8 C           7.3745    1.1533    0.6508 C.ar    1  UNL1       -0.0600
      9 C           6.6212    0.9070   -0.5094 C.ar    1  UNL1       -0.0397
     10 C           5.2239    0.6577   -0.4595 C.ar    1  UNL1        0.0474
     11 N           4.6091    0.3366   -1.7368 N.am    1  UNL1       -0.2841
     12 C           3.2486    0.3675   -1.9353 C.2     1  UNL1        0.2275
     13 O           2.6026    1.0288   -1.1583 O.2     1  UNL1       -0.2746
     14 C           2.5618   -0.1835   -3.2034 C.3     1  UNL1        0.0779
     15 S           0.7398   -0.4524   -2.8850 S.3     1  UNL1       -0.0766
     16 C          -0.1765   -0.3424   -4.3555 C.ar    1  UNL1        0.1926
     17 N          -0.5710   -1.4221   -5.0015 N.ar    1  UNL1       -0.1221
     18 N          -1.3912   -1.0448   -6.0405 N.ar    1  UNL1       -0.1283
     19 C          -1.5075    0.2653   -6.0138 C.ar    1  UNL1        0.1652
     20 C          -2.1902    1.1156   -6.9971 C.ar    1  UNL1        0.0194
     21 C          -3.5664    1.0296   -7.2272 C.ar    1  UNL1       -0.0493
     22 C          -4.2022    1.8903   -8.1510 C.ar    1  UNL1       -0.0398
     23 C          -3.4836    2.9080   -8.7943 C.ar    1  UNL1        0.0337
     24 N          -4.1578    3.8553   -9.6191 N.am    1  UNL1       -0.2815
     25 C          -3.5359    4.9265  -10.2547 C.2     1  UNL1        0.2483
     26 O          -2.3452    5.2210  -10.1985 O.2     1  UNL1       -0.2699
     27 C          -4.3523    5.8177  -11.1081 C.ar    1  UNL1        0.0373
     28 C          -3.7818    6.2092  -12.3299 C.ar    1  UNL1       -0.0496
     29 C          -4.3790    7.1973  -13.1060 C.ar    1  UNL1       -0.0608
     30 C          -5.5808    7.7625  -12.6918 C.ar    1  UNL1       -0.0588
     31 C          -6.1566    7.3925  -11.4667 C.ar    1  UNL1       -0.0497
     32 C          -7.4004    8.0814  -10.9890 C.3     1  UNL1       -0.0397
     33 C          -5.5329    6.4182  -10.6658 C.ar    1  UNL1       -0.0467
     34 C          -2.1071    2.9628   -8.5709 C.ar    1  UNL1       -0.0398
     35 C          -1.4668    2.0764   -7.7051 C.ar    1  UNL1       -0.0493
     36 N          -0.8409    0.7454   -4.8844 N.ar    1  UNL1       -0.2977
     37 C          -0.9395    2.1646   -4.5586 C.3     1  UNL1        0.0521
     38 C          -0.2192    2.6686   -3.3656 C.ar    1  UNL1       -0.0276
     39 C          -0.8549    3.2047   -2.2445 C.ar    1  UNL1       -0.0569
     40 C          -0.0909    3.6239   -1.1574 C.ar    1  UNL1       -0.0614
     41 C           1.2890    3.4752   -1.1852 C.ar    1  UNL1       -0.0617
     42 C           1.9211    3.0938   -2.3630 C.ar    1  UNL1       -0.0614
     43 C           1.1684    2.6765   -3.4404 C.ar    1  UNL1       -0.0569
     44 H           0.7653   -0.9901   -0.2501 H       1  UNL1        0.0661
     45 H           0.8234    0.7516    0.0277 H       1  UNL1        0.0661
     46 H           0.4457   -0.3421    1.3625 H       1  UNL1        0.0661
     47 H           4.8979    1.0056    2.9514 H       1  UNL1        0.0626
     48 H           7.3184    1.4270    2.7878 H       1  UNL1        0.0618
     49 H           8.4536    1.2971    0.5939 H       1  UNL1        0.0618
     50 H           7.1598    0.9278   -1.4559 H       1  UNL1        0.0636
     51 H           5.1994    0.3935   -2.5562 H       1  UNL1        0.1548
     52 H           3.0130   -1.1188   -3.5198 H       1  UNL1        0.0475
     53 H           2.7294    0.5771   -3.9610 H       1  UNL1        0.0475
     54 H          -4.1572    0.3051   -6.6690 H       1  UNL1        0.0625
     55 H          -5.2624    1.7440   -8.3417 H       1  UNL1        0.0636
     56 H          -5.1558    3.7358   -9.7427 H       1  UNL1        0.1551
     57 H          -2.8447    5.7631  -12.6585 H       1  UNL1        0.0625
     58 H          -3.8944    7.5433  -14.0154 H       1  UNL1        0.0618
     59 H          -6.0557    8.5101  -13.3246 H       1  UNL1        0.0620
     60 H          -7.7669    8.8025  -11.7279 H       1  UNL1        0.0278
     61 H          -7.1928    8.6287  -10.0641 H       1  UNL1        0.0278
     62 H          -8.1909    7.3468  -10.8130 H       1  UNL1        0.0278
     63 H          -5.9373    6.1858   -9.6845 H       1  UNL1        0.0628
     64 H          -1.4694    3.6916   -9.0559 H       1  UNL1        0.0636
     65 H          -0.3918    2.1865   -7.5789 H       1  UNL1        0.0625
     66 H          -1.9983    2.4455   -4.5355 H       1  UNL1        0.0542
     67 H          -0.4791    2.6925   -5.4017 H       1  UNL1        0.0542
     68 H          -1.9367    3.2910   -2.2008 H       1  UNL1        0.0621
     69 H          -0.5554    4.0473   -0.2740 H       1  UNL1        0.0618
     70 H           1.8735    3.5629   -0.2705 H       1  UNL1        0.0618
     71 H           2.9957    2.9318   -2.3700 H       1  UNL1        0.0618
     72 H           1.6436    2.2327   -4.3099 H       1  UNL1        0.0621
@<TRIPOS>BOND
     1     1     2    1
     2     2     3    1
     3     3     4    2
     4     3     5    1
     5     5     6   ar
     6     6     7   ar
     7     7     8   ar
     8     8     9   ar
     9     9    10   ar
    10     5    10   ar
    11    10    11    1
    12    11    12   am
    13    12    13    2
    14    12    14    1
    15    14    15    1
    16    15    16    1
    17    16    17   ar
    18    17    18   ar
    19    18    19   ar
    20    19    20    1
    21    20    21   ar
    22    21    22   ar
    23    22    23   ar
    24    23    24    1
    25    24    25   am
    26    25    26    2
    27    25    27    1
    28    27    28   ar
    29    28    29   ar
    30    29    30   ar
    31    30    31   ar
    32    31    32    1
    33    31    33   ar
    34    27    33   ar
    35    23    34   ar
    36    34    35   ar
    37    20    35   ar
    38    19    36   ar
    39    16    36   ar
    40    36    37    1
    41    37    38    1
    42    38    39   ar
    43    39    40   ar
    44    40    41   ar
    45    41    42   ar
    46    42    43   ar
    47    38    43   ar
    48     1    44    1
    49     1    45    1
    50     1    46    1
    51     6    47    1
    52     7    48    1
    53     8    49    1
    54     9    50    1
    55    11    51    1
    56    14    52    1
    57    14    53    1
    58    21    54    1
    59    22    55    1
    60    24    56    1
    61    28    57    1
    62    29    58    1
    63    30    59    1
    64    32    60    1
    65    32    61    1
    66    32    62    1
    67    33    63    1
    68    34    64    1
    69    35    65    1
    70    37    66    1
    71    37    67    1
    72    39    68    1
    73    40    69    1
    74    41    70    1
    75    42    71    1
    76    43    72    1
