REMARK  9 active torsions:
REMARK  status: ('A' for Active; 'I' for Inactive)
REMARK    1  A    between atoms: C_2  and  C_3 
REMARK       I    between atoms: C_2  and  N_24 
REMARK    2  A    between atoms: C_3  and  O_4 
REMARK    3  A    between atoms: O_4  and  C_5 
REMARK    4  A    between atoms: C_5  and  C_7 
REMARK    5  A    between atoms: C_12  and  N_13 
REMARK    6  A    between atoms: N_13  and  C_14 
REMARK    7  A    between atoms: C_18  and  C_19 
REMARK    8  A    between atoms: N_24  and  N_25 
REMARK       I    between atoms: N_25  and  C_26 
REMARK    9  A    between atoms: C_26  and  C_28 
ROOT
ATOM      1  C   UNL d   1       2.581  -2.088   3.058  0.00  0.00     0.297 C 
ATOM      2  O   UNL d   1       3.741  -2.495   3.022  0.00  0.00    -0.259 OA
ENDROOT
BRANCH   1   3
ATOM      3  O   UNL d   1       2.023  -1.284   2.111  0.00  0.00    -0.308 OA
BRANCH   3   4
ATOM      4  C   UNL d   1       2.937  -0.837   1.083  0.00  0.00     0.283 C 
BRANCH   4   5
ATOM      5  C   UNL d   1       2.271  -0.008  -0.030  0.00  0.00     0.260 C 
ATOM      6  O   UNL d   1       1.045   0.127  -0.079  0.00  0.00    -0.269 OA
ATOM      7  N   UNL d   1       3.056   0.600  -0.996  0.00  0.00    -0.265 N 
ATOM      8  H   UNL d   1       2.573   1.146  -1.712  0.00  0.00     0.190 HD
BRANCH   7   9
ATOM      9  N   UNL d   1       4.467   0.645  -1.034  0.00  0.00    -0.263 N 
ATOM     10  C   UNL d   1       5.099   1.355  -2.054  0.00  0.00     0.273 C 
ATOM     11  O   UNL d   1       4.495   1.964  -2.933  0.00  0.00    -0.266 OA
ATOM     12  H   UNL d   1       4.999   0.235  -0.277  0.00  0.00     0.190 HD
BRANCH  10  13
ATOM     13  C   UNL d   1       6.592   1.350  -2.064  0.00  0.00     0.072 A 
ATOM     14  C   UNL d   1       7.311   2.485  -2.476  0.00  0.00     0.020 A 
ATOM     15  C   UNL d   1       8.705   2.421  -2.641  0.00  0.00     0.001 A 
ATOM     16  C   UNL d   1       9.394   1.246  -2.343  0.00  0.00     0.003 A 
ATOM     17  C   UNL d   1       8.686   0.122  -1.919  0.00  0.00     0.043 A 
ATOM     18  C   UNL d   1       7.297   0.179  -1.787  0.00  0.00     0.132 A 
ATOM     19  F   UNL d   1       6.650  -0.929  -1.399  0.00  0.00    -0.205 F 
ENDBRANCH  10  13
ENDBRANCH   7   9
ENDBRANCH   4   5
ENDBRANCH   3   4
ENDBRANCH   1   3
BRANCH   1  20
ATOM     20  C   UNL d   1       1.626  -2.442   4.143  0.00  0.00     0.085 A 
ATOM     21  C   UNL d   1       0.479  -3.136   3.753  0.00  0.00     0.023 A 
ATOM     22  C   UNL d   1      -0.346  -3.707   4.715  0.00  0.00     0.020 A 
ATOM     23  C   UNL d   1      -0.009  -3.541   6.046  0.00  0.00     0.119 A 
ATOM     24  N   UNL d   1       1.068  -2.834   6.465  0.00  0.00    -0.242 NA
ATOM     25  C   UNL d   1       1.888  -2.287   5.523  0.00  0.00     0.144 A 
BRANCH  25  26
ATOM     26  N   UNL d   1       2.987  -1.587   6.040  0.00  0.00    -0.340 N 
ATOM     27  H   UNL d   1       3.057  -1.614   7.051  0.00  0.00     0.167 HD
BRANCH  26  28
ATOM     28  C   UNL d   1       3.866  -0.751   5.345  0.00  0.00     0.034 A 
ATOM     29  C   UNL d   1       5.226  -1.057   5.267  0.00  0.00     0.029 A 
ATOM     30  C   UNL d   1       6.047  -0.370   4.368  0.00  0.00     0.003 A 
ATOM     31  C   UNL d   1       5.510   0.612   3.531  0.00  0.00     0.016 A 
ATOM     32  C   UNL d   1       4.164   0.987   3.653  0.00  0.00     0.050 A 
ATOM     33  C   UNL d   1       3.359   0.301   4.571  0.00  0.00     0.045 A 
BRANCH  32  34
ATOM     34  C   UNL d   1       3.557   2.052   2.771  0.00  0.00     0.417 C 
ATOM     35  F   UNL d   1       4.021   3.291   3.064  0.00  0.00    -0.166 F 
ATOM     36  F   UNL d   1       3.834   1.875   1.449  0.00  0.00    -0.166 F 
ATOM     37  F   UNL d   1       2.200   2.110   2.854  0.00  0.00    -0.166 F 
ENDBRANCH  32  34
ENDBRANCH  26  28
ENDBRANCH  25  26
ENDBRANCH   1  20
TORSDOF 9
