REMARK  11 active torsions:
REMARK  status: ('A' for Active; 'I' for Inactive)
REMARK    1  A    between atoms: C_2  and  N_11 
REMARK    2  A    between atoms: C_2  and  C_3 
REMARK    3  A    between atoms: C_3  and  C_4 
REMARK    4  A    between atoms: C_4  and  C_5 
REMARK       I    between atoms: N_11  and  C_12 
REMARK       I    between atoms: C_12  and  N_14 
REMARK    5  A    between atoms: N_14  and  C_15 
REMARK    6  A    between atoms: C_16  and  C_15 
REMARK    7  A    between atoms: C_16  and  C_18 
REMARK    8  A    between atoms: C_16  and  O_17 
REMARK    9  A    between atoms: C_18  and  O_19 
REMARK   10  A    between atoms: O_19  and  C_20 
REMARK   11  A    between atoms: C_23  and  N_24 
ROOT
ATOM      1  N   UNL d   1       5.880  -8.916  -2.736  0.00  0.00    -0.339 N 
ATOM      2  C   UNL d   1       5.740  -7.556  -2.779  0.00  0.00     0.316 C 
ATOM      3  O   UNL d   1       5.348  -6.942  -3.771  0.00  0.00    -0.247 OA
ATOM      4  N   UNL d   1       6.039  -6.934  -1.602  0.00  0.00    -0.341 N 
ATOM      5  H   UNL d   1       6.224  -9.336  -1.885  0.00  0.00     0.164 HD
ATOM      6  H   UNL d   1       6.614  -7.427  -0.928  0.00  0.00     0.164 HD
ENDROOT
BRANCH   4   7
ATOM      7  C   UNL d   1       5.997  -5.480  -1.518  0.00  0.00     0.158 C 
BRANCH   7   8
ATOM      8  C   UNL d   1       6.671  -4.903  -0.263  0.00  0.00     0.160 C 
BRANCH   8   9
ATOM      9  C   UNL d   1       8.184  -5.172  -0.259  0.00  0.00     0.209 C 
BRANCH   9  10
ATOM     10  O   UNL d   1       8.402  -6.579  -0.395  0.00  0.00    -0.349 OA
BRANCH  10  11
ATOM     11  C   UNL d   1       9.697  -7.002  -0.365  0.00  0.00     0.069 A 
ATOM     12  C   UNL d   1      10.020  -8.068  -1.212  0.00  0.00     0.039 A 
ATOM     13  C   UNL d   1      11.275  -8.676  -1.129  0.00  0.00     0.039 A 
ATOM     14  C   UNL d   1      12.228  -8.160  -0.242  0.00  0.00     0.103 A 
ATOM     15  C   UNL d   1      11.905  -7.096   0.608  0.00  0.00     0.039 A 
ATOM     16  C   UNL d   1      10.633  -6.524   0.548  0.00  0.00     0.039 A 
BRANCH  14  17
ATOM     17  N   UNL d   1      13.593  -8.698  -0.240  0.00  0.00    -0.116 N 
ATOM     18  O   UNL d   1      13.850  -9.624  -1.023  0.00  0.00    -0.532 OA
ATOM     19  O   UNL d   1      14.415  -8.177   0.527  0.00  0.00    -0.532 OA
ENDBRANCH  14  17
ENDBRANCH  10  11
ENDBRANCH   9  10
ENDBRANCH   8   9
BRANCH   8  20
ATOM     20  O   UNL d   1       6.432  -3.496  -0.151  0.00  0.00    -0.392 OA
ATOM     21  H   UNL d   1       6.803  -3.053  -0.934  0.00  0.00     0.210 HD
ENDBRANCH   8  20
ENDBRANCH   7   8
ENDBRANCH   4   7
BRANCH   1  22
ATOM     22  C   UNL d   1       5.509  -9.753  -3.877  0.00  0.00     0.082 C 
ATOM     23  C   UNL d   1       4.007  -9.643  -4.161  0.00  0.00     0.032 C 
BRANCH  22  24
ATOM     24  C   UNL d   1       5.815 -11.240  -3.669  0.00  0.00     0.029 C 
BRANCH  24  25
ATOM     25  C   UNL d   1       7.218 -11.520  -3.153  0.00  0.00     0.040 C 
BRANCH  25  26
ATOM     26  C   UNL d   1       7.501 -12.975  -2.875  0.00  0.00    -0.058 A 
ATOM     27  C   UNL d   1       6.484 -13.917  -2.661  0.00  0.00     0.007 A 
ATOM     28  C   UNL d   1       6.781 -15.173  -2.144  0.00  0.00     0.001 A 
ATOM     29  C   UNL d   1       8.105 -15.536  -1.928  0.00  0.00     0.000 A 
ATOM     30  C   UNL d   1       9.131 -14.631  -2.198  0.00  0.00     0.001 A 
ATOM     31  C   UNL d   1       8.831 -13.353  -2.660  0.00  0.00     0.007 A 
ENDBRANCH  25  26
ENDBRANCH  24  25
ENDBRANCH  22  24
ENDBRANCH   1  22
TORSDOF 11
