@<TRIPOS>MOLECULE
*****
 73 75 0 0 0
SMALL
GASTEIGER

@<TRIPOS>ATOM
      1 C           0.7419   -0.0337   -0.2312 C.3     1  UNL1       -0.0639
      2 C           2.2375   -0.0521   -0.2579 C.3     1  UNL1       -0.0400
      3 C           3.0370   -0.7101   -1.3697 C.3     1  UNL1        0.0147
      4 N           4.5357   -0.6596   -1.2673 N.am    1  UNL1       -0.2975
      5 C           5.2836    0.0539   -0.1919 C.3     1  UNL1        0.0147
      6 C           4.5345    0.7250    0.9344 C.3     1  UNL1       -0.0400
      7 C           5.2955    1.3555    2.0564 C.3     1  UNL1       -0.0639
      8 C           5.2314   -1.2595   -2.3591 C.2     1  UNL1        0.2466
      9 O           4.6441   -1.7608   -3.3185 O.2     1  UNL1       -0.2700
     10 C           6.7317   -1.3199   -2.3737 C.ar    1  UNL1        0.0370
     11 C           7.4584   -1.0961   -3.5487 C.ar    1  UNL1       -0.0479
     12 C           8.8623   -1.2630   -3.5578 C.ar    1  UNL1       -0.0401
     13 C           9.5766   -1.5433   -2.3813 C.ar    1  UNL1        0.0275
     14 N          10.9522   -1.6639   -2.3822 N.pl3   1  UNL1       -0.3354
     15 C          11.7513   -1.8031   -1.1545 C.3     1  UNL1        0.0861
     16 C          13.2483   -1.7122   -1.4858 C.2     1  UNL1        0.2343
     17 O          13.6188   -1.4468   -2.6324 O.2     1  UNL1       -0.2738
     18 N          14.1209   -1.9640   -0.4258 N.am    1  UNL1       -0.2842
     19 C          15.5249   -1.8722   -0.5701 C.ar    1  UNL1        0.0342
     20 C          16.3724   -2.7565    0.0952 C.ar    1  UNL1       -0.0391
     21 C          17.7580   -2.6187   -0.0269 C.ar    1  UNL1       -0.0409
     22 C          18.3092   -1.6230   -0.8378 C.ar    1  UNL1        0.0532
     23 CL         20.0398   -1.6849   -0.9724 Cl      1  UNL1       -0.0828
     24 C          17.4620   -0.7026   -1.4862 C.ar    1  UNL1        0.0567
     25 C          18.0194    0.4438   -2.2504 C.2     1  UNL1        0.2458
     26 O          19.2267    0.5257   -2.3349 O.2     1  UNL1       -0.2701
     27 N          17.1590    1.3986   -2.7909 N.am    1  UNL1       -0.3085
     28 C          17.6228    2.5665   -3.5535 C.3     1  UNL1        0.0234
     29 C          16.8412    3.8124   -3.1040 C.3     1  UNL1       -0.0345
     30 C          17.3409    5.0875   -3.7843 C.3     1  UNL1       -0.0514
     31 C          18.8426    5.2802   -3.6013 C.3     1  UNL1       -0.0529
     32 C          19.6016    4.0775   -4.1252 C.3     1  UNL1       -0.0514
     33 C          19.1303    2.8189   -3.4401 C.3     1  UNL1       -0.0345
     34 C          16.0770   -0.8506   -1.3451 C.ar    1  UNL1       -0.0270
     35 C           8.8293   -1.7886   -1.2347 C.ar    1  UNL1       -0.0401
     36 C           7.4375   -1.7373   -1.2483 C.ar    1  UNL1       -0.0479
     37 H           0.4510    0.5120    0.6809 H       1  UNL1        0.0230
     38 H           0.3472   -1.0450   -0.1619 H       1  UNL1        0.0230
     39 H           0.3493    0.5082   -1.0891 H       1  UNL1        0.0230
     40 H           2.4773   -0.5641    0.6714 H       1  UNL1        0.0278
     41 H           2.4733    1.0091   -0.2704 H       1  UNL1        0.0278
     42 H           2.7597   -0.2514   -2.3261 H       1  UNL1        0.0464
     43 H           2.7575   -1.7691   -1.4286 H       1  UNL1        0.0464
     44 H           5.9640    0.7624   -0.6758 H       1  UNL1        0.0464
     45 H           5.8732   -0.6952    0.3262 H       1  UNL1        0.0464
     46 H           3.9628   -0.0418    1.4536 H       1  UNL1        0.0278
     47 H           3.9503    1.5445    0.5288 H       1  UNL1        0.0278
     48 H           5.8905    0.6108    2.5848 H       1  UNL1        0.0230
     49 H           4.5443    1.7564    2.7507 H       1  UNL1        0.0230
     50 H           5.9069    2.1741    1.6836 H       1  UNL1        0.0230
     51 H           6.9447   -0.8146   -4.4670 H       1  UNL1        0.0626
     52 H           9.3901   -1.1807   -4.5069 H       1  UNL1        0.0636
     53 H          11.4753   -1.3695   -3.2069 H       1  UNL1        0.1466
     54 H          11.5520   -2.7804   -0.7034 H       1  UNL1        0.0557
     55 H          11.5133   -1.0069   -0.4380 H       1  UNL1        0.0557
     56 H          13.7671   -2.3515    0.4414 H       1  UNL1        0.1549
     57 H          15.9895   -3.6071    0.6506 H       1  UNL1        0.0636
     58 H          18.4250   -3.2977    0.5016 H       1  UNL1        0.0633
     59 H          16.1612    1.2596   -2.7901 H       1  UNL1        0.1493
     60 H          17.3729    2.3583   -4.6025 H       1  UNL1        0.0498
     61 H          16.9325    3.9257   -2.0155 H       1  UNL1        0.0283
     62 H          15.7710    3.6849   -3.3107 H       1  UNL1        0.0283
     63 H          16.8108    5.9549   -3.3775 H       1  UNL1        0.0266
     64 H          17.1116    5.0394   -4.8557 H       1  UNL1        0.0266
     65 H          19.0696    5.4248   -2.5372 H       1  UNL1        0.0265
     66 H          19.1790    6.1758   -4.1314 H       1  UNL1        0.0265
     67 H          20.6758    4.1933   -3.9439 H       1  UNL1        0.0266
     68 H          19.4583    3.9715   -5.2059 H       1  UNL1        0.0266
     69 H          19.4039    2.8815   -2.3771 H       1  UNL1        0.0283
     70 H          19.6817    1.9907   -3.8976 H       1  UNL1        0.0283
     71 H          15.3950   -0.1510   -1.8098 H       1  UNL1        0.0644
     72 H           9.3068   -2.0694   -0.3032 H       1  UNL1        0.0636
     73 H           6.9283   -2.0658   -0.3534 H       1  UNL1        0.0626
@<TRIPOS>BOND
     1     1     2    1
     2     2     3    1
     3     3     4    1
     4     4     5    1
     5     5     6    1
     6     6     7    1
     7     4     8   am
     8     8     9    2
     9     8    10    1
    10    10    11   ar
    11    11    12   ar
    12    12    13   ar
    13    13    14    1
    14    14    15    1
    15    15    16    1
    16    16    17    2
    17    16    18   am
    18    18    19    1
    19    19    20   ar
    20    20    21   ar
    21    21    22   ar
    22    22    23    1
    23    22    24   ar
    24    24    25    1
    25    25    26    2
    26    25    27   am
    27    27    28    1
    28    28    29    1
    29    29    30    1
    30    30    31    1
    31    31    32    1
    32    32    33    1
    33    28    33    1
    34    24    34   ar
    35    19    34   ar
    36    13    35   ar
    37    35    36   ar
    38    10    36   ar
    39     1    37    1
    40     1    38    1
    41     1    39    1
    42     2    40    1
    43     2    41    1
    44     3    42    1
    45     3    43    1
    46     5    44    1
    47     5    45    1
    48     6    46    1
    49     6    47    1
    50     7    48    1
    51     7    49    1
    52     7    50    1
    53    11    51    1
    54    12    52    1
    55    14    53    1
    56    15    54    1
    57    15    55    1
    58    18    56    1
    59    20    57    1
    60    21    58    1
    61    27    59    1
    62    28    60    1
    63    29    61    1
    64    29    62    1
    65    30    63    1
    66    30    64    1
    67    31    65    1
    68    31    66    1
    69    32    67    1
    70    32    68    1
    71    33    69    1
    72    33    70    1
    73    34    71    1
    74    35    72    1
    75    36    73    1
