@<TRIPOS>MOLECULE
*****
 56 58 0 0 0
SMALL
GASTEIGER

@<TRIPOS>ATOM
      1 C           1.0170    0.1201   -0.0023 C.3     1  UNL1       -0.0307
      2 C           2.5407    0.1390   -0.0234 C.3     1  UNL1        0.0870
      3 O           3.0016    0.8825   -1.1679 O.3     1  UNL1       -0.4885
      4 C           4.3720    0.9863   -1.3206 C.ar    1  UNL1        0.1635
      5 C           5.1932   -0.1387   -1.1576 C.ar    1  UNL1       -0.0080
      6 C           6.5728   -0.0371   -1.3481 C.ar    1  UNL1        0.0018
      7 C           7.4680   -1.2198   -1.1479 C.3     1  UNL1       -0.0075
      8 N           8.9072   -0.8819   -1.3846 N.4     1  UNL1        0.2314
      9 C           9.8333   -2.0123   -1.1859 C.3     1  UNL1       -0.0174
     10 C          11.2746   -1.5827   -1.4520 C.3     1  UNL1        0.0520
     11 N          12.1983   -2.6886   -1.3128 N.am    1  UNL1       -0.3048
     12 C          13.5643   -2.4822   -1.4514 C.2     1  UNL1        0.2694
     13 O          14.0013   -1.3595   -1.7177 O.2     1  UNL1       -0.2683
     14 C          14.4009   -3.6561   -1.2647 C.ar    1  UNL1        0.2095
     15 N          15.5764   -3.5908   -0.6276 N.ar    1  UNL1       -0.0422
     16 O          16.0812   -4.8857   -0.6636 O.2     1  UNL1       -0.2401
     17 N          15.2093   -5.7466   -1.3187 N.ar    1  UNL1       -0.0334
     18 C          14.1728   -4.9935   -1.6741 C.ar    1  UNL1        0.1925
     19 N          13.0777   -5.4623   -2.3143 N.pl3   1  UNL1       -0.3386
     20 C           7.1054    1.1925   -1.7316 C.ar    1  UNL1       -0.0358
     21 C           6.3219    2.3152   -1.9409 C.ar    1  UNL1        0.0636
     22 BR          7.4319    3.7868   -2.4758 Br      1  UNL1       -0.0464
     23 C           4.9336    2.2300   -1.7461 C.ar    1  UNL1        0.1763
     24 O           4.0282    3.2400   -1.9172 O.3     1  UNL1       -0.4826
     25 C           4.5279    4.5062   -2.3401 C.3     1  UNL1        0.1149
     26 C           3.4489    5.5301   -2.4641 C.ar    1  UNL1       -0.0104
     27 C           3.7865    6.8911   -2.5225 C.ar    1  UNL1       -0.0554
     28 C           2.7783    7.8459   -2.4877 C.ar    1  UNL1       -0.0614
     29 C           1.4435    7.4410   -2.4994 C.ar    1  UNL1       -0.0617
     30 C           1.1123    6.0874   -2.5127 C.ar    1  UNL1       -0.0614
     31 C           2.1140    5.1334   -2.4970 C.ar    1  UNL1       -0.0554
     32 H           0.6431   -0.4188    0.8761 H       1  UNL1        0.0262
     33 H           0.6215   -0.3722   -0.8973 H       1  UNL1        0.0262
     34 H           0.6129    1.1363    0.0143 H       1  UNL1        0.0262
     35 H           2.8766   -0.9034   -0.0490 H       1  UNL1        0.0694
     36 H           2.9081    0.6125    0.8941 H       1  UNL1        0.0694
     37 H           4.7588   -1.1047   -0.9104 H       1  UNL1        0.0660
     38 H           7.2086   -2.0163   -1.8519 H       1  UNL1        0.0866
     39 H           7.3931   -1.5728   -0.1148 H       1  UNL1        0.0866
     40 H           9.1663   -0.1115   -0.7500 H       1  UNL1        0.2017
     41 H           9.0007   -0.5254   -2.3473 H       1  UNL1        0.2017
     42 H           9.5258   -2.8015   -1.8776 H       1  UNL1        0.0829
     43 H           9.7083   -2.3516   -0.1539 H       1  UNL1        0.0829
     44 H          11.5694   -0.7758   -0.7681 H       1  UNL1        0.0515
     45 H          11.3740   -1.1869   -2.4714 H       1  UNL1        0.0515
     46 H          11.9021   -3.5856   -0.9351 H       1  UNL1        0.1493
     47 H          13.1536   -6.3918   -2.7284 H       1  UNL1        0.1439
     48 H          12.4420   -4.8546   -2.8151 H       1  UNL1        0.1439
     49 H           8.1688    1.3278   -1.8937 H       1  UNL1        0.0634
     50 H           4.9846    4.4154   -3.3309 H       1  UNL1        0.0748
     51 H           5.2010    4.8843   -1.5623 H       1  UNL1        0.0748
     52 H           4.8271    7.2111   -2.5674 H       1  UNL1        0.0621
     53 H           3.0283    8.9019   -2.4329 H       1  UNL1        0.0618
     54 H           0.6530    8.1840   -2.5012 H       1  UNL1        0.0618
     55 H           0.0771    5.7643   -2.5083 H       1  UNL1        0.0618
     56 H           1.8580    4.0765   -2.4867 H       1  UNL1        0.0621
@<TRIPOS>UNITY_ATOM_ATTR
8 1
charge 1
@<TRIPOS>BOND
     1     1     2    1
     2     2     3    1
     3     3     4    1
     4     4     5   ar
     5     5     6   ar
     6     6     7    1
     7     7     8    1
     8     8     9    1
     9     9    10    1
    10    10    11    1
    11    11    12   am
    12    12    13    2
    13    12    14    1
    14    14    15   ar
    15    15    16   ar
    16    16    17   ar
    17    17    18   ar
    18    14    18   ar
    19    18    19    1
    20     6    20   ar
    21    20    21   ar
    22    21    22    1
    23    21    23   ar
    24     4    23   ar
    25    23    24    1
    26    24    25    1
    27    25    26    1
    28    26    27   ar
    29    27    28   ar
    30    28    29   ar
    31    29    30   ar
    32    30    31   ar
    33    26    31   ar
    34     1    32    1
    35     1    33    1
    36     1    34    1
    37     2    35    1
    38     2    36    1
    39     5    37    1
    40     7    38    1
    41     7    39    1
    42     8    40    1
    43     8    41    1
    44     9    42    1
    45     9    43    1
    46    10    44    1
    47    10    45    1
    48    11    46    1
    49    19    47    1
    50    19    48    1
    51    20    49    1
    52    25    50    1
    53    25    51    1
    54    27    52    1
    55    28    53    1
    56    29    54    1
    57    30    55    1
    58    31    56    1
