@<TRIPOS>MOLECULE
*****
 31 32 0 0 0
SMALL
GASTEIGER

@<TRIPOS>ATOM
      1 O           0.9818    0.0298    0.0344 O.2     1  UNL1       -0.2683
      2 C           2.2123    0.0798    0.0971 C.2     1  UNL1        0.2668
      3 N           2.9387    0.0985    1.2922 N.am    1  UNL1       -0.2029
      4 N           2.2390    0.0995    2.4747 N.2     1  UNL1       -0.1873
      5 C           2.8847    0.1556    3.5953 C.2     1  UNL1        0.0563
      6 C           2.1629    0.1513    4.9002 C.ar    1  UNL1        0.0373
      7 C           2.5869    1.0137    5.9213 C.ar    1  UNL1       -0.0312
      8 C           1.8930    1.0409    7.1377 C.ar    1  UNL1        0.0418
      9 CL          2.3925    2.1105    8.3927 Cl      1  UNL1       -0.0835
     10 C           0.7906    0.2138    7.3524 C.ar    1  UNL1       -0.0399
     11 C           0.3783   -0.6591    6.3461 C.ar    1  UNL1       -0.0182
     12 C           1.0697   -0.6960    5.1314 C.ar    1  UNL1        0.1256
     13 O           0.7110   -1.6207    4.1942 O.3     1  UNL1       -0.5061
     14 C           2.9969    0.1039   -1.1755 C.ar    1  UNL1        0.0797
     15 C           4.0826   -0.7654   -1.3641 C.ar    1  UNL1       -0.0460
     16 C           4.7764   -0.7774   -2.5831 C.ar    1  UNL1       -0.0608
     17 C           4.3926    0.0715   -3.6219 C.ar    1  UNL1       -0.0583
     18 C           3.3037    0.9266   -3.4536 C.ar    1  UNL1       -0.0194
     19 C           2.6084    0.9382   -2.2385 C.ar    1  UNL1        0.1290
     20 O           1.5625    1.8053   -2.0837 O.3     1  UNL1       -0.5060
     21 H           3.9496    0.1466    1.3040 H       1  UNL1        0.1776
     22 H           3.9854    0.2305    3.6418 H       1  UNL1        0.0852
     23 H           3.4311    1.6808    5.7731 H       1  UNL1        0.0640
     24 H           0.2543    0.2379    8.2990 H       1  UNL1        0.0633
     25 H          -0.4716   -1.3112    6.5276 H       1  UNL1        0.0655
     26 H          -0.1326   -2.0343    4.4329 H       1  UNL1        0.2922
     27 H           4.3733   -1.4665   -0.5870 H       1  UNL1        0.0626
     28 H           5.6110   -1.4600   -2.7317 H       1  UNL1        0.0618
     29 H           4.9378    0.0629   -4.5643 H       1  UNL1        0.0619
     30 H           3.0156    1.5796   -4.2734 H       1  UNL1        0.0654
     31 H           1.3285    2.2119   -2.9320 H       1  UNL1        0.2922
@<TRIPOS>BOND
     1     1     2    2
     2     2     3   am
     3     3     4    1
     4     4     5    2
     5     5     6    1
     6     6     7   ar
     7     7     8   ar
     8     8     9    1
     9     8    10   ar
    10    10    11   ar
    11    11    12   ar
    12     6    12   ar
    13    12    13    1
    14     2    14    1
    15    14    15   ar
    16    15    16   ar
    17    16    17   ar
    18    17    18   ar
    19    18    19   ar
    20    14    19   ar
    21    19    20    1
    22     3    21    1
    23     5    22    1
    24     7    23    1
    25    10    24    1
    26    11    25    1
    27    13    26    1
    28    15    27    1
    29    16    28    1
    30    17    29    1
    31    18    30    1
    32    20    31    1
