@<TRIPOS>MOLECULE
*****
 51 53 0 0 0
SMALL
GASTEIGER

@<TRIPOS>ATOM
      1 C           0.9436   -0.1196    0.0584 C.3     1  UNL1       -0.0203
      2 C           2.4527   -0.0156    0.0060 C.2     1  UNL1        0.0634
      3 N           3.1211    0.8976   -0.6453 N.2     1  UNL1       -0.1843
      4 N           2.4818    1.8609   -1.3899 N.am    1  UNL1       -0.2027
      5 C           3.2176    2.7514   -2.1634 C.2     1  UNL1        0.2633
      6 O           4.4484    2.7851   -2.2461 O.2     1  UNL1       -0.2685
      7 C           2.4362    3.7387   -2.9672 C.ar    1  UNL1        0.0385
      8 C           2.8482    4.0619   -4.2694 C.ar    1  UNL1       -0.0478
      9 C           2.2097    5.0864   -5.0014 C.ar    1  UNL1       -0.0398
     10 C           1.1075    5.7630   -4.4622 C.ar    1  UNL1        0.0337
     11 N           0.4088    6.7241   -5.2487 N.am    1  UNL1       -0.2815
     12 C          -0.7562    7.3806   -4.8648 C.2     1  UNL1        0.2485
     13 O          -1.3208    7.2770   -3.7748 O.2     1  UNL1       -0.2698
     14 C          -1.4118    8.3123   -5.8232 C.ar    1  UNL1        0.0399
     15 C          -1.8571    9.5323   -5.2784 C.ar    1  UNL1       -0.0494
     16 C          -2.6513   10.4042   -6.0219 C.ar    1  UNL1       -0.0610
     17 C          -2.9694   10.0902   -7.3374 C.ar    1  UNL1       -0.0615
     18 C          -2.5408    8.8802   -7.8880 C.ar    1  UNL1       -0.0581
     19 C          -1.7675    7.9703   -7.1398 C.ar    1  UNL1       -0.0383
     20 C          -1.3984    6.6574   -7.7606 C.3     1  UNL1       -0.0390
     21 C           0.7259    5.4399   -3.1549 C.ar    1  UNL1       -0.0398
     22 C           1.3729    4.4437   -2.4103 C.ar    1  UNL1       -0.0478
     23 C           3.2360   -1.0685    0.7579 C.ar    1  UNL1       -0.0008
     24 C           4.4306   -0.7034    1.3874 C.ar    1  UNL1       -0.0527
     25 C           5.2776   -1.6847    1.9091 C.ar    1  UNL1       -0.0594
     26 C           4.9065   -3.0306    1.8657 C.ar    1  UNL1       -0.0410
     27 C           3.7102   -3.4193    1.2579 C.ar    1  UNL1        0.0252
     28 N           3.2916   -4.7509    1.3327 N.pl3   1  UNL1       -0.3579
     29 C           2.8602   -2.4250    0.7437 C.ar    1  UNL1       -0.0321
     30 H           0.4387    0.6570   -0.5134 H       1  UNL1        0.0293
     31 H           0.6140   -0.0253    1.0968 H       1  UNL1        0.0293
     32 H           0.6110   -1.0766   -0.3488 H       1  UNL1        0.0293
     33 H           1.4751    1.8598   -1.4671 H       1  UNL1        0.1776
     34 H           3.6790    3.5151   -4.7140 H       1  UNL1        0.0626
     35 H           2.6034    5.3388   -5.9839 H       1  UNL1        0.0636
     36 H           0.7814    6.9140   -6.1703 H       1  UNL1        0.1551
     37 H          -1.6054    9.7902   -4.2503 H       1  UNL1        0.0625
     38 H          -3.0361   11.3137   -5.5672 H       1  UNL1        0.0618
     39 H          -3.5605   10.7825   -7.9327 H       1  UNL1        0.0618
     40 H          -2.8430    8.6395   -8.9061 H       1  UNL1        0.0620
     41 H          -1.7865    6.5717   -8.7804 H       1  UNL1        0.0278
     42 H          -1.8010    5.8255   -7.1746 H       1  UNL1        0.0278
     43 H          -0.3126    6.5754   -7.8367 H       1  UNL1        0.0278
     44 H          -0.0721    5.9739   -2.6526 H       1  UNL1        0.0636
     45 H           1.0494    4.2787   -1.3872 H       1  UNL1        0.0626
     46 H           4.7166    0.3436    1.4596 H       1  UNL1        0.0624
     47 H           6.2420   -1.4039    2.3259 H       1  UNL1        0.0618
     48 H           5.5719   -3.7752    2.2973 H       1  UNL1        0.0636
     49 H           4.0216   -5.4433    1.4756 H       1  UNL1        0.1423
     50 H           2.5728   -5.0430    0.6798 H       1  UNL1        0.1423
     51 H           1.9280   -2.7338    0.2838 H       1  UNL1        0.0642
@<TRIPOS>BOND
     1     1     2    1
     2     2     3    2
     3     3     4    1
     4     4     5   am
     5     5     6    2
     6     5     7    1
     7     7     8   ar
     8     8     9   ar
     9     9    10   ar
    10    10    11    1
    11    11    12   am
    12    12    13    2
    13    12    14    1
    14    14    15   ar
    15    15    16   ar
    16    16    17   ar
    17    17    18   ar
    18    18    19   ar
    19    14    19   ar
    20    19    20    1
    21    10    21   ar
    22    21    22   ar
    23     7    22   ar
    24     2    23    1
    25    23    24   ar
    26    24    25   ar
    27    25    26   ar
    28    26    27   ar
    29    27    28    1
    30    27    29   ar
    31    23    29   ar
    32     1    30    1
    33     1    31    1
    34     1    32    1
    35     4    33    1
    36     8    34    1
    37     9    35    1
    38    11    36    1
    39    15    37    1
    40    16    38    1
    41    17    39    1
    42    18    40    1
    43    20    41    1
    44    20    42    1
    45    20    43    1
    46    21    44    1
    47    22    45    1
    48    24    46    1
    49    25    47    1
    50    26    48    1
    51    28    49    1
    52    28    50    1
    53    29    51    1
