@<TRIPOS>MOLECULE
*****
 33 34 0 0 0
SMALL
GASTEIGER

@<TRIPOS>ATOM
      1 C           0.3737   -2.3516   -0.0066 C.3     1  UNL1       -0.0387
      2 C           1.0466   -1.0062    0.0011 C.ar    1  UNL1       -0.0365
      3 C           2.4484   -0.9364   -0.0008 C.ar    1  UNL1       -0.0571
      4 C           3.1192    0.2963    0.0003 C.ar    1  UNL1       -0.0493
      5 C           2.3974    1.4931   -0.0036 C.ar    1  UNL1        0.0381
      6 C           3.0297    2.8560   -0.0126 C.2     1  UNL1        0.2483
      7 O           2.2816    3.8321    0.0007 O.2     1  UNL1       -0.2699
      8 N           4.4162    2.9503   -0.0987 N.am    1  UNL1       -0.2815
      9 C           5.1138    4.1822   -0.0729 C.ar    1  UNL1        0.0337
     10 C           6.2679    4.3393   -0.8450 C.ar    1  UNL1       -0.0398
     11 C           7.0106    5.5304   -0.7839 C.ar    1  UNL1       -0.0479
     12 C           6.5847    6.5979    0.0170 C.ar    1  UNL1        0.0366
     13 C           7.2637    7.9296    0.0189 C.2     1  UNL1        0.2415
     14 N           8.3458    8.1171   -0.7956 N.am    1  UNL1       -0.3253
     15 O           6.8539    8.8612    0.7109 O.2     1  UNL1       -0.2704
     16 C           5.4432    6.4240    0.8102 C.ar    1  UNL1       -0.0479
     17 C           4.7124    5.2294    0.7581 C.ar    1  UNL1       -0.0398
     18 C           0.9916    1.4254    0.0046 C.ar    1  UNL1       -0.0354
     19 C           0.3245    0.1938    0.0060 C.ar    1  UNL1        0.0215
     20 BR         -1.5765    0.2153    0.0056 Br      1  UNL1       -0.0500
     21 H           1.1063   -3.1659   -0.0042 H       1  UNL1        0.0278
     22 H          -0.2389   -2.4685   -0.9067 H       1  UNL1        0.0278
     23 H          -0.2521   -2.4756    0.8832 H       1  UNL1        0.0278
     24 H           3.0362   -1.8533   -0.0045 H       1  UNL1        0.0621
     25 H           4.2025    0.2768    0.0076 H       1  UNL1        0.0625
     26 H           4.9669    2.1327   -0.3127 H       1  UNL1        0.1551
     27 H           6.5707    3.5775   -1.5591 H       1  UNL1        0.0636
     28 H           7.9119    5.5993   -1.3812 H       1  UNL1        0.0626
     29 H           8.7200    7.4345   -1.4346 H       1  UNL1        0.1453
     30 H           8.7507    9.0447   -0.8179 H       1  UNL1        0.1453
     31 H           5.1067    7.2165    1.4770 H       1  UNL1        0.0626
     32 H           3.8397    5.1205    1.3975 H       1  UNL1        0.0636
     33 H           0.4078    2.3458    0.0064 H       1  UNL1        0.0636
@<TRIPOS>BOND
     1     1     2    1
     2     2     3   ar
     3     3     4   ar
     4     4     5   ar
     5     5     6    1
     6     6     7    2
     7     6     8   am
     8     8     9    1
     9     9    10   ar
    10    10    11   ar
    11    11    12   ar
    12    12    13    1
    13    13    14   am
    14    13    15    2
    15    12    16   ar
    16    16    17   ar
    17     9    17   ar
    18     5    18   ar
    19    18    19   ar
    20     2    19   ar
    21    19    20    1
    22     1    21    1
    23     1    22    1
    24     1    23    1
    25     3    24    1
    26     4    25    1
    27     8    26    1
    28    10    27    1
    29    11    28    1
    30    14    29    1
    31    14    30    1
    32    16    31    1
    33    17    32    1
    34    18    33    1
