REMARK  4 active torsions:
REMARK  status: ('A' for Active; 'I' for Inactive)
REMARK    1  A    between atoms: C_11  and  C_12 
REMARK       I    between atoms: C_12  and  N_14 
REMARK    2  A    between atoms: N_14  and  C_15 
REMARK    3  A    between atoms: C_15  and  C_16 
REMARK    4  A    between atoms: C_16  and  C_17 
ROOT
ATOM      1  C   UNL d   1       8.673  -4.221   0.649  0.00  0.00     0.273 C 
ATOM      2  O   UNL d   1       9.046  -5.389   0.604  0.00  0.00    -0.266 OA
ATOM      3  N   UNL d   1       9.577  -3.244   0.959  0.00  0.00    -0.355 N 
ATOM      4  H   UNL d   1       9.300  -2.293   1.079  0.00  0.00     0.162 HD
ENDROOT
BRANCH   1   5
ATOM      5  C   UNL d   1       7.306  -3.740   0.395  0.00  0.00     0.163 A 
ATOM      6  N   UNL d   1       6.292  -4.580   0.096  0.00  0.00    -0.122 NA
ATOM      7  O   UNL d   1       5.148  -3.782  -0.082  0.00  0.00    -0.211 OA
ATOM      8  C   UNL d   1       5.500  -2.496   0.110  0.00  0.00     0.125 A 
ATOM      9  C   UNL d   1       4.646  -1.337   0.011  0.00  0.00     0.034 A 
ATOM     10  C   UNL d   1       6.823  -2.411   0.412  0.00  0.00     0.039 A 
ATOM     11  C   UNL d   1       5.337  -0.099  -0.008  0.00  0.00     0.082 A 
ATOM     12  C   UNL d   1       3.257  -1.333   0.008  0.00  0.00     0.024 A 
ATOM     13  C   UNL d   1       4.659   1.111  -0.069  0.00  0.00     0.038 A 
ATOM     14  O   UNL d   1       6.712  -0.003   0.019  0.00  0.00    -0.346 OA
ATOM     15  C   UNL d   1       3.269   1.105  -0.060  0.00  0.00     0.009 A 
ATOM     16  C   UNL d   1       2.561  -0.108  -0.021  0.00  0.00    -0.061 A 
ATOM     17  C   UNL d   1       1.060  -0.097  -0.012  0.00  0.00     0.048 C 
ATOM     18  C   UNL d   1       7.377  -1.083   0.695  0.00  0.00     0.220 C 
ENDBRANCH   1   5
BRANCH   3  19
ATOM     19  C   UNL d   1      10.947  -3.516   1.214  0.00  0.00     0.127 C 
BRANCH  19  20
ATOM     20  C   UNL d   1      11.493  -2.166   1.475  0.00  0.00     0.056 C 
BRANCH  20  21
ATOM     21  C   UNL d   1      12.907  -2.192   1.853  0.00  0.00    -0.048 C 
ATOM     22  C   UNL d   1      14.459  -1.607   2.204  0.00  0.00    -0.006 C 
ATOM     23  C   UNL d   1      15.893  -1.922   2.483  0.00  0.00     0.014 C 
ATOM     24  C   UNL d   1      14.288  -0.279   2.175  0.00  0.00     0.038 C 
ATOM     25  C   UNL d   1      16.627  -0.918   3.001  0.00  0.00     0.001 C 
ATOM     26  C   UNL d   1      16.163   0.483   3.044  0.00  0.00     0.002 C 
ATOM     27  C   UNL d   1      14.993   0.885   2.525  0.00  0.00     0.030 C 
ATOM     28  N   UNL d   1      13.400  -0.977   1.821  0.00  0.00    -0.385 N 
ATOM     29  C   UNL d   1      13.950  -2.945   1.914  0.00  0.00     0.155 C 
ATOM     30  H   UNL d   1      12.497  -0.415   1.806  0.00  0.00     0.160 HD
ENDBRANCH  20  21
ENDBRANCH  19  20
ENDBRANCH   3  19
TORSDOF 4
