@<TRIPOS>MOLECULE
*****
 36 36 0 0 0
SMALL
GASTEIGER

@<TRIPOS>ATOM
      1 C           1.2737   -3.0140    0.6342 C.3     1  UNL1       -0.0646
      2 C           2.6927   -2.4533    0.6650 C.3     1  UNL1       -0.0450
      3 C           3.0749   -0.9910    0.9822 C.3     1  UNL1        0.0339
      4 C           2.5217    0.0104   -0.0480 C.3     1  UNL1       -0.0541
      5 C           4.6425   -0.9116    0.9956 C.2     1  UNL1        0.2319
      6 O           5.2769   -0.1761    0.2338 O.2     1  UNL1       -0.2740
      7 N           5.3028   -1.7293    1.9072 N.am    1  UNL1       -0.2339
      8 N           6.7331   -1.7718    1.9212 N.am    1  UNL1       -0.2303
      9 C           7.3841   -2.6561    2.7775 C.2     1  UNL1        0.2637
     10 O           6.7514   -3.3798    3.5579 O.2     1  UNL1       -0.2685
     11 C           8.8901   -2.6779    2.7525 C.ar    1  UNL1        0.0795
     12 C           9.6198   -1.4772    2.7365 C.ar    1  UNL1       -0.0458
     13 C          11.0297   -1.4842    2.7808 C.ar    1  UNL1       -0.0579
     14 C          11.7397   -2.6884    2.8570 C.ar    1  UNL1       -0.0470
     15 C          13.2428   -2.7340    2.9138 C.3     1  UNL1       -0.0396
     16 C          11.0177   -3.8864    2.8798 C.ar    1  UNL1       -0.0165
     17 C           9.6134   -3.8808    2.8249 C.ar    1  UNL1        0.1292
     18 O           8.9660   -5.0860    2.8057 O.3     1  UNL1       -0.5060
     19 H           1.3661   -4.0567    0.2889 H       1  UNL1        0.0230
     20 H           0.5873   -2.5222   -0.0591 H       1  UNL1        0.0230
     21 H           0.8198   -3.0757    1.6287 H       1  UNL1        0.0230
     22 H           3.1369   -2.6889   -0.3072 H       1  UNL1        0.0270
     23 H           3.1927   -3.0717    1.4134 H       1  UNL1        0.0270
     24 H           2.7127   -0.6882    1.9737 H       1  UNL1        0.0392
     25 H           2.8678   -0.2272   -1.0608 H       1  UNL1        0.0237
     26 H           2.8679    1.0308    0.1693 H       1  UNL1        0.0237
     27 H           1.4272    0.0339   -0.0598 H       1  UNL1        0.0237
     28 H           4.8399   -2.3864    2.5342 H       1  UNL1        0.1728
     29 H           7.2070   -1.2079    1.2176 H       1  UNL1        0.1731
     30 H           9.1052   -0.5199    2.7256 H       1  UNL1        0.0626
     31 H          11.5671   -0.5366    2.7676 H       1  UNL1        0.0620
     32 H          13.6892   -1.7346    2.8970 H       1  UNL1        0.0278
     33 H          13.6357   -3.2912    2.0557 H       1  UNL1        0.0278
     34 H          13.5732   -3.2321    3.8327 H       1  UNL1        0.0278
     35 H          11.5675   -4.8239    2.9376 H       1  UNL1        0.0657
     36 H           9.6144   -5.8045    2.8885 H       1  UNL1        0.2922
@<TRIPOS>BOND
     1     1     2    1
     2     3     5    1
     3     5     6    2
     4     5     7   am
     5     7     8    1
     6     8     9   am
     7     9    10    2
     8     9    11    1
     9    11    12   ar
    10    12    13   ar
    11    13    14   ar
    12    14    15    1
    13    14    16   ar
    14    16    17   ar
    15    11    17   ar
    16    17    18    1
    17     3     4    1
    18     3     2    1
    19     1    19    1
    20     1    20    1
    21     1    21    1
    22     2    22    1
    23     2    23    1
    24     3    24    1
    25     4    25    1
    26     4    26    1
    27     4    27    1
    28     7    28    1
    29     8    29    1
    30    12    30    1
    31    13    31    1
    32    15    32    1
    33    15    33    1
    34    15    34    1
    35    16    35    1
    36    18    36    1
