@<TRIPOS>MOLECULE
*****
 51 54 0 0 0
SMALL
GASTEIGER

@<TRIPOS>ATOM
      1 O           1.0715    0.3694   -0.4846 O.2     1  UNL1       -0.2684
      2 C           2.2679    0.1429   -0.2736 C.2     1  UNL1        0.2656
      3 N           2.9990   -0.6104   -1.1709 N.am    1  UNL1       -0.3059
      4 C           2.2885   -1.3632   -2.1931 C.3     1  UNL1        0.0372
      5 C           3.2167   -2.0546   -3.1547 C.ar    1  UNL1       -0.0302
      6 C           3.1598   -3.4449   -3.3496 C.ar    1  UNL1       -0.0557
      7 C           4.0117   -4.0664   -4.2673 C.ar    1  UNL1       -0.0431
      8 C           4.9198   -3.3008   -4.9950 C.ar    1  UNL1        0.0410
      9 CL          5.9807   -4.0639   -6.1134 Cl      1  UNL1       -0.0835
     10 C           4.9747   -1.9196   -4.8235 C.ar    1  UNL1       -0.0431
     11 C           4.1242   -1.2989   -3.9084 C.ar    1  UNL1       -0.0557
     12 C           2.9543    0.5964    0.9005 C.ar    1  UNL1        0.1620
     13 N           4.1114    1.3205    0.9215 N.ar    1  UNL1       -0.2510
     14 N           4.4634    1.6809    2.1660 N.ar    1  UNL1       -0.0659
     15 N           3.5366    1.2079    2.9906 N.ar    1  UNL1       -0.1136
     16 C           2.6057    0.5429    2.2412 C.ar    1  UNL1        0.1771
     17 N           1.5237   -0.0437    2.8085 N.pl3   1  UNL1       -0.2961
     18 C           0.6098   -0.8929    2.1557 C.ar    1  UNL1        0.0327
     19 C          -0.7494   -0.5804    2.0755 C.ar    1  UNL1       -0.0371
     20 C          -1.5969   -1.3380    1.2496 C.ar    1  UNL1       -0.0182
     21 C          -1.0829   -2.3631    0.4477 C.ar    1  UNL1        0.1211
     22 O          -1.9540   -2.9357   -0.4419 O.3     1  UNL1       -0.4874
     23 C          -1.3909   -3.8791   -1.3634 C.3     1  UNL1        0.1146
     24 C          -2.4696   -4.4541   -2.2484 C.ar    1  UNL1       -0.0104
     25 C          -3.4431   -3.6360   -2.8356 C.ar    1  UNL1       -0.0554
     26 C          -4.5020   -4.2038   -3.5456 C.ar    1  UNL1       -0.0614
     27 C          -4.5417   -5.5804   -3.7623 C.ar    1  UNL1       -0.0617
     28 C          -3.5409   -6.3962   -3.2407 C.ar    1  UNL1       -0.0614
     29 C          -2.5106   -5.8364   -2.4865 C.ar    1  UNL1       -0.0554
     30 C           0.2592   -2.7054    0.5736 C.ar    1  UNL1       -0.0182
     31 C           1.0864   -1.9984    1.4424 C.ar    1  UNL1       -0.0371
     32 H           3.9690   -0.8334   -0.9962 H       1  UNL1        0.1494
     33 H           1.6181   -0.6900   -2.7391 H       1  UNL1        0.0512
     34 H           1.6523   -2.1049   -1.7005 H       1  UNL1        0.0512
     35 H           2.4479   -4.0574   -2.7990 H       1  UNL1        0.0621
     36 H           3.9593   -5.1425   -4.4147 H       1  UNL1        0.0632
     37 H           5.6699   -1.3190   -5.4030 H       1  UNL1        0.0632
     38 H           4.1605   -0.2179   -3.7903 H       1  UNL1        0.0621
     39 H           4.6737    1.6429    0.1445 H       1  UNL1        0.1909
     40 H           1.3760    0.0407    3.8094 H       1  UNL1        0.1537
     41 H          -1.1388    0.3157    2.5539 H       1  UNL1        0.0637
     42 H          -2.6529   -1.0859    1.1902 H       1  UNL1        0.0655
     43 H          -0.9440   -4.7028   -0.7932 H       1  UNL1        0.0748
     44 H          -0.6275   -3.4097   -1.9979 H       1  UNL1        0.0748
     45 H          -3.3970   -2.5554   -2.7149 H       1  UNL1        0.0621
     46 H          -5.3080   -3.5735   -3.9119 H       1  UNL1        0.0618
     47 H          -5.3538   -6.0166   -4.3373 H       1  UNL1        0.0618
     48 H          -3.5758   -7.4708   -3.3978 H       1  UNL1        0.0618
     49 H          -1.7491   -6.4898   -2.0669 H       1  UNL1        0.0621
     50 H           0.7214   -3.4728   -0.0335 H       1  UNL1        0.0655
     51 H           2.1468   -2.2354    1.4643 H       1  UNL1        0.0637
@<TRIPOS>BOND
     1     1     2    2
     2     2     3   am
     3     3     4    1
     4     4     5    1
     5     5     6   ar
     6     6     7   ar
     7     7     8   ar
     8     8     9    1
     9     8    10   ar
    10    10    11   ar
    11     5    11   ar
    12     2    12    1
    13    12    13   ar
    14    13    14   ar
    15    14    15   ar
    16    15    16   ar
    17    12    16   ar
    18    16    17    1
    19    17    18    1
    20    18    19   ar
    21    19    20   ar
    22    20    21   ar
    23    21    22    1
    24    22    23    1
    25    23    24    1
    26    24    25   ar
    27    25    26   ar
    28    26    27   ar
    29    27    28   ar
    30    28    29   ar
    31    24    29   ar
    32    21    30   ar
    33    30    31   ar
    34    18    31   ar
    35     3    32    1
    36     4    33    1
    37     4    34    1
    38     6    35    1
    39     7    36    1
    40    10    37    1
    41    11    38    1
    42    13    39    1
    43    17    40    1
    44    19    41    1
    45    20    42    1
    46    23    43    1
    47    23    44    1
    48    25    45    1
    49    26    46    1
    50    27    47    1
    51    28    48    1
    52    29    49    1
    53    30    50    1
    54    31    51    1
