@<TRIPOS>MOLECULE
*****
 52 55 0 0 0
SMALL
GASTEIGER

@<TRIPOS>ATOM
      1 O           1.0620   -0.0264    0.1130 O.2     1  UNL1       -0.2754
      2 C           2.2901    0.0322    0.0832 C.2     1  UNL1        0.2189
      3 N           3.0559   -0.8249    0.8636 N.am    1  UNL1       -0.3107
      4 C           2.3791   -1.8680    1.6235 C.3     1  UNL1        0.0424
      5 C           3.3127   -2.8011    2.3589 C.ar    1  UNL1        0.0333
      6 C           3.1348   -4.1903    2.3420 C.ar    1  UNL1       -0.0438
      7 C           3.9813   -5.0313    3.0838 C.ar    1  UNL1        0.0267
      8 C           4.9981   -4.4805    3.8661 C.ar    1  UNL1        0.2718
      9 N           5.9060   -5.1866    4.6183 N.pl3   1  UNL1       -0.2780
     10 C           5.9044   -5.0324    6.0770 C.3     1  UNL1        0.0173
     11 C           7.0361   -4.0864    6.4783 C.3     1  UNL1       -0.0371
     12 C           8.4343   -4.6956    6.3965 C.3     1  UNL1       -0.0516
     13 C           8.7803   -5.3460    5.0543 C.3     1  UNL1       -0.0516
     14 C           7.9594   -6.6062    4.7636 C.3     1  UNL1       -0.0371
     15 C           6.6257   -6.3312    4.0454 C.3     1  UNL1        0.0173
     16 N           5.1208   -3.1436    3.8495 N.ar    1  UNL1       -0.1978
     17 C           4.3371   -2.3096    3.1536 C.ar    1  UNL1        0.1757
     18 C           3.0753    1.0533   -0.7474 C.3     1  UNL1        0.0640
     19 C           3.0731    2.4493   -0.1004 C.3     1  UNL1       -0.0131
     20 C           2.3047    3.2906   -1.1302 C.3     1  UNL1        0.0599
     21 C           3.1900    3.5645   -2.3430 C.3     1  UNL1       -0.0242
     22 C           3.2433    2.1841   -3.0051 C.3     1  UNL1       -0.0235
     23 C           2.3605    1.3409   -2.0766 C.3     1  UNL1        0.0703
     24 O           1.3838    2.3303   -1.6800 O.3     1  UNL1       -0.3726
     25 H           4.0490   -0.8705    0.6841 H       1  UNL1        0.1490
     26 H           1.7354   -2.4343    0.9383 H       1  UNL1        0.0513
     27 H           1.7194   -1.3781    2.3515 H       1  UNL1        0.0513
     28 H           2.3256   -4.6341    1.7587 H       1  UNL1        0.0625
     29 H           3.8139   -6.1061    3.0712 H       1  UNL1        0.0698
     30 H           6.0181   -6.0013    6.5819 H       1  UNL1        0.0465
     31 H           4.9442   -4.6309    6.4236 H       1  UNL1        0.0465
     32 H           6.8648   -3.7386    7.5026 H       1  UNL1        0.0280
     33 H           7.0296   -3.1926    5.8496 H       1  UNL1        0.0280
     34 H           8.5630   -5.4243    7.2059 H       1  UNL1        0.0266
     35 H           9.1591   -3.8936    6.5865 H       1  UNL1        0.0266
     36 H           9.8407   -5.6247    5.0890 H       1  UNL1        0.0266
     37 H           8.6739   -4.6199    4.2398 H       1  UNL1        0.0266
     38 H           7.7876   -7.1620    5.6945 H       1  UNL1        0.0280
     39 H           8.5543   -7.2737    4.1278 H       1  UNL1        0.0280
     40 H           6.0103   -7.2387    4.0709 H       1  UNL1        0.0465
     41 H           6.8565   -6.1198    2.9937 H       1  UNL1        0.0465
     42 H           5.8961   -2.7613    4.3753 H       1  UNL1        0.4542
     43 H           4.5618   -1.2524    3.2482 H       1  UNL1        0.1379
     44 H           4.0928    0.6812   -0.9127 H       1  UNL1        0.0420
     45 H           4.0848    2.8441    0.0467 H       1  UNL1        0.0298
     46 H           2.5627    2.4522    0.8675 H       1  UNL1        0.0298
     47 H           1.8001    4.1708   -0.7251 H       1  UNL1        0.0596
     48 H           4.1777    3.9456   -2.0693 H       1  UNL1        0.0291
     49 H           2.7173    4.2869   -3.0191 H       1  UNL1        0.0291
     50 H           4.2623    1.7986   -3.0973 H       1  UNL1        0.0291
     51 H           2.8038    2.2434   -4.0078 H       1  UNL1        0.0291
     52 H           1.9032    0.4727   -2.5573 H       1  UNL1        0.0603
@<TRIPOS>UNITY_ATOM_ATTR
16 1
charge 1
@<TRIPOS>BOND
     1     1     2    2
     2     2     3   am
     3     3     4    1
     4     4     5    1
     5     5     6   ar
     6     6     7   ar
     7     7     8   ar
     8     8     9    1
     9     9    10    1
    10    10    11    1
    11    11    12    1
    12    12    13    1
    13    13    14    1
    14    14    15    1
    15     9    15    1
    16     8    16   ar
    17    16    17   ar
    18     5    17   ar
    19     2    18    1
    20    18    19    1
    21    19    20    1
    22    20    21    1
    23    21    22    1
    24    22    23    1
    25    18    23    1
    26    23    24    1
    27    20    24    1
    28     3    25    1
    29     4    26    1
    30     4    27    1
    31     6    28    1
    32     7    29    1
    33    10    30    1
    34    10    31    1
    35    11    32    1
    36    11    33    1
    37    12    34    1
    38    12    35    1
    39    13    36    1
    40    13    37    1
    41    14    38    1
    42    14    39    1
    43    15    40    1
    44    15    41    1
    45    16    42    1
    46    17    43    1
    47    18    44    1
    48    19    45    1
    49    19    46    1
    50    20    47    1
    51    21    48    1
    52    21    49    1
    53    22    50    1
    54    22    51    1
    55    23    52    1
