REMARK  4 active torsions:
REMARK  status: ('A' for Active; 'I' for Inactive)
REMARK    1  A    between atoms: C_6  and  N_7 
REMARK       I    between atoms: N_7  and  C_8 
REMARK    2  A    between atoms: C_10  and  C_8 
REMARK    3  A    between atoms: C_10  and  N_12 
REMARK       I    between atoms: N_12  and  C_13 
REMARK    4  A    between atoms: C_13  and  C_15 
ROOT
ATOM      1  C   UNL d   1      -1.918  -5.165  -0.027  0.00  0.00     0.173 C 
ATOM      2  C   UNL d   1      -1.928  -3.629  -0.094  0.00  0.00     0.042 C 
ENDROOT
BRANCH   1   3
ATOM      3  N   UNL d   1      -3.289  -5.696  -0.064  0.00  0.00    -0.344 N 
ATOM      4  C   UNL d   1      -3.545  -7.041  -0.187  0.00  0.00     0.252 C 
ATOM      5  O   UNL d   1      -2.657  -7.884  -0.308  0.00  0.00    -0.268 OA
ATOM      6  H   UNL d   1      -4.056  -5.041   0.026  0.00  0.00     0.163 HD
BRANCH   4   7
ATOM      7  C   UNL d   1      -4.944  -7.492  -0.102  0.00  0.00     0.032 A 
ATOM      8  C   UNL d   1      -5.896  -6.928  -0.950  0.00  0.00     0.018 A 
ATOM      9  C   UNL d   1      -7.202  -7.417  -0.937  0.00  0.00     0.025 A 
ATOM     10  C   UNL d   1      -7.553  -8.460  -0.077  0.00  0.00     0.034 A 
ATOM     11 CL   UNL d   1      -9.173  -9.037  -0.062  0.00  0.00    -0.084 Cl
ATOM     12  C   UNL d   1      -6.601  -9.037   0.763  0.00  0.00     0.025 A 
ATOM     13  C   UNL d   1      -5.288  -8.556   0.748  0.00  0.00     0.018 A 
ENDBRANCH   4   7
ENDBRANCH   1   3
BRANCH   1  14
ATOM     14  C   UNL d   1      -1.150  -5.546   1.267  0.00  0.00     0.244 C 
ATOM     15  N   UNL d   1      -1.143  -6.895   1.594  0.00  0.00    -0.325 N 
ATOM     16  H   UNL d   1      -1.574  -7.517   0.913  0.00  0.00     0.169 HD
ATOM     17  O   UNL d   1      -0.537  -4.667   1.875  0.00  0.00    -0.271 OA
BRANCH  15  18
ATOM     18  C   UNL d   1      -0.615  -7.479   2.772  0.00  0.00     0.041 A 
ATOM     19  C   UNL d   1       0.024  -6.666   3.717  0.00  0.00     0.030 A 
ATOM     20  C   UNL d   1       0.541  -7.167   4.899  0.00  0.00     0.003 A 
ATOM     21  C   UNL d   1       0.448  -8.519   5.160  0.00  0.00     0.007 A 
ATOM     22  C   UNL d   1      -0.174  -9.379   4.243  0.00  0.00    -0.054 A 
ATOM     23  C   UNL d   1      -0.220 -10.845   4.586  0.00  0.00     0.049 C 
ATOM     24  C   UNL d   1      -0.731  -8.867   3.037  0.00  0.00    -0.029 A 
ATOM     25  C   UNL d   1      -1.430  -9.842   2.120  0.00  0.00     0.051 C 
ENDBRANCH  15  18
ENDBRANCH   1  14
TORSDOF 4
