@<TRIPOS>MOLECULE
*****
 42 43 0 0 0
SMALL
GASTEIGER

@<TRIPOS>ATOM
      1 C           1.0295   -0.0409   -0.1717 C.3     1  UNL1       -0.0251
      2 C           2.5479    0.1033   -0.0112 C.2     1  UNL1        0.0237
      3 C           3.1100    0.9306    0.9124 C.2     1  UNL1        0.0184
      4 C           2.3593    1.7925    1.8855 C.2     1  UNL1        0.2426
      5 O           1.1320    1.8416    1.8804 O.2     1  UNL1       -0.2704
      6 N           3.1012    2.5901    2.7551 N.am    1  UNL1       -0.2817
      7 C           2.3960    3.4135    3.6847 C.ar    1  UNL1        0.0402
      8 C           1.3156    2.8645    4.3849 C.ar    1  UNL1       -0.0387
      9 C           0.4880    3.6492    5.1822 C.ar    1  UNL1       -0.0350
     10 C           0.7234    5.0164    5.3228 C.ar    1  UNL1        0.1179
     11 CL         -0.4393    5.8413    6.3022 Cl      1  UNL1       -0.0765
     12 C           1.8366    5.5809    4.6763 C.ar    1  UNL1        0.2930
     13 N           2.1532    7.0175    4.7885 N.pl3   1  UNL1        0.0812
     14 O           3.1491    7.4258    4.1730 O.2     1  UNL1        0.0415
     15 O           1.4418    7.7495    5.4852 O.co2   1  UNL1       -0.5760
     16 C           2.6903    4.7687    3.8675 C.ar    1  UNL1        0.0383
     17 N           3.2843   -0.6889   -0.9084 N.pl3   1  UNL1       -0.2684
     18 N           4.6829   -0.8320   -0.9551 N.am    1  UNL1       -0.2328
     19 C           5.2880   -1.6166   -1.9323 C.2     1  UNL1        0.2602
     20 O           4.6738   -2.2842   -2.7675 O.2     1  UNL1       -0.2687
     21 C           6.7899   -1.6046   -1.9343 C.ar    1  UNL1        0.0416
     22 C           7.5167   -1.6670   -0.7355 C.ar    1  UNL1       -0.0494
     23 C           8.9199   -1.6697   -0.7552 C.ar    1  UNL1       -0.0576
     24 C           9.6114   -1.6150   -1.9676 C.ar    1  UNL1       -0.0201
     25 C           8.8887   -1.5704   -3.1561 C.ar    1  UNL1        0.1176
     26 O           9.5160   -1.5265   -4.3682 O.3     1  UNL1       -0.5067
     27 C           7.4906   -1.5699   -3.1488 C.ar    1  UNL1       -0.0080
     28 H           0.4149    0.5551    0.4960 H       1  UNL1        0.0290
     29 H           0.7112   -1.0709    0.0181 H       1  UNL1        0.0290
     30 H           0.7111    0.2605   -1.1748 H       1  UNL1        0.0290
     31 H           4.1862    0.9921    0.9843 H       1  UNL1        0.0685
     32 H           4.0787    2.7719    2.5680 H       1  UNL1        0.1551
     33 H           1.0808    1.8050    4.2911 H       1  UNL1        0.0637
     34 H          -0.3611    3.1761    5.6716 H       1  UNL1        0.0635
     35 H           3.5181    5.2189    3.3227 H       1  UNL1        0.0704
     36 H           2.7628   -1.2898   -1.5610 H       1  UNL1        0.1696
     37 H           5.2292   -0.1930   -0.3968 H       1  UNL1        0.1730
     38 H           7.0052   -1.7534    0.2192 H       1  UNL1        0.0625
     39 H           9.4764   -1.7292    0.1784 H       1  UNL1        0.0619
     40 H          10.6989   -1.6179   -1.9638 H       1  UNL1        0.0654
     41 H          10.4791   -1.5693   -4.2444 H       1  UNL1        0.2921
     42 H           6.9564   -1.5395   -4.0950 H       1  UNL1        0.0661
@<TRIPOS>UNITY_ATOM_ATTR
13 1
charge 1
15 1
charge -1
@<TRIPOS>BOND
     1     1     2    1
     2     2     3    2
     3     3     4    1
     4     4     5    2
     5     4     6   am
     6     6     7    1
     7     7     8   ar
     8     8     9   ar
     9     9    10   ar
    10    10    11    1
    11    10    12   ar
    12    12    13    1
    13    13    14    2
    14    13    15    1
    15    12    16   ar
    16     7    16   ar
    17     2    17    1
    18    17    18    1
    19    18    19   am
    20    19    20    2
    21    19    21    1
    22    21    22   ar
    23    22    23   ar
    24    23    24   ar
    25    24    25   ar
    26    25    26    1
    27    25    27   ar
    28    21    27   ar
    29     1    28    1
    30     1    29    1
    31     1    30    1
    32     3    31    1
    33     6    32    1
    34     8    33    1
    35     9    34    1
    36    16    35    1
    37    17    36    1
    38    18    37    1
    39    22    38    1
    40    23    39    1
    41    24    40    1
    42    26    41    1
    43    27    42    1
