REMARK  10 active torsions:
REMARK  status: ('A' for Active; 'I' for Inactive)
REMARK    1  A    between atoms: C_2  and  N_1 
REMARK    2  A    between atoms: C_2  and  C_26 
REMARK    3  A    between atoms: C_2  and  C_3 
REMARK    4  A    between atoms: C_3  and  O_4 
REMARK    5  A    between atoms: O_4  and  C_5 
REMARK    6  A    between atoms: C_9  and  C_10 
REMARK    7  A    between atoms: C_11  and  C_12 
REMARK    8  A    between atoms: C_16  and  O_17 
REMARK    9  A    between atoms: O_17  and  C_18 
REMARK   10  A    between atoms: C_26  and  C_27 
ROOT
ATOM      1  C   UNL d   1      -0.966   0.898   1.374  0.00  0.00     0.087 A 
ATOM      2  C   UNL d   1      -1.510   2.110   1.766  0.00  0.00     0.152 A 
ATOM      3  N   UNL d   1      -2.824   2.297   2.005  0.00  0.00    -0.269 NA
ATOM      4  C   UNL d   1      -3.636   1.221   1.866  0.00  0.00     0.127 A 
ATOM      5  C   UNL d   1      -3.197  -0.044   1.486  0.00  0.00    -0.016 A 
ATOM      6  C   UNL d   1      -1.825  -0.188   1.250  0.00  0.00     0.051 A 
ENDROOT
BRANCH   1   7
ATOM      7  O   UNL d   1       0.387   0.821   1.206  0.00  0.00    -0.348 OA
BRANCH   7   8
ATOM      8  C   UNL d   1       0.792   0.051   0.076  0.00  0.00     0.208 C 
BRANCH   8   9
ATOM      9  C   UNL d   1       2.330  -0.018   0.104  0.00  0.00     0.211 C 
BRANCH   9  10
ATOM     10  C   UNL d   1       2.931   0.842  -1.001  0.00  0.00     0.071 C 
BRANCH  10  11
ATOM     11  C   UNL d   1       4.427   0.942  -1.090  0.00  0.00    -0.048 A 
ATOM     12  C   UNL d   1       4.990   1.676  -2.052  0.00  0.00    -0.006 A 
ATOM     13  C   UNL d   1       4.432   2.462  -3.098  0.00  0.00     0.014 A 
ATOM     14  C   UNL d   1       6.442   1.538  -1.878  0.00  0.00     0.038 A 
ATOM     15  C   UNL d   1       5.271   3.017  -3.980  0.00  0.00     0.001 A 
ATOM     16  C   UNL d   1       6.713   2.894  -3.837  0.00  0.00     0.002 A 
ATOM     17  C   UNL d   1       7.316   2.189  -2.858  0.00  0.00     0.030 A 
ATOM     18  N   UNL d   1       6.737   0.828  -0.850  0.00  0.00    -0.385 N 
ATOM     19  C   UNL d   1       5.496   0.360  -0.196  0.00  0.00     0.155 A 
ATOM     20  H   UNL d   1       7.700   0.631  -0.585  0.00  0.00     0.160 HD
ENDBRANCH  10  11
ENDBRANCH   9  10
BRANCH   9  21
ATOM     21  N   UNL d   1       2.752  -1.446  -0.092  0.00  0.00    -0.073 N 
ATOM     22  H   UNL d   1       3.760  -1.604  -0.098  0.00  0.00     0.274 HD
ATOM     23  H   UNL d   1       2.386  -1.839  -0.974  0.00  0.00     0.274 HD
ATOM     24  H   UNL d   1       2.386  -2.032   0.674  0.00  0.00     0.274 HD
ENDBRANCH   9  21
ENDBRANCH   8   9
ENDBRANCH   7   8
ENDBRANCH   1   7
BRANCH   5  25
ATOM     25  C   UNL d   1      -4.149  -1.155   1.344  0.00  0.00     0.014 C 
ATOM     26  C   UNL d   1      -3.810  -2.397   0.966  0.00  0.00     0.012 C 
BRANCH  26  27
ATOM     27  C   UNL d   1      -4.769  -3.489   0.821  0.00  0.00    -0.031 A 
ATOM     28  C   UNL d   1      -5.989  -3.342   0.176  0.00  0.00     0.031 A 
ATOM     29  C   UNL d   1      -6.804  -4.455   0.076  0.00  0.00     0.120 A 
ATOM     30  N   UNL d   1      -6.481  -5.672   0.571  0.00  0.00    -0.237 NA
ATOM     31  C   UNL d   1      -5.284  -5.802   1.185  0.00  0.00     0.170 A 
ATOM     32  C   UNL d   1      -4.396  -4.743   1.291  0.00  0.00     0.069 A 
BRANCH  31  33
ATOM     33  O   UNL d   1      -4.995  -7.080   1.621  0.00  0.00    -0.292 OA
BRANCH  33  34
ATOM     34  C   UNL d   1      -3.927  -7.289   2.466  0.00  0.00     0.077 A 
ATOM     35  C   UNL d   1      -3.072  -8.348   2.159  0.00  0.00     0.037 A 
ATOM     36  C   UNL d   1      -2.026  -8.672   3.026  0.00  0.00     0.003 A 
ATOM     37  C   UNL d   1      -1.788  -7.892   4.159  0.00  0.00     0.000 A 
ATOM     38  C   UNL d   1      -2.628  -6.821   4.457  0.00  0.00     0.003 A 
ATOM     39  C   UNL d   1      -3.722  -6.548   3.636  0.00  0.00     0.037 A 
ENDBRANCH  33  34
ENDBRANCH  31  33
ENDBRANCH  26  27
ENDBRANCH   5  25
TORSDOF 10
