REMARK  11 active torsions:
REMARK  status: ('A' for Active; 'I' for Inactive)
REMARK    1  A    between atoms: O_2  and  C_3 
REMARK    2  A    between atoms: C_6  and  C_7 
REMARK    3  A    between atoms: C_10  and  S_11 
REMARK    4  A    between atoms: S_11  and  C_12 
REMARK    5  A    between atoms: C_12  and  C_13 
REMARK       I    between atoms: C_13  and  N_15 
REMARK    6  A    between atoms: N_15  and  N_16 
REMARK    7  A    between atoms: C_17  and  C_18 
REMARK    8  A    between atoms: C_22  and  O_23 
REMARK    9  A    between atoms: O_23  and  C_24 
REMARK   10  A    between atoms: N_31  and  C_32 
REMARK   11  A    between atoms: C_35  and  O_36 
ROOT
ATOM      1  C   UNL d   1       5.705  -3.327   3.489  0.00  0.00     0.169 A 
ATOM      2  N   UNL d   1       6.118  -3.205   4.738  0.00  0.00    -0.128 NA
ATOM      3  N   UNL d   1       6.830  -4.356   5.079  0.00  0.00    -0.122 NA
ATOM      4  C   UNL d   1       6.867  -5.160   4.030  0.00  0.00     0.197 A 
ATOM      5  N   UNL d   1       6.152  -4.551   3.017  0.00  0.00    -0.271 N 
ENDROOT
BRANCH   4   6
ATOM      6  S   UNL d   1       7.821  -6.654   3.971  0.00  0.00    -0.080 SA
BRANCH   6   7
ATOM      7  C   UNL d   1       7.699  -7.386   2.308  0.00  0.00     0.187 C 
BRANCH   7   8
ATOM      8  C   UNL d   1       8.360  -8.722   2.040  0.00  0.00     0.247 C 
ATOM      9  O   UNL d   1       8.949  -9.357   2.924  0.00  0.00    -0.271 OA
ATOM     10  N   UNL d   1       8.176  -9.211   0.724  0.00  0.00    -0.247 N 
ATOM     11  H   UNL d   1       7.670  -8.704  -0.001  0.00  0.00     0.192 HD
BRANCH  10  12
ATOM     12  N   UNL d   1       8.708 -10.442   0.433  0.00  0.00    -0.184 NA
ATOM     13  C   UNL d   1       8.671 -10.910  -0.772  0.00  0.00     0.150 C 
BRANCH  13  14
ATOM     14  C   UNL d   1       9.269 -12.241  -1.061  0.00  0.00    -0.014 A 
ATOM     15  C   UNL d   1       9.928 -12.514  -2.261  0.00  0.00     0.013 A 
ATOM     16  C   UNL d   1      10.383 -13.815  -2.525  0.00  0.00     0.004 A 
ATOM     17  C   UNL d   1      10.209 -14.829  -1.577  0.00  0.00     0.037 A 
ATOM     18  C   UNL d   1       9.564 -14.550  -0.369  0.00  0.00     0.076 A 
ATOM     19  C   UNL d   1       9.126 -13.248  -0.109  0.00  0.00     0.050 A 
BRANCH  18  20
ATOM     20  O   UNL d   1       9.419 -15.603   0.510  0.00  0.00    -0.311 OA
BRANCH  20  21
ATOM     21  C   UNL d   1       8.601 -15.446   1.608  0.00  0.00     0.076 A 
ATOM     22  C   UNL d   1       9.137 -15.778   2.851  0.00  0.00     0.037 A 
ATOM     23  C   UNL d   1       8.337 -15.703   3.991  0.00  0.00     0.003 A 
ATOM     24  C   UNL d   1       7.030 -15.220   3.901  0.00  0.00     0.000 A 
ATOM     25  C   UNL d   1       6.498 -14.873   2.660  0.00  0.00     0.003 A 
ATOM     26  C   UNL d   1       7.269 -15.028   1.508  0.00  0.00     0.037 A 
ENDBRANCH  20  21
ENDBRANCH  18  20
ENDBRANCH  13  14
ENDBRANCH  10  12
ENDBRANCH   7   8
ENDBRANCH   6   7
ENDBRANCH   4   6
BRANCH   5  27
ATOM     27  C   UNL d   1       5.982  -4.974   1.704  0.00  0.00     0.043 C 
ATOM     28  C   UNL d   1       5.257  -6.134   1.454  0.00  0.00     0.033 C 
ATOM     29  C   UNL d   1       5.383  -6.715   0.199  0.00  0.00     0.039 C 
ATOM     30  C   UNL d   1       6.061  -6.041  -0.822  0.00  0.00     0.068 C 
ATOM     31  C   UNL d   1       6.682  -4.813  -0.566  0.00  0.00     0.039 C 
ATOM     32  C   UNL d   1       6.660  -4.276   0.709  0.00  0.00     0.033 C 
BRANCH  30  33
ATOM     33  O   UNL d   1       6.078  -6.686  -2.026  0.00  0.00    -0.356 OA
ATOM     34  C   UNL d   1       6.478  -5.878  -3.129  0.00  0.00     0.210 C 
ENDBRANCH  30  33
ENDBRANCH   5  27
BRANCH   1  35
ATOM     35  C   UNL d   1       4.836  -2.424   2.696  0.00  0.00     0.012 A 
ATOM     36  C   UNL d   1       5.222  -1.127   2.342  0.00  0.00     0.018 A 
ATOM     37  C   UNL d   1       4.378  -0.317   1.554  0.00  0.00     0.037 A 
ATOM     38  C   UNL d   1       3.168  -0.802   1.046  0.00  0.00     0.068 A 
ATOM     39  C   UNL d   1       2.795  -2.104   1.353  0.00  0.00     0.037 A 
ATOM     40  C   UNL d   1       3.617  -2.898   2.173  0.00  0.00     0.018 A 
BRANCH  38  41
ATOM     41  O   UNL d   1       2.507   0.027   0.181  0.00  0.00    -0.356 OA
ATOM     42  C   UNL d   1       1.086  -0.076   0.132  0.00  0.00     0.210 C 
ENDBRANCH  38  41
ENDBRANCH   1  35
TORSDOF 11
