@<TRIPOS>MOLECULE
*****
 47 51 0 0 0
SMALL
GASTEIGER

@<TRIPOS>ATOM
      1 O           0.1262   -0.8655    0.3579 O.2     1  UNL1        0.0414
      2 N           1.2161   -0.4493    0.6640 N.pl3   1  UNL1        0.0796
      3 O           1.5184    0.3511   -0.1807 O.co2   1  UNL1       -0.5760
      4 C           2.3572   -0.9508    1.6238 C.ar    1  UNL1        0.2732
      5 C           3.8540   -0.5605    1.9902 C.ar    1  UNL1        0.0159
      6 C           4.8865   -1.4506    2.3397 C.ar    1  UNL1       -0.0509
      7 C           4.4388   -2.7230    2.5348 C.ar    1  UNL1       -0.0329
      8 C           5.4623   -3.7992    2.8123 C.3     1  UNL1        0.0252
      9 N           4.9579   -5.0951    2.3851 N.3     1  UNL1       -0.2789
     10 C           4.0017   -5.7625    3.3150 C.3     1  UNL1        0.0656
     11 C           3.0151   -6.6143    2.5998 C.ar    1  UNL1        0.1588
     12 N           1.9459   -7.3765    3.0537 N.ar    1  UNL1       -0.2461
     13 C           1.3149   -7.9597    2.0232 C.ar    1  UNL1        0.2427
     14 N           1.9481   -7.5664    0.9193 N.ar    1  UNL1       -0.2471
     15 C           3.0175   -6.7751    1.2431 C.ar    1  UNL1        0.1479
     16 C           3.9301   -6.1979    0.2750 C.3     1  UNL1        0.0374
     17 C           4.8361   -5.1350    0.8593 C.3     1  UNL1        0.0979
     18 C           4.5692   -3.7499   -0.0306 C.ar    1  UNL1        0.2454
     19 N           3.5065   -2.9643   -0.3807 N.ar    1  UNL1       -0.1886
     20 C           4.1202   -1.5523   -0.6209 C.ar    1  UNL1        0.2219
     21 C           3.5220    0.1700   -0.7736 C.ar    1  UNL1        0.1291
     22 C           2.6129    0.3697   -1.9843 C.ar    1  UNL1        0.0567
     23 N           1.3735    1.4291   -2.0170 N.ar    1  UNL1       -0.2595
     24 C           1.0438    2.3523   -0.7242 C.ar    1  UNL1        0.0457
     25 C           1.8917    2.2603    0.5758 C.ar    1  UNL1        0.0465
     26 N           3.2167    1.2696    0.5157 N.ar    1  UNL1       -0.2487
     27 N           5.4440   -1.7878   -0.7236 N.ar    1  UNL1       -0.0544
     28 O           5.7196   -3.0793   -0.2872 O.2     1  UNL1       -0.3360
     29 C           3.0488   -3.0583    2.2265 C.ar    1  UNL1       -0.0509
     30 C           2.0637   -2.2530    1.6945 C.ar    1  UNL1        0.0159
     31 H           4.4152    0.3724    1.7974 H       1  UNL1        0.0685
     32 H           5.9654   -1.1953    2.2209 H       1  UNL1        0.0623
     33 H           5.7276   -3.7069    3.8698 H       1  UNL1        0.0476
     34 H           6.4136   -3.6534    2.2663 H       1  UNL1        0.0476
     35 H           3.4455   -5.0524    3.9466 H       1  UNL1        0.0513
     36 H           4.5539   -6.4241    3.9928 H       1  UNL1        0.0513
     37 H           1.6668   -7.5070    4.0245 H       1  UNL1        0.3104
     38 H           0.4613   -8.6248    2.0589 H       1  UNL1        0.1581
     39 H           1.6956   -7.8180   -0.0350 H       1  UNL1        0.3104
     40 H           3.2969   -5.7431   -0.4818 H       1  UNL1        0.0370
     41 H           4.5376   -7.0026   -0.1425 H       1  UNL1        0.0370
     42 H           5.8675   -5.4644    0.6255 H       1  UNL1        0.0565
     43 H           2.6157   -0.4245   -2.7868 H       1  UNL1        0.0852
     44 H           0.0531    2.9125   -0.7790 H       1  UNL1        0.0845
     45 H           1.2782    2.2763    1.6413 H       1  UNL1        0.0845
     46 H           2.8161   -4.0808    1.9947 H       1  UNL1        0.0623
     47 H           1.3566   -2.6383    0.9379 H       1  UNL1        0.0685
@<TRIPOS>UNITY_ATOM_ATTR
2 1
charge 1
3 1
charge -1
12 1
charge 1
@<TRIPOS>BOND
     1     1     2    2
     2     2     3    1
     3     2     4    1
     4     4     5   ar
     5     5     6   ar
     6     6     7   ar
     7     7     8    1
     8     8     9    1
     9     9    10    1
    10    10    11    1
    11    11    12   ar
    12    12    13   ar
    13    13    14   ar
    14    14    15   ar
    15    11    15   ar
    16    15    16    1
    17    16    17    1
    18     9    17    1
    19    18    19   ar
    20    19    20   ar
    21    20    21    1
    22    21    22   ar
    23    22    23   ar
    24    23    24   ar
    25    24    25   ar
    26    25    26   ar
    27    21    26   ar
    28    20    27   ar
    29    27    28   ar
    30    18    28   ar
    31     7    29   ar
    32    29    30   ar
    33     4    30   ar
    34    17    18    1
    35     5    31    1
    36     6    32    1
    37     8    33    1
    38     8    34    1
    39    10    35    1
    40    10    36    1
    41    12    37    1
    42    13    38    1
    43    14    39    1
    44    16    40    1
    45    16    41    1
    46    17    42    1
    47    22    43    1
    48    24    44    1
    49    25    45    1
    50    29    46    1
    51    30    47    1
