REMARK  7 active torsions:
REMARK  status: ('A' for Active; 'I' for Inactive)
REMARK    1  A    between atoms: C_2  and  O_3 
REMARK    2  A    between atoms: C_2  and  C_4 
REMARK    3  A    between atoms: C_4  and  N_5 
REMARK       I    between atoms: N_5  and  C_6 
REMARK    4  A    between atoms: C_6  and  C_8 
REMARK       I    between atoms: C_8  and  N_10 
REMARK    5  A    between atoms: N_10  and  C_11 
REMARK    6  A    between atoms: C_15  and  C_16 
REMARK       I    between atoms: C_16  and  N_18 
REMARK    7  A    between atoms: N_18  and  C_19 
ROOT
ATOM      1  C   UNL d   1       8.894  -3.726  -0.998  0.00  0.00     0.036 A 
ATOM      2  C   UNL d   1       9.603  -4.445  -1.965  0.00  0.00     0.029 A 
ATOM      3  C   UNL d   1      10.996  -4.570  -1.870  0.00  0.00     0.003 A 
ATOM      4  C   UNL d   1      11.683  -3.966  -0.816  0.00  0.00     0.017 A 
ATOM      5  C   UNL d   1      10.977  -3.267   0.173  0.00  0.00     0.034 A 
ATOM      6  C   UNL d   1       9.591  -3.146   0.063  0.00  0.00     0.046 A 
ENDROOT
BRANCH   1   7
ATOM      7  N   UNL d   1       7.484  -3.626  -1.040  0.00  0.00    -0.319 N 
ATOM      8  C   UNL d   1       6.787  -2.489  -0.631  0.00  0.00     0.313 C 
ATOM      9  O   UNL d   1       7.277  -1.418  -0.284  0.00  0.00    -0.262 OA
ATOM     10  H   UNL d   1       6.948  -4.391  -1.441  0.00  0.00     0.169 HD
BRANCH   8  11
ATOM     11  C   UNL d   1       5.244  -2.597  -0.675  0.00  0.00     0.309 C 
ATOM     12  N   UNL d   1       4.570  -1.431  -0.354  0.00  0.00    -0.350 N 
ATOM     13  H   UNL d   1       5.124  -0.618  -0.082  0.00  0.00     0.162 HD
ATOM     14  O   UNL d   1       4.712  -3.663  -0.975  0.00  0.00    -0.262 OA
BRANCH  12  15
ATOM     15  C   UNL d   1       3.118  -1.352  -0.325  0.00  0.00     0.154 C 
BRANCH  15  16
ATOM     16  C   UNL d   1       2.580   0.037   0.068  0.00  0.00     0.132 C 
ATOM     17  C   UNL d   1       1.054   0.056   0.070  0.00  0.00     0.041 C 
BRANCH  16  18
ATOM     18  O   UNL d   1       3.047   0.401   1.369  0.00  0.00    -0.394 OA
ATOM     19  H   UNL d   1       2.712  -0.256   2.004  0.00  0.00     0.210 HD
ENDBRANCH  16  18
ENDBRANCH  15  16
ENDBRANCH  12  15
ENDBRANCH   8  11
ENDBRANCH   1   7
BRANCH   5  20
ATOM     20  C   UNL d   1      11.731  -2.728   1.336  0.00  0.00     0.252 C 
ATOM     21  O   UNL d   1      12.951  -2.880   1.356  0.00  0.00    -0.268 OA
ATOM     22  N   UNL d   1      11.022  -2.102   2.350  0.00  0.00    -0.349 N 
ATOM     23  H   UNL d   1      10.022  -1.990   2.286  0.00  0.00     0.163 HD
BRANCH  22  24
ATOM     24  C   UNL d   1      11.666  -1.542   3.544  0.00  0.00     0.022 C 
ATOM     25  C   UNL d   1      12.371  -2.654   4.333  0.00  0.00     0.037 C 
ATOM     26  C   UNL d   1      12.658  -0.445   3.135  0.00  0.00     0.037 C 
ATOM     27  C   UNL d   1      10.603  -0.906   4.463  0.00  0.00     0.037 C 
ENDBRANCH  22  24
ENDBRANCH   5  20
TORSDOF 7
