REMARK  11 active torsions:
REMARK  status: ('A' for Active; 'I' for Inactive)
REMARK    1  A    between atoms: C_2  and  C_3 
REMARK    2  A    between atoms: C_3  and  C_4 
REMARK    3  A    between atoms: C_4  and  S_5 
REMARK    4  A    between atoms: S_5  and  C_6 
REMARK    5  A    between atoms: C_9  and  C_10 
REMARK       I    between atoms: C_10  and  N_12 
REMARK    6  A    between atoms: N_12  and  C_13 
REMARK    7  A    between atoms: C_13  and  C_14 
REMARK    8  A    between atoms: C_14  and  C_15 
REMARK    9  A    between atoms: C_14  and  N_25 
REMARK   10  A    between atoms: C_18  and  O_19 
REMARK   11  A    between atoms: C_21  and  O_22 
ROOT
ATOM      1  C   UNL d   1      11.088  -0.435   3.079  0.00  0.00     0.256 C 
ATOM      2  O   UNL d   1      11.683  -1.507   2.962  0.00  0.00    -0.268 OA
ATOM      3  N   UNL d   1      11.776   0.750   3.144  0.00  0.00    -0.354 N 
ATOM      4  H   UNL d   1      11.251   1.605   3.308  0.00  0.00     0.162 HD
ENDROOT
BRANCH   3   5
ATOM      5  C   UNL d   1      13.223   0.843   3.080  0.00  0.00     0.161 C 
BRANCH   5   6
ATOM      6  C   UNL d   1      13.738   2.310   3.303  0.00  0.00     0.237 C 
BRANCH   6   7
ATOM      7  C   UNL d   1      13.280   2.874   4.645  0.00  0.00    -0.023 C 
ATOM      8  C   UNL d   1      13.236   4.250   4.895  0.00  0.00     0.012 C 
ATOM      9  C   UNL d   1      13.125   4.712   6.209  0.00  0.00     0.040 C 
ATOM     10  C   UNL d   1      12.886   3.825   7.271  0.00  0.00     0.101 C 
ATOM     11  C   UNL d   1      12.847   2.450   7.016  0.00  0.00     0.102 C 
ATOM     12  C   UNL d   1      13.045   2.005   5.716  0.00  0.00     0.049 C 
BRANCH  10  13
ATOM     13  O   UNL d   1      12.708   4.442   8.482  0.00  0.00    -0.353 OA
ATOM     14  C   UNL d   1      12.258   3.617   9.555  0.00  0.00     0.210 C 
ENDBRANCH  10  13
BRANCH  11  15
ATOM     15  O   UNL d   1      12.674   1.572   8.045  0.00  0.00    -0.353 OA
ATOM     16  C   UNL d   1      12.656   0.177   7.776  0.00  0.00     0.210 C 
ENDBRANCH  11  15
ENDBRANCH   6   7
BRANCH   6  17
ATOM     17  N   UNL d   1      15.275   2.352   3.211  0.00  0.00    -0.069 N 
ATOM     18  C   UNL d   1      15.800   1.773   1.929  0.00  0.00     0.270 C 
ATOM     19  C   UNL d   1      15.845   3.740   3.390  0.00  0.00     0.270 C 
ATOM     20  H   UNL d   1      15.633   1.790   3.997  0.00  0.00     0.279 HD
ENDBRANCH   6  17
ENDBRANCH   5   6
ENDBRANCH   3   5
BRANCH   1  21
ATOM     21  C   UNL d   1       9.606  -0.382   3.134  0.00  0.00     0.090 A 
ATOM     22  C   UNL d   1       8.879  -1.546   3.002  0.00  0.00     0.139 A 
ATOM     23  N   UNL d   1       7.523  -1.596   2.990  0.00  0.00    -0.234 NA
ATOM     24  C   UNL d   1       6.861  -0.434   3.112  0.00  0.00     0.189 A 
ATOM     25  N   UNL d   1       7.462   0.748   3.265  0.00  0.00    -0.210 NA
ATOM     26  C   UNL d   1       8.810   0.739   3.277  0.00  0.00     0.146 A 
ATOM     27 CL   UNL d   1       9.410   2.345   3.507  0.00  0.00    -0.061 Cl
BRANCH  24  28
ATOM     28  S   UNL d   1       5.099  -0.478   3.280  0.00  0.00    -0.090 SA
BRANCH  28  29
ATOM     29  C   UNL d   1       4.560  -0.197   1.555  0.00  0.00     0.082 C 
BRANCH  29  30
ATOM     30  C   UNL d   1       3.026  -0.188   1.514  0.00  0.00     0.010 C 
BRANCH  30  31
ATOM     31  C   UNL d   1       2.485   0.024   0.097  0.00  0.00    -0.004 C 
ATOM     32  C   UNL d   1       0.963   0.026   0.084  0.00  0.00     0.005 C 
ENDBRANCH  30  31
ENDBRANCH  29  30
ENDBRANCH  28  29
ENDBRANCH  24  28
ENDBRANCH   1  21
TORSDOF 11
