@<TRIPOS>MOLECULE
*****
 63 66 0 0 0
SMALL
GASTEIGER

@<TRIPOS>ATOM
      1 C           1.8706    1.4712   -0.0159 C.3     1  UNL1       -0.0394
      2 C           0.5948    0.6673   -0.0022 C.ar    1  UNL1       -0.0458
      3 C          -0.6078    1.3879    0.0201 C.ar    1  UNL1       -0.0585
      4 C          -1.8112    0.7170    0.0090 C.ar    1  UNL1       -0.0597
      5 C          -1.8197   -0.6737   -0.0270 C.ar    1  UNL1       -0.0402
      6 C          -0.6496   -1.4562   -0.0047 C.ar    1  UNL1        0.0379
      7 N          -0.7387   -2.8955    0.0047 N.am    1  UNL1       -0.2689
      8 C          -1.9119   -3.6043    0.2370 C.2     1  UNL1        0.3082
      9 O          -2.9633   -3.0747    0.6112 O.2     1  UNL1       -0.2522
     10 N          -1.8389   -4.9743    0.0077 N.am    1  UNL1       -0.2675
     11 C          -3.0562   -5.7351   -0.0965 C.ar    1  UNL1        0.0576
     12 C          -3.2305   -6.9393    0.6396 C.ar    1  UNL1       -0.0174
     13 C          -4.3980   -7.7216    0.4738 C.ar    1  UNL1        0.0355
     14 N          -4.5174   -9.0248    1.0393 N.am    1  UNL1       -0.2814
     15 C          -5.5509   -9.9227    0.7599 C.2     1  UNL1        0.2497
     16 O          -6.5136   -9.7340    0.0145 O.2     1  UNL1       -0.2698
     17 C          -5.5280  -11.2677    1.3756 C.ar    1  UNL1        0.0553
     18 C          -6.0246  -12.3325    0.5884 C.ar    1  UNL1       -0.0482
     19 C          -6.2622  -13.5865    1.1502 C.ar    1  UNL1       -0.0610
     20 C          -5.9454  -13.8075    2.4856 C.ar    1  UNL1       -0.0603
     21 C          -5.4370  -12.7653    3.2655 C.ar    1  UNL1       -0.0427
     22 C          -5.2339  -11.4926    2.7200 C.ar    1  UNL1        0.0531
     23 CL         -4.6655  -10.2608    3.7868 Cl      1  UNL1       -0.0828
     24 C          -5.4215   -7.2116   -0.3150 C.ar    1  UNL1       -0.0386
     25 C          -5.2593   -6.0421   -1.0346 C.ar    1  UNL1       -0.0371
     26 C          -4.0863   -5.2894   -0.9631 C.ar    1  UNL1        0.0514
     27 N          -4.0186   -4.1909   -1.7959 N.pl3   1  UNL1       -0.3285
     28 C          -4.9490   -3.0867   -1.5837 C.3     1  UNL1        0.0122
     29 C          -5.6036   -2.7823   -2.9245 C.3     1  UNL1       -0.0372
     30 C          -4.5396   -2.5297   -4.0020 C.3     1  UNL1       -0.0502
     31 C          -3.4863   -3.6463   -4.0546 C.3     1  UNL1       -0.0372
     32 C          -2.8997   -3.9140   -2.6723 C.3     1  UNL1        0.0122
     33 C           0.5880   -0.7670   -0.0054 C.ar    1  UNL1       -0.0263
     34 C           1.9184   -1.4754    0.0209 C.3     1  UNL1       -0.0377
     35 H           1.6642    2.5489   -0.0265 H       1  UNL1        0.0278
     36 H           2.4507    1.2478   -0.9157 H       1  UNL1        0.0278
     37 H           2.4639    1.2641    0.8786 H       1  UNL1        0.0278
     38 H          -0.6174    2.4754    0.0418 H       1  UNL1        0.0620
     39 H          -2.7542    1.2561    0.0282 H       1  UNL1        0.0618
     40 H          -2.8074   -1.1117   -0.0732 H       1  UNL1        0.0636
     41 H           0.1150   -3.4267   -0.0444 H       1  UNL1        0.1564
     42 H          -0.9878   -5.4660    0.2276 H       1  UNL1        0.1564
     43 H          -2.4861   -7.2286    1.3767 H       1  UNL1        0.0655
     44 H          -3.7587   -9.3450    1.6292 H       1  UNL1        0.1551
     45 H          -6.2659  -12.1725   -0.4639 H       1  UNL1        0.0625
     46 H          -6.7185  -14.3765    0.5565 H       1  UNL1        0.0618
     47 H          -6.1034  -14.7891    2.9257 H       1  UNL1        0.0618
     48 H          -5.2298  -12.9435    4.3175 H       1  UNL1        0.0632
     49 H          -6.3785   -7.7023   -0.4296 H       1  UNL1        0.0637
     50 H          -6.0517   -5.7556   -1.7206 H       1  UNL1        0.0637
     51 H          -4.4030   -2.1969   -1.2531 H       1  UNL1        0.0464
     52 H          -5.7024   -3.2970   -0.8149 H       1  UNL1        0.0464
     53 H          -6.2589   -1.9103   -2.8279 H       1  UNL1        0.0280
     54 H          -6.2263   -3.6343   -3.2214 H       1  UNL1        0.0280
     55 H          -4.0388   -1.5758   -3.7940 H       1  UNL1        0.0266
     56 H          -5.0246   -2.4379   -4.9784 H       1  UNL1        0.0266
     57 H          -2.6841   -3.3786   -4.7491 H       1  UNL1        0.0280
     58 H          -3.9567   -4.5653   -4.4253 H       1  UNL1        0.0280
     59 H          -2.3628   -3.0210   -2.3346 H       1  UNL1        0.0464
     60 H          -2.1862   -4.7434   -2.7208 H       1  UNL1        0.0464
     61 H           1.8353   -2.5619    0.0307 H       1  UNL1        0.0278
     62 H           2.4733   -1.1950    0.9229 H       1  UNL1        0.0278
     63 H           2.5058   -1.2090   -0.8640 H       1  UNL1        0.0278
@<TRIPOS>BOND
     1     1     2    1
     2     2     3   ar
     3     3     4   ar
     4     4     5   ar
     5     5     6   ar
     6     6     7    1
     7     7     8   am
     8     8     9    2
     9     8    10   am
    10    10    11    1
    11    11    12   ar
    12    12    13   ar
    13    13    14    1
    14    14    15   am
    15    15    16    2
    16    15    17    1
    17    17    18   ar
    18    18    19   ar
    19    19    20   ar
    20    20    21   ar
    21    21    22   ar
    22    17    22   ar
    23    22    23    1
    24    13    24   ar
    25    24    25   ar
    26    25    26   ar
    27    11    26   ar
    28    26    27    1
    29    27    28    1
    30    28    29    1
    31    29    30    1
    32    30    31    1
    33    31    32    1
    34    27    32    1
    35     6    33   ar
    36     2    33   ar
    37    33    34    1
    38     1    35    1
    39     1    36    1
    40     1    37    1
    41     3    38    1
    42     4    39    1
    43     5    40    1
    44     7    41    1
    45    10    42    1
    46    12    43    1
    47    14    44    1
    48    18    45    1
    49    19    46    1
    50    20    47    1
    51    21    48    1
    52    24    49    1
    53    25    50    1
    54    28    51    1
    55    28    52    1
    56    29    53    1
    57    29    54    1
    58    30    55    1
    59    30    56    1
    60    31    57    1
    61    31    58    1
    62    32    59    1
    63    32    60    1
    64    34    61    1
    65    34    62    1
    66    34    63    1
