REMARK  4 active torsions:
REMARK  status: ('A' for Active; 'I' for Inactive)
REMARK       I    between atoms: C_2  and  N_3 
REMARK    1  A    between atoms: C_2  and  C_18 
REMARK    2  A    between atoms: N_3  and  C_4 
REMARK    3  A    between atoms: C_4  and  C_5 
REMARK    4  A    between atoms: C_8  and  N_9 
ROOT
ATOM      1  C   UNL d   1       3.322   3.651   0.892  0.00  0.00    -0.025 A 
ATOM      2  C   UNL d   1       4.625   3.439   1.347  0.00  0.00     0.014 A 
ATOM      3  C   UNL d   1       5.458   4.518   1.645  0.00  0.00     0.049 A 
ATOM      4  C   UNL d   1       4.992   5.831   1.521  0.00  0.00     0.102 A 
ATOM      5  N   UNL d   1       3.727   5.995   1.101  0.00  0.00    -0.352 N 
ATOM      6  C   UNL d   1       2.897   4.981   0.791  0.00  0.00     0.098 A 
ATOM      7  H   UNL d   1       3.438   6.959   0.953  0.00  0.00     0.166 HD
ENDROOT
BRANCH   1   8
ATOM      8  C   UNL d   1       2.368   2.511   0.585  0.00  0.00     0.162 C 
BRANCH   8   9
ATOM      9  N   UNL d   1       3.019   1.245   0.285  0.00  0.00    -0.353 N 
ATOM     10  C   UNL d   1       2.285   0.117  -0.005  0.00  0.00     0.253 C 
ATOM     11  O   UNL d   1       1.057   0.118  -0.058  0.00  0.00    -0.268 OA
ATOM     12  H   UNL d   1       4.016   1.197   0.140  0.00  0.00     0.163 HD
BRANCH  10  13
ATOM     13  C   UNL d   1       3.087  -1.113  -0.314  0.00  0.00     0.048 A 
ATOM     14  C   UNL d   1       2.693  -1.983  -1.425  0.00  0.00     0.022 A 
ATOM     15  C   UNL d   1       3.339  -3.135  -1.694  0.00  0.00     0.052 A 
ATOM     16  C   UNL d   1       4.436  -3.535  -0.885  0.00  0.00     0.133 A 
ATOM     17  N   UNL d   1       5.214  -4.594  -0.940  0.00  0.00    -0.241 NA
ATOM     18  N   UNL d   1       4.790  -2.694   0.166  0.00  0.00    -0.315 N 
ATOM     19  C   UNL d   1       6.100  -4.451   0.095  0.00  0.00     0.136 A 
ATOM     20  C   UNL d   1       5.862  -3.286   0.789  0.00  0.00     0.117 A 
ATOM     21  C   UNL d   1       4.126  -1.498   0.459  0.00  0.00     0.115 A 
ENDBRANCH  10  13
ENDBRANCH   8   9
ENDBRANCH   1   8
BRANCH   4  22
ATOM     22  N   UNL d   1       5.797   6.954   1.571  0.00  0.00    -0.367 N 
ATOM     23  C   UNL d   1       5.821   7.836   2.752  0.00  0.00     0.124 C 
ATOM     24  C   UNL d   1       5.316   9.224   2.334  0.00  0.00     0.020 C 
ATOM     25  C   UNL d   1       6.291  10.039   1.475  0.00  0.00     0.002 C 
ATOM     26  C   UNL d   1       6.825   9.312   0.241  0.00  0.00     0.002 C 
ATOM     27  C   UNL d   1       7.762   8.159   0.595  0.00  0.00     0.020 C 
ATOM     28  C   UNL d   1       7.044   6.830   0.803  0.00  0.00     0.124 C 
ENDBRANCH   4  22
TORSDOF 4
