REMARK  3 active torsions:
REMARK  status: ('A' for Active; 'I' for Inactive)
REMARK    1  A    between atoms: C_7  and  N_8 
REMARK    2  A    between atoms: N_8  and  N_9 
REMARK       I    between atoms: N_9  and  C_10 
REMARK       I    between atoms: C_10  and  N_12 
REMARK    3  A    between atoms: N_12  and  C_13 
ROOT
ATOM      1  N   UNL d   1      -3.077   0.002   0.035  0.00  0.00    -0.191 NA
ATOM      2  C   UNL d   1      -1.922   0.024  -0.020  0.00  0.00     0.099 C 
ATOM      3  C   UNL d   1      -0.487   0.010  -0.053  0.00  0.00     0.046 A 
ATOM      4  C   UNL d   1       0.235   1.199  -0.041  0.00  0.00     0.023 A 
ATOM      5  C   UNL d   1       1.626   1.145   0.012  0.00  0.00     0.004 A 
ATOM      6  C   UNL d   1       2.286  -0.101   0.056  0.00  0.00     0.031 A 
ATOM      7  C   UNL d   1       1.574  -1.321   0.014  0.00  0.00     0.049 A 
ATOM      8  C   UNL d   1       0.180  -1.225  -0.051  0.00  0.00     0.053 A 
ENDROOT
BRANCH   7   9
ATOM      9  N   UNL d   1       2.245  -2.557   0.052  0.00  0.00    -0.297 N 
ATOM     10  H   UNL d   1       3.264  -2.606   0.104  0.00  0.00     0.187 HD
BRANCH   9  11
ATOM     11  N   UNL d   1       1.554  -3.801  -0.002  0.00  0.00    -0.251 N 
ATOM     12  C   UNL d   1       2.292  -4.976  -0.008  0.00  0.00     0.335 C 
ATOM     13  O   UNL d   1       3.521  -4.964   0.030  0.00  0.00    -0.246 OA
ATOM     14  N   UNL d   1       1.539  -6.153  -0.044  0.00  0.00    -0.337 N 
ATOM     15  H   UNL d   1       0.530  -6.117  -0.054  0.00  0.00     0.164 HD
ATOM     16  H   UNL d   1       0.550  -3.802  -0.055  0.00  0.00     0.191 HD
BRANCH  14  17
ATOM     17  C   UNL d   1       2.213  -7.470   0.035  0.00  0.00     0.086 C 
ATOM     18  C   UNL d   1       2.935  -7.606   1.386  0.00  0.00     0.025 C 
ATOM     19  C   UNL d   1       3.734  -8.896   1.505  0.00  0.00     0.002 C 
ATOM     20  C   UNL d   1       2.854 -10.116   1.295  0.00  0.00     0.000 C 
ATOM     21  C   UNL d   1       2.131 -10.024  -0.045  0.00  0.00     0.002 C 
ATOM     22  C   UNL d   1       1.314  -8.718  -0.173  0.00  0.00     0.025 C 
ENDBRANCH  14  17
ENDBRANCH   9  11
ENDBRANCH   7   9
TORSDOF 3
