@<TRIPOS>MOLECULE
*****
 51 54 0 0 0
SMALL
GASTEIGER

@<TRIPOS>ATOM
      1 O          -1.6424    1.9903    0.0023 O.2     1  UNL1       -0.2658
      2 C          -1.2878    0.8148    0.0216 C.ar    1  UNL1        0.2725
      3 N          -2.1821   -0.2247    0.1041 N.ar    1  UNL1       -0.2421
      4 N          -1.8778   -1.5523    0.0462 N.ar    1  UNL1       -0.1703
      5 C          -0.6233   -1.8906   -0.0028 C.ar    1  UNL1        0.0992
      6 C          -0.3151   -3.3330   -0.1563 C.ar    1  UNL1        0.0092
      7 C           0.5122   -4.0169    0.7175 C.ar    1  UNL1       -0.0503
      8 C           0.9259   -5.3136    0.3922 C.ar    1  UNL1       -0.0336
      9 C           0.4357   -6.0260   -0.7431 C.ar    1  UNL1        0.1055
     10 N           0.9157   -7.3475   -0.8169 N.pl3   1  UNL1       -0.3335
     11 C           0.3779   -8.2774   -1.7774 C.3     1  UNL1        0.0494
     12 C           0.7206   -9.7517   -1.6825 C.3     1  UNL1       -0.0159
     13 N           0.0504  -10.5409   -2.8337 N.4     1  UNL1        0.2396
     14 C           0.4287  -12.0148   -2.7114 C.3     1  UNL1       -0.0078
     15 C          -0.2470  -12.8482   -3.8010 C.3     1  UNL1        0.0878
     16 O          -1.6661  -12.6899   -3.7490 O.3     1  UNL1       -0.3693
     17 C          -2.0319  -11.3393   -4.0396 C.3     1  UNL1        0.0878
     18 C          -1.4862  -10.3881   -2.9610 C.3     1  UNL1       -0.0078
     19 C          -0.4303   -5.2949   -1.6227 C.ar    1  UNL1        0.2943
     20 N          -1.0178   -5.7204   -2.9370 N.pl3   1  UNL1        0.0815
     21 O          -0.7863   -6.8341   -3.4203 O.2     1  UNL1        0.0415
     22 O          -1.7484   -4.9192   -3.5285 O.co2   1  UNL1       -0.5760
     23 C          -0.7939   -3.9667   -1.2959 C.ar    1  UNL1        0.0267
     24 C           0.4839   -0.9015    0.0017 C.ar    1  UNL1        0.0150
     25 C           1.8400   -1.2571    0.0036 C.ar    1  UNL1       -0.0518
     26 C           2.8284   -0.2755    0.0392 C.ar    1  UNL1       -0.0611
     27 C           2.4728    1.0691    0.0135 C.ar    1  UNL1       -0.0610
     28 C           1.1268    1.4334   -0.0275 C.ar    1  UNL1       -0.0487
     29 C           0.1350    0.4451   -0.0144 C.ar    1  UNL1        0.0499
     30 H          -3.1664    0.0183    0.1733 H       1  UNL1        0.1921
     31 H           0.8725   -3.5346    1.6247 H       1  UNL1        0.0625
     32 H           1.6673   -5.7656    1.0546 H       1  UNL1        0.0638
     33 H           1.4343   -7.7013   -0.0142 H       1  UNL1        0.1465
     34 H           0.8086   -7.9784   -2.7339 H       1  UNL1        0.0514
     35 H          -0.7106   -8.2203   -1.7047 H       1  UNL1        0.0514
     36 H           0.3994  -10.1931   -0.7362 H       1  UNL1        0.0830
     37 H           1.8007   -9.8817   -1.8126 H       1  UNL1        0.0830
     38 H           0.4390  -10.1790   -3.7178 H       1  UNL1        0.2036
     39 H           0.0947  -12.3314   -1.7180 H       1  UNL1        0.0837
     40 H           1.5185  -12.0782   -2.7836 H       1  UNL1        0.0837
     41 H          -0.0246  -13.9080   -3.6461 H       1  UNL1        0.0613
     42 H           0.1137  -12.5717   -4.7981 H       1  UNL1        0.0613
     43 H          -3.1255  -11.2900   -4.0769 H       1  UNL1        0.0613
     44 H          -1.6596  -11.0713   -5.0360 H       1  UNL1        0.0613
     45 H          -1.9070  -10.6198   -1.9782 H       1  UNL1        0.0837
     46 H          -1.7108   -9.3565   -3.2452 H       1  UNL1        0.0837
     47 H          -1.4470   -3.3855   -1.9481 H       1  UNL1        0.0692
     48 H           2.1725   -2.2878   -0.0089 H       1  UNL1        0.0624
     49 H           3.8755   -0.5653    0.0884 H       1  UNL1        0.0618
     50 H           3.2451    1.8341    0.0317 H       1  UNL1        0.0618
     51 H           0.8522    2.4863   -0.0496 H       1  UNL1        0.0625
@<TRIPOS>UNITY_ATOM_ATTR
13 1
charge 1
20 1
charge 1
22 1
charge -1
@<TRIPOS>BOND
     1     1     2    2
     2     2     3   ar
     3     3     4   ar
     4     4     5   ar
     5     5     6    1
     6     6     7   ar
     7     7     8   ar
     8     8     9   ar
     9     9    10    1
    10    10    11    1
    11    11    12    1
    12    12    13    1
    13    13    14    1
    14    14    15    1
    15    15    16    1
    16    16    17    1
    17    17    18    1
    18    13    18    1
    19     9    19   ar
    20    19    20    1
    21    20    21    2
    22    20    22    1
    23    19    23   ar
    24     6    23   ar
    25     5    24   ar
    26    24    25   ar
    27    25    26   ar
    28    26    27   ar
    29    27    28   ar
    30    28    29   ar
    31     2    29   ar
    32    24    29   ar
    33     3    30    1
    34     7    31    1
    35     8    32    1
    36    10    33    1
    37    11    34    1
    38    11    35    1
    39    12    36    1
    40    12    37    1
    41    13    38    1
    42    14    39    1
    43    14    40    1
    44    15    41    1
    45    15    42    1
    46    17    43    1
    47    17    44    1
    48    18    45    1
    49    18    46    1
    50    23    47    1
    51    25    48    1
    52    26    49    1
    53    27    50    1
    54    28    51    1
