REMARK  4 active torsions:
REMARK  status: ('A' for Active; 'I' for Inactive)
REMARK    1  A    between atoms: C_6  and  C_7 
REMARK       I    between atoms: C_7  and  N_9 
REMARK    2  A    between atoms: N_9  and  N_10 
REMARK       I    between atoms: N_10  and  C_11 
REMARK    3  A    between atoms: C_11  and  C_13 
REMARK    4  A    between atoms: C_23  and  O_24 
ROOT
ATOM      1  N   UNL d   1       1.887   5.204   0.096  0.00  0.00    -0.267 N 
ATOM      2  C   UNL d   1       3.096   6.025  -0.035  0.00  0.00     0.244 C 
ATOM      3  O   UNL d   1       4.206   5.525  -0.069  0.00  0.00    -0.271 OA
ATOM      4  H   UNL d   1       0.950   5.597   0.175  0.00  0.00     0.190 HD
ENDROOT
BRANCH   1   5
ATOM      5  N   UNL d   1       1.871   3.753   0.030  0.00  0.00    -0.263 N 
ATOM      6  C   UNL d   1       0.634   3.035   0.018  0.00  0.00     0.272 C 
ATOM      7  O   UNL d   1      -0.454   3.588   0.020  0.00  0.00    -0.266 OA
ATOM      8  H   UNL d   1       2.782   3.319   0.032  0.00  0.00     0.190 HD
BRANCH   6   9
ATOM      9  C   UNL d   1       0.664   1.502   0.007  0.00  0.00     0.067 A 
ATOM     10  C   UNL d   1       1.883   0.813   0.006  0.00  0.00     0.020 A 
ATOM     11  C   UNL d   1       1.935  -0.589  -0.007  0.00  0.00     0.002 A 
ATOM     12  C   UNL d   1       0.767  -1.347  -0.009  0.00  0.00     0.009 A 
ATOM     13  C   UNL d   1      -0.477  -0.711  -0.001  0.00  0.00    -0.028 A 
ATOM     14  C   UNL d   1      -1.729  -1.555   0.004  0.00  0.00     0.051 C 
ATOM     15  C   UNL d   1      -0.522   0.708   0.002  0.00  0.00     0.087 A 
BRANCH  15  16
ATOM     16  O   UNL d   1      -1.786   1.250  -0.003  0.00  0.00    -0.359 OA
ATOM     17  H   UNL d   1      -1.707   2.226  -0.009  0.00  0.00     0.217 HD
ENDBRANCH  15  16
ENDBRANCH   6   9
ENDBRANCH   1   5
BRANCH   2  18
ATOM     18  C   UNL d   1       2.788   7.662  -0.030  0.00  0.00     0.043 C 
ATOM     19  C   UNL d   1       3.661   9.083  -0.306  0.00  0.00     0.024 C 
ATOM     20  C   UNL d   1       2.681  10.342  -0.164  0.00  0.00    -0.013 C 
ATOM     21  C   UNL d   1       1.614  10.167  -1.255  0.00  0.00     0.009 C 
ATOM     22  C   UNL d   1       2.173  10.321   1.286  0.00  0.00     0.009 C 
ATOM     23  C   UNL d   1       0.796   8.927  -0.962  0.00  0.00    -0.013 C 
ATOM     24  C   UNL d   1       0.234   8.971   0.468  0.00  0.00     0.009 C 
ATOM     25  C   UNL d   1       1.704   7.731  -1.126  0.00  0.00     0.024 C 
ATOM     26  C   UNL d   1       1.348   9.064   1.520  0.00  0.00    -0.013 C 
ATOM     27  C   UNL d   1       2.261   7.854   1.410  0.00  0.00     0.024 C 
ENDBRANCH   2  18
TORSDOF 4
