@<TRIPOS>MOLECULE
*****
 37 38 0 0 0
SMALL
GASTEIGER

@<TRIPOS>ATOM
      1 C          -0.9890   -3.8400    1.0225 C.3     1  UNL1        0.0789
      2 O          -0.1414   -2.6956    1.1049 O.3     1  UNL1       -0.4933
      3 C           0.4943   -2.3534   -0.0687 C.ar    1  UNL1        0.1409
      4 C          -0.1504   -2.4226   -1.3234 C.ar    1  UNL1       -0.0167
      5 C           0.5078   -2.0458   -2.4951 C.ar    1  UNL1       -0.0398
      6 C           1.7738   -1.5157   -2.3988 C.ar    1  UNL1        0.0429
      7 CL          2.6547   -1.0546   -3.8042 Cl      1  UNL1       -0.0835
      8 C           2.3458   -1.3236   -1.1454 C.ar    1  UNL1       -0.0189
      9 C           1.7941   -1.8091    0.0446 C.ar    1  UNL1        0.0713
     10 N           2.4882   -1.8240    1.2570 N.pl3   1  UNL1       -0.3303
     11 C           3.8767   -1.3664    1.5168 C.3     1  UNL1        0.0949
     12 C           4.8716   -1.7265    0.3904 C.3     1  UNL1       -0.0381
     13 C           4.5183   -2.0430    2.7709 C.2     1  UNL1        0.2382
     14 O           5.5162   -2.7544    2.6448 O.2     1  UNL1       -0.2734
     15 N           3.9719   -1.7893    4.0227 N.am    1  UNL1       -0.2689
     16 C           4.5696   -2.4082    5.1462 C.ar    1  UNL1        0.1250
     17 C           5.9583   -2.3564    5.2981 C.ar    1  UNL1       -0.0201
     18 C           6.5827   -3.0895    6.3022 C.ar    1  UNL1       -0.0387
     19 C           5.7995   -3.8567    7.1441 C.ar    1  UNL1        0.0592
     20 CL          6.5300   -4.8245    8.3588 Cl      1  UNL1       -0.0820
     21 C           4.4204   -3.8113    6.9719 C.ar    1  UNL1        0.0480
     22 N           3.7788   -3.0738    6.0135 N.ar    1  UNL1       -0.2387
     23 H          -1.4715   -3.9695    1.9963 H       1  UNL1        0.0660
     24 H          -0.3945   -4.7346    0.8135 H       1  UNL1        0.0660
     25 H          -1.7942   -3.7311    0.2898 H       1  UNL1        0.0660
     26 H          -1.1813   -2.7431   -1.4184 H       1  UNL1        0.0655
     27 H           0.0194   -2.1141   -3.4618 H       1  UNL1        0.0633
     28 H           3.2319   -0.7207   -1.1495 H       1  UNL1        0.0652
     29 H           1.9247   -2.1276    2.0493 H       1  UNL1        0.1469
     30 H           3.8736   -0.2821    1.6806 H       1  UNL1        0.0591
     31 H           4.7763   -2.7848    0.1182 H       1  UNL1        0.0252
     32 H           5.9056   -1.5297    0.6902 H       1  UNL1        0.0252
     33 H           4.7986   -1.1338   -0.5126 H       1  UNL1        0.0252
     34 H           2.9919   -1.5645    4.1017 H       1  UNL1        0.1563
     35 H           6.5643   -1.7656    4.6183 H       1  UNL1        0.0652
     36 H           7.6644   -3.0688    6.3909 H       1  UNL1        0.0634
     37 H           3.7721   -4.4018    7.6154 H       1  UNL1        0.0845
@<TRIPOS>BOND
     1     1     2    1
     2     2     3    1
     3     3     4   ar
     4     4     5   ar
     5     5     6   ar
     6     6     7    1
     7     6     8   ar
     8     8     9   ar
     9     3     9   ar
    10     9    10    1
    11    11    13    1
    12    13    14    2
    13    13    15   am
    14    15    16    1
    15    16    17   ar
    16    17    18   ar
    17    18    19   ar
    18    19    20    1
    19    19    21   ar
    20    21    22   ar
    21    16    22   ar
    22    11    12    1
    23    11    10    1
    24     1    23    1
    25     1    24    1
    26     1    25    1
    27     4    26    1
    28     5    27    1
    29     8    28    1
    30    10    29    1
    31    11    30    1
    32    12    31    1
    33    12    32    1
    34    12    33    1
    35    15    34    1
    36    17    35    1
    37    18    36    1
    38    21    37    1
