REMARK  8 active torsions:
REMARK  status: ('A' for Active; 'I' for Inactive)
REMARK    1  A    between atoms: C_3  and  C_4 
REMARK       I    between atoms: C_4  and  N_6 
REMARK    2  A    between atoms: N_6  and  C_7 
REMARK    3  A    between atoms: C_14  and  C_15 
REMARK    4  A    between atoms: C_18  and  O_19 
REMARK    5  A    between atoms: C_24  and  C_25 
REMARK    6  A    between atoms: C_25  and  C_26 
REMARK    7  A    between atoms: C_26  and  C_27 
REMARK    8  A    between atoms: C_27  and  O_28 
ROOT
ATOM      1  C   UNL d   1       1.000   0.448  -0.202  0.00  0.00     0.070 C 
ATOM      2  C   UNL d   1       2.451   0.078  -0.104  0.00  0.00     0.037 C 
ATOM      3  C   UNL d   1       2.994  -1.167  -0.002  0.00  0.00     0.062 C 
ATOM      4  C   UNL d   1       4.590  -1.308   0.066  0.00  0.00     0.202 C 
ATOM      5  N   UNL d   1       5.248   0.034   0.080  0.00  0.00    -0.083 N 
ATOM      6  N   UNL d   1       6.585   0.267   0.193  0.00  0.00    -0.140 NA
ATOM      7  C   UNL d   1       6.617   1.601   0.370  0.00  0.00     0.166 A 
ATOM      8  N   UNL d   1       5.400   2.221   0.220  0.00  0.00    -0.046 NA
ATOM      9  C   UNL d   1       4.576   1.220   0.035  0.00  0.00     0.726 A 
ATOM     10  N   UNL d   1       3.252   1.213  -0.144  0.00  0.00    -0.192 N 
ATOM     11  H   UNL d   1       2.793   2.107  -0.298  0.00  0.00     0.184 HD
ENDROOT
BRANCH   3  12
ATOM     12  C   UNL d   1       2.213  -2.482  -0.126  0.00  0.00     0.256 C 
ATOM     13  O   UNL d   1       2.767  -3.441  -0.623  0.00  0.00    -0.267 OA
ATOM     14  N   UNL d   1       0.881  -2.567   0.263  0.00  0.00    -0.323 N 
ATOM     15  H   UNL d   1       0.242  -1.815   0.198  0.00  0.00     0.169 HD
BRANCH  14  16
ATOM     16  C   UNL d   1       0.153  -3.767   0.289  0.00  0.00     0.041 A 
ATOM     17  C   UNL d   1      -0.991  -3.870  -0.518  0.00  0.00     0.030 A 
ATOM     18  C   UNL d   1      -1.801  -4.997  -0.427  0.00  0.00     0.002 A 
ATOM     19  C   UNL d   1      -1.488  -5.990   0.499  0.00  0.00     0.001 A 
ATOM     20  C   UNL d   1      -0.384  -5.849   1.347  0.00  0.00     0.009 A 
ATOM     21  C   UNL d   1       0.440  -4.726   1.262  0.00  0.00    -0.035 A 
ATOM     22  C   UNL d   1       1.533  -4.501   2.263  0.00  0.00     0.050 C 
ENDBRANCH  14  16
ENDBRANCH   3  12
BRANCH   4  23
ATOM     23  C   UNL d   1       5.125  -2.197   1.221  0.00  0.00    -0.028 C 
ATOM     24  C   UNL d   1       4.910  -3.586   1.214  0.00  0.00     0.012 C 
ATOM     25  C   UNL d   1       5.201  -4.396   2.314  0.00  0.00     0.037 C 
ATOM     26  C   UNL d   1       5.906  -3.864   3.374  0.00  0.00     0.065 C 
ATOM     27  C   UNL d   1       6.289  -2.536   3.352  0.00  0.00     0.037 C 
ATOM     28  C   UNL d   1       5.867  -1.704   2.309  0.00  0.00     0.012 C 
BRANCH  26  29
ATOM     29  O   UNL d   1       6.263  -4.623   4.444  0.00  0.00    -0.361 OA
ATOM     30  H   UNL d   1       5.948  -5.529   4.291  0.00  0.00     0.217 HD
ENDBRANCH  26  29
ENDBRANCH   4  23
BRANCH   7  31
ATOM     31  C   UNL d   1       7.855   2.376   0.710  0.00  0.00     0.085 C 
BRANCH  31  32
ATOM     32  C   UNL d   1       9.083   1.500   0.962  0.00  0.00     0.034 C 
BRANCH  32  33
ATOM     33  C   UNL d   1      10.339   2.312   1.245  0.00  0.00     0.164 C 
BRANCH  33  34
ATOM     34  O   UNL d   1      11.448   1.440   1.435  0.00  0.00    -0.401 OA
ATOM     35  H   UNL d   1      11.233   0.841   2.170  0.00  0.00     0.209 HD
ENDBRANCH  33  34
ENDBRANCH  32  33
ENDBRANCH  31  32
ENDBRANCH   7  31
TORSDOF 8
