REMARK  4 active torsions:
REMARK  status: ('A' for Active; 'I' for Inactive)
REMARK    1  A    between atoms: C_5  and  C_6 
REMARK       I    between atoms: C_6  and  N_8 
REMARK    2  A    between atoms: N_8  and  N_9 
REMARK       I    between atoms: N_9  and  C_10 
REMARK    3  A    between atoms: C_12  and  C_10 
REMARK    4  A    between atoms: C_18  and  O_19 
ROOT
ATOM      1  C   UNL d   1      -3.875 -11.365  -0.314  0.00  0.00     0.272 C 
ATOM      2  O   UNL d   1      -3.339 -11.224  -1.420  0.00  0.00    -0.266 OA
ATOM      3  N   UNL d   1      -4.427 -10.292   0.389  0.00  0.00    -0.263 N 
ATOM      4  H   UNL d   1      -4.879 -10.355   1.295  0.00  0.00     0.190 HD
ENDROOT
BRANCH   3   5
ATOM      5  N   UNL d   1      -4.309  -8.984  -0.127  0.00  0.00    -0.267 N 
ATOM      6  C   UNL d   1      -4.901  -7.888   0.519  0.00  0.00     0.240 C 
ATOM      7  O   UNL d   1      -5.478  -7.989   1.604  0.00  0.00    -0.271 OA
ATOM      8  H   UNL d   1      -3.853  -8.921  -1.036  0.00  0.00     0.190 HD
BRANCH   6   9
ATOM      9  C   UNL d   1      -4.706  -6.557  -0.238  0.00  0.00     0.083 C 
ATOM     10  C   UNL d   1      -5.336  -5.256   0.335  0.00  0.00     0.041 C 
ATOM     11  C   UNL d   1      -5.236  -4.099  -0.651  0.00  0.00    -0.030 C 
ATOM     12  C   UNL d   1      -4.972  -4.267  -1.957  0.00  0.00    -0.031 C 
ATOM     13  C   UNL d   1      -4.792  -5.611  -2.583  0.00  0.00     0.027 C 
ATOM     14  C   UNL d   1      -5.228  -6.744  -1.669  0.00  0.00     0.018 C 
ENDBRANCH   6   9
ENDBRANCH   3   5
BRANCH   1  15
ATOM     15  C   UNL d   1      -3.932 -12.740   0.298  0.00  0.00     0.066 A 
ATOM     16  C   UNL d   1      -4.514 -12.955   1.557  0.00  0.00     0.020 A 
ATOM     17  C   UNL d   1      -4.575 -14.238   2.124  0.00  0.00     0.008 A 
ATOM     18  C   UNL d   1      -4.064 -15.345   1.443  0.00  0.00    -0.059 A 
ATOM     19  C   UNL d   1      -4.137 -16.732   2.015  0.00  0.00     0.048 C 
ATOM     20  C   UNL d   1      -3.471 -15.145   0.194  0.00  0.00     0.044 A 
ATOM     21  C   UNL d   1      -3.398 -13.862  -0.368  0.00  0.00     0.082 A 
BRANCH  21  22
ATOM     22  O   UNL d   1      -2.773 -13.809  -1.588  0.00  0.00    -0.360 OA
ATOM     23  H   UNL d   1      -2.763 -12.876  -1.890  0.00  0.00     0.217 HD
ENDBRANCH  21  22
ENDBRANCH   1  15
TORSDOF 4
