REMARK  3 active torsions:
REMARK  status: ('A' for Active; 'I' for Inactive)
REMARK       I    between atoms: N_1  and  C_2 
REMARK       I    between atoms: C_2  and  N_4 
REMARK    1  A    between atoms: N_4  and  C_5 
REMARK    2  A    between atoms: C_8  and  O_9 
REMARK    3  A    between atoms: O_9  and  C_10 
ROOT
ATOM      1  C   UNL d   1       4.631  -0.842   0.905  0.00  0.00     0.036 A 
ATOM      2  C   UNL d   1       5.358  -2.006   1.175  0.00  0.00     0.032 A 
ATOM      3  C   UNL d   1       6.763  -1.951   1.292  0.00  0.00     0.039 A 
ATOM      4  C   UNL d   1       7.447  -0.743   1.096  0.00  0.00     0.076 A 
ATOM      5  C   UNL d   1       6.704   0.409   0.851  0.00  0.00     0.039 A 
ATOM      6  C   UNL d   1       5.318   0.360   0.765  0.00  0.00     0.032 A 
ENDROOT
BRANCH   4   7
ATOM      7  O   UNL d   1       8.829  -0.790   1.097  0.00  0.00    -0.304 OA
BRANCH   7   8
ATOM      8  C   UNL d   1       9.541   0.385   0.967  0.00  0.00     0.159 A 
ATOM      9  C   UNL d   1      10.466   0.514  -0.072  0.00  0.00     0.195 A 
ATOM     10  F   UNL d   1      10.574  -0.439  -1.009  0.00  0.00    -0.200 F 
ATOM     11  C   UNL d   1      11.272   1.650  -0.163  0.00  0.00     0.199 A 
ATOM     12  F   UNL d   1      12.238   1.720  -1.091  0.00  0.00    -0.199 F 
ATOM     13  C   UNL d   1      11.097   2.703   0.726  0.00  0.00     0.199 A 
ATOM     14  F   UNL d   1      11.812   3.828   0.589  0.00  0.00    -0.199 F 
ATOM     15  C   UNL d   1      10.176   2.588   1.755  0.00  0.00     0.199 A 
ATOM     16  F   UNL d   1      10.006   3.596   2.621  0.00  0.00    -0.199 F 
ATOM     17  C   UNL d   1       9.433   1.422   1.899  0.00  0.00     0.195 A 
ATOM     18  F   UNL d   1       8.565   1.329   2.916  0.00  0.00    -0.200 F 
ENDBRANCH   7   8
ENDBRANCH   4   7
BRANCH   1  19
ATOM     19  N   UNL d   1       3.221  -0.848   0.817  0.00  0.00    -0.309 N 
ATOM     20  C   UNL d   1       2.533  -0.061  -0.072  0.00  0.00     0.318 C 
ATOM     21  N   UNL d   1       1.185  -0.143   0.015  0.00  0.00    -0.352 N 
ATOM     22  O   UNL d   1       3.020   0.670  -0.937  0.00  0.00    -0.247 OA
ATOM     23  H   UNL d   1       0.672   0.424  -0.649  0.00  0.00     0.160 HD
ATOM     24  H   UNL d   1       0.673  -0.670   0.701  0.00  0.00     0.160 HD
ATOM     25  H   UNL d   1       2.714  -1.560   1.321  0.00  0.00     0.170 HD
ENDBRANCH   1  19
TORSDOF 3
