REMARK  18 active torsions:
REMARK  status: ('A' for Active; 'I' for Inactive)
REMARK    1  A    between atoms: C_2  and  C_3 
REMARK    2  A    between atoms: C_3  and  C_4 
REMARK    3  A    between atoms: C_4  and  C_5 
REMARK    4  A    between atoms: C_6  and  C_5 
REMARK    5  A    between atoms: C_6  and  C_8 
REMARK    6  A    between atoms: C_6  and  O_7 
REMARK    7  A    between atoms: C_10  and  C_9 
REMARK    8  A    between atoms: C_11  and  O_12 
REMARK    9  A    between atoms: C_16  and  C_17 
REMARK   10  A    between atoms: C_17  and  C_18 
REMARK   11  A    between atoms: C_19  and  C_20 
REMARK   12  A    between atoms: C_20  and  C_21 
REMARK   13  A    between atoms: C_21  and  C_22 
REMARK   14  A    between atoms: C_22  and  C_23 
REMARK   15  A    between atoms: C_23  and  O_25 
REMARK   16  A    between atoms: O_25  and  C_26 
REMARK   17  A    between atoms: C_29  and  N_30 
REMARK       I    between atoms: N_30  and  C_31 
REMARK   18  A    between atoms: C_31  and  C_33 
ROOT
ATOM      1  C   UNL d   1       3.919  -1.623   4.891  0.00  0.00     0.027 C 
ENDROOT
BRANCH   1   2
ATOM      2  C   UNL d   1       5.109  -0.769   4.562  0.00  0.00    -0.031 C 
ATOM      3  C   UNL d   1       6.290  -0.926   5.174  0.00  0.00    -0.030 C 
BRANCH   3   4
ATOM      4  C   UNL d   1       6.522  -1.982   6.216  0.00  0.00     0.040 C 
BRANCH   4   5
ATOM      5  C   UNL d   1       7.979  -2.033   6.663  0.00  0.00     0.069 C 
ATOM      6  C   UNL d   1       8.147  -3.186   7.612  0.00  0.00     0.134 C 
ATOM      7  C   UNL d   1       8.376  -4.481   6.889  0.00  0.00     0.111 C 
ATOM      8  O   UNL d   1       8.047  -3.092   8.832  0.00  0.00    -0.297 OA
ATOM      9  C   UNL d   1       8.853  -4.016   5.513  0.00  0.00     0.133 C 
ATOM     10  C   UNL d   1       8.932  -2.465   5.535  0.00  0.00     0.048 C 
BRANCH   9  11
ATOM     11  O   UNL d   1       7.997  -4.487   4.475  0.00  0.00    -0.394 OA
ATOM     12  H   UNL d   1       7.109  -4.104   4.556  0.00  0.00     0.210 HD
ENDBRANCH   9  11
BRANCH  10  13
ATOM     13  C   UNL d   1      10.345  -1.994   5.766  0.00  0.00    -0.020 C 
ATOM     14  C   UNL d   1      10.751  -0.713   5.841  0.00  0.00     0.001 C 
BRANCH  14  15
ATOM     15  C   UNL d   1      12.205  -0.377   6.010  0.00  0.00     0.140 C 
BRANCH  15  16
ATOM     16  O   UNL d   1      12.361   1.036   6.026  0.00  0.00    -0.392 OA
ATOM     17  H   UNL d   1      11.935   1.372   6.832  0.00  0.00     0.210 HD
ENDBRANCH  15  16
BRANCH  15  18
ATOM     18  C   UNL d   1      12.780  -0.982   7.296  0.00  0.00     0.036 C 
BRANCH  18  19
ATOM     19  C   UNL d   1      14.190  -1.510   7.055  0.00  0.00     0.003 C 
BRANCH  19  20
ATOM     20  C   UNL d   1      14.729  -2.145   8.329  0.00  0.00    -0.000 C 
BRANCH  20  21
ATOM     21  C   UNL d   1      16.136  -2.683   8.107  0.00  0.00    -0.005 C 
ATOM     22  C   UNL d   1      16.671  -3.303   9.384  0.00  0.00     0.005 C 
ENDBRANCH  20  21
ENDBRANCH  19  20
ENDBRANCH  18  19
ENDBRANCH  15  18
ENDBRANCH  14  15
ENDBRANCH  10  13
ENDBRANCH   4   5
ENDBRANCH   3   4
ENDBRANCH   1   2
BRANCH   1  23
ATOM     23  C   UNL d   1       2.699  -1.199   4.100  0.00  0.00     0.013 C 
BRANCH  23  24
ATOM     24  C   UNL d   1       1.465  -2.046   4.435  0.00  0.00     0.112 C 
BRANCH  24  25
ATOM     25  C   UNL d   1       0.299  -1.511   3.637  0.00  0.00     0.264 C 
ATOM     26  O   UNL d   1       0.409  -0.574   2.846  0.00  0.00    -0.265 OA
BRANCH  25  27
ATOM     27  O   UNL d   1      -0.880  -2.201   3.923  0.00  0.00    -0.279 OA
BRANCH  27  28
ATOM     28  C   UNL d   1      -1.993  -1.899   3.108  0.00  0.00     0.079 A 
ATOM     29  C   UNL d   1      -3.270  -1.851   3.671  0.00  0.00     0.039 A 
ATOM     30  C   UNL d   1      -4.398  -1.605   2.850  0.00  0.00     0.032 A 
ATOM     31  C   UNL d   1      -4.244  -1.340   1.479  0.00  0.00     0.035 A 
ATOM     32  C   UNL d   1      -2.957  -1.433   0.949  0.00  0.00     0.032 A 
ATOM     33  C   UNL d   1      -1.851  -1.730   1.738  0.00  0.00     0.039 A 
BRANCH  31  34
ATOM     34  N   UNL d   1      -5.361  -0.963   0.675  0.00  0.00    -0.323 N 
ATOM     35  C   UNL d   1      -5.284  -0.632  -0.676  0.00  0.00     0.256 C 
ATOM     36  O   UNL d   1      -4.273  -0.649  -1.383  0.00  0.00    -0.267 OA
ATOM     37  H   UNL d   1      -6.264  -0.911   1.131  0.00  0.00     0.169 HD
BRANCH  35  38
ATOM     38  C   UNL d   1      -6.511  -0.198  -1.380  0.00  0.00     0.032 A 
ATOM     39  C   UNL d   1      -6.673  -0.611  -2.715  0.00  0.00     0.017 A 
ATOM     40  C   UNL d   1      -7.672  -0.053  -3.512  0.00  0.00     0.001 A 
ATOM     41  C   UNL d   1      -8.550   0.876  -2.962  0.00  0.00     0.000 A 
ATOM     42  C   UNL d   1      -8.399   1.283  -1.633  0.00  0.00     0.001 A 
ATOM     43  C   UNL d   1      -7.372   0.758  -0.840  0.00  0.00     0.017 A 
ENDBRANCH  35  38
ENDBRANCH  31  34
ENDBRANCH  27  28
ENDBRANCH  25  27
ENDBRANCH  24  25
ENDBRANCH  23  24
ENDBRANCH   1  23
TORSDOF 18
