REMARK  9 active torsions:
REMARK  status: ('A' for Active; 'I' for Inactive)
REMARK    1  A    between atoms: O_2  and  C_3 
REMARK    2  A    between atoms: C_6  and  C_7 
REMARK    3  A    between atoms: C_7  and  C_8 
REMARK    4  A    between atoms: C_8  and  N_9 
REMARK       I    between atoms: N_9  and  C_10 
REMARK    5  A    between atoms: C_10  and  C_12 
REMARK    6  A    between atoms: C_18  and  O_19 
REMARK    7  A    between atoms: N_24  and  N_25 
REMARK       I    between atoms: N_25  and  C_26 
REMARK    8  A    between atoms: C_26  and  C_28 
REMARK    9  A    between atoms: C_36  and  O_37 
ROOT
ATOM      1  C   UNL d   1       5.640  -3.270   9.239  0.00  0.00     0.085 C 
ATOM      2  C   UNL d   1       5.331  -4.307  10.046  0.00  0.00     0.035 C 
ATOM      3  C   UNL d   1       6.023  -4.507  11.322  0.00  0.00     0.002 C 
ATOM      4  C   UNL d   1       6.135  -5.756  11.946  0.00  0.00     0.014 C 
ATOM      5  C   UNL d   1       6.675  -5.857  13.232  0.00  0.00     0.004 C 
ATOM      6  C   UNL d   1       7.082  -4.705  13.905  0.00  0.00     0.040 C 
ATOM      7  C   UNL d   1       7.008  -3.450  13.281  0.00  0.00     0.102 C 
ATOM      8  C   UNL d   1       6.573  -3.386  11.946  0.00  0.00     0.121 C 
ATOM      9  O   UNL d   1       6.912  -2.274  11.105  0.00  0.00    -0.288 OA
ATOM     10  C   UNL d   1       6.698  -2.377   9.740  0.00  0.00     0.178 C 
ATOM     11  N   UNL d   1       7.415  -1.636   8.970  0.00  0.00    -0.276 N 
ATOM     12  H   UNL d   1       7.194  -1.693   7.984  0.00  0.00     0.189 HD
ENDROOT
BRANCH   1  13
ATOM     13  C   UNL d   1       4.904  -3.160   7.914  0.00  0.00     0.256 C 
ATOM     14  N   UNL d   1       5.349  -2.238   6.967  0.00  0.00    -0.356 N 
ATOM     15  H   UNL d   1       6.022  -1.513   6.991  0.00  0.00     0.162 HD
ATOM     16  O   UNL d   1       3.946  -3.875   7.693  0.00  0.00    -0.268 OA
BRANCH  14  17
ATOM     17  C   UNL d   1       4.642  -2.074   5.713  0.00  0.00     0.127 C 
BRANCH  17  18
ATOM     18  C   UNL d   1       5.310  -0.999   4.815  0.00  0.00     0.058 C 
BRANCH  18  19
ATOM     19  C   UNL d   1       4.564  -0.746   3.533  0.00  0.00    -0.054 A 
ATOM     20  C   UNL d   1       4.962   0.230   2.625  0.00  0.00     0.010 A 
ATOM     21  C   UNL d   1       4.154   0.516   1.507  0.00  0.00     0.040 A 
ATOM     22  C   UNL d   1       2.973  -0.210   1.219  0.00  0.00     0.101 A 
ATOM     23  C   UNL d   1       2.616  -1.233   2.108  0.00  0.00     0.102 A 
ATOM     24  C   UNL d   1       3.408  -1.466   3.237  0.00  0.00     0.046 A 
BRANCH  22  25
ATOM     25  O   UNL d   1       2.484   0.034  -0.043  0.00  0.00    -0.353 OA
ATOM     26  C   UNL d   1       1.126   0.414  -0.256  0.00  0.00     0.210 C 
ENDBRANCH  22  25
BRANCH  23  27
ATOM     27  O   UNL d   1       1.621  -2.176   2.113  0.00  0.00    -0.353 OA
ATOM     28  C   UNL d   1       0.635  -2.005   1.145  0.00  0.00     0.210 C 
ENDBRANCH  23  27
ENDBRANCH  18  19
ENDBRANCH  17  18
ENDBRANCH  14  17
ENDBRANCH   1  13
BRANCH  11  29
ATOM     29  N   UNL d   1       8.506  -0.795   9.200  0.00  0.00    -0.264 N 
ATOM     30  C   UNL d   1       8.858   0.030   8.120  0.00  0.00     0.270 C 
ATOM     31  O   UNL d   1       8.172   0.070   7.106  0.00  0.00    -0.266 OA
ATOM     32  H   UNL d   1       9.046  -0.887  10.050  0.00  0.00     0.190 HD
BRANCH  30  33
ATOM     33  C   UNL d   1      10.104   0.834   8.261  0.00  0.00     0.036 A 
ATOM     34  C   UNL d   1      10.152   2.186   7.880  0.00  0.00     0.017 A 
ATOM     35  C   UNL d   1      11.359   2.899   7.968  0.00  0.00     0.004 A 
ATOM     36  C   UNL d   1      12.500   2.280   8.476  0.00  0.00     0.042 A 
ATOM     37  C   UNL d   1      12.441   0.940   8.834  0.00  0.00     0.117 A 
ATOM     38  F   UNL d   1      13.540   0.324   9.283  0.00  0.00    -0.206 F 
ATOM     39  C   UNL d   1      11.263   0.208   8.721  0.00  0.00     0.059 A 
ENDBRANCH  30  33
ENDBRANCH  11  29
BRANCH   7  40
ATOM     40  O   UNL d   1       7.416  -2.419  14.080  0.00  0.00    -0.353 OA
ATOM     41  C   UNL d   1       7.073  -1.111  13.649  0.00  0.00     0.210 C 
ENDBRANCH   7  40
TORSDOF 9
