@<TRIPOS>MOLECULE
*****
 49 52 0 0 0
SMALL
GASTEIGER

@<TRIPOS>ATOM
      1 C           1.0071   -0.0540    0.0241 C.3     1  UNL1       -0.0203
      2 C           2.5260   -0.0017   -0.0051 C.ar    1  UNL1        0.0646
      3 N           3.1912   -1.1157   -0.0394 N.ar    1  UNL1       -0.1758
      4 N           4.5652   -1.0169   -0.0393 N.ar    1  UNL1       -0.2426
      5 C           5.3092    0.1497    0.0053 C.ar    1  UNL1        0.2723
      6 O           6.5423    0.1553   -0.0106 O.2     1  UNL1       -0.2660
      7 C           4.5420    1.3884    0.0877 C.ar    1  UNL1        0.0721
      8 C           3.2143    1.2953    0.0325 C.ar    1  UNL1        0.0160
      9 C           2.6103    2.6227   -0.0738 C.3     1  UNL1        0.0857
     10 C           1.8852    2.7869   -1.4025 C.3     1  UNL1       -0.0343
     11 O           3.7218    3.5437   -0.0034 O.3     1  UNL1       -0.3469
     12 C           4.9784    2.8122    0.0284 C.3     1  UNL1        0.1570
     13 N           5.7115    3.2915    1.1968 N.am    1  UNL1       -0.2855
     14 C           6.2646    4.5827    1.1998 C.2     1  UNL1        0.2254
     15 O           6.1139    5.3581    0.2603 O.2     1  UNL1       -0.2748
     16 C           7.1358    4.9202    2.4233 C.3     1  UNL1        0.0777
     17 S           7.7621    6.6352    2.4395 S.3     1  UNL1       -0.0767
     18 C           8.6525    6.9659    3.9068 C.ar    1  UNL1        0.1921
     19 N           8.9892    8.1863    4.2801 N.ar    1  UNL1       -0.1225
     20 N           9.7024    8.1124    5.4584 N.ar    1  UNL1       -0.1335
     21 C           9.8007    6.8438    5.7930 C.ar    1  UNL1        0.1341
     22 N           9.1729    6.0864    4.8182 N.ar    1  UNL1       -0.3060
     23 C           9.1256    4.6496    4.8047 C.3     1  UNL1        0.0268
     24 C          10.4387    3.9845    5.1569 C.3     1  UNL1       -0.0348
     25 C          10.5685    3.8020    6.6602 C.3     1  UNL1       -0.0511
     26 C           9.9459    4.9499    7.4644 C.3     1  UNL1       -0.0461
     27 C          10.5000    6.3009    7.0074 C.3     1  UNL1        0.0075
     28 H           0.6511   -1.0833    0.1091 H       1  UNL1        0.0293
     29 H           0.5673    0.3302   -0.8972 H       1  UNL1        0.0293
     30 H           0.6264    0.5275    0.8691 H       1  UNL1        0.0293
     31 H           5.0588   -1.9040   -0.0689 H       1  UNL1        0.1921
     32 H           1.9529    2.8070    0.7815 H       1  UNL1        0.0645
     33 H           2.5781    2.7049   -2.2467 H       1  UNL1        0.0258
     34 H           1.3826    3.7532   -1.4588 H       1  UNL1        0.0258
     35 H           1.1147    2.0346   -1.5605 H       1  UNL1        0.0258
     36 H           5.5425    3.0573   -0.8798 H       1  UNL1        0.0863
     37 H           6.0857    2.5984    1.8291 H       1  UNL1        0.1515
     38 H           7.9803    4.2406    2.3043 H       1  UNL1        0.0475
     39 H           6.5890    4.7206    3.3502 H       1  UNL1        0.0475
     40 H           8.9403    4.3231    3.8040 H       1  UNL1        0.0493
     41 H           8.2787    4.3332    5.4240 H       1  UNL1        0.0493
     42 H          11.2764    4.5711    4.7560 H       1  UNL1        0.0282
     43 H          10.4896    3.0059    4.6648 H       1  UNL1        0.0282
     44 H          11.6318    3.7040    6.9056 H       1  UNL1        0.0266
     45 H          10.0861    2.8599    6.9437 H       1  UNL1        0.0266
     46 H          10.1458    4.7805    8.5263 H       1  UNL1        0.0269
     47 H           8.8508    4.9426    7.3757 H       1  UNL1        0.0269
     48 H          11.5749    6.2133    6.8010 H       1  UNL1        0.0344
     49 H          10.3978    7.0173    7.8305 H       1  UNL1        0.0344
@<TRIPOS>BOND
     1     1     2    1
     2     2     3   ar
     3     3     4   ar
     4     4     5   ar
     5     5     6    2
     6     5     7   ar
     7     7     8   ar
     8     2     8   ar
     9     8     9    1
    10     9    11    1
    11    11    12    1
    12     7    12    1
    13    12    13    1
    14    13    14   am
    15    14    15    2
    16    14    16    1
    17    16    17    1
    18    17    18    1
    19    18    19   ar
    20    19    20   ar
    21    20    21   ar
    22    21    22   ar
    23    18    22   ar
    24    22    23    1
    25    23    24    1
    26    24    25    1
    27    25    26    1
    28    26    27    1
    29    21    27    1
    30     9    10    1
    31     1    28    1
    32     1    29    1
    33     1    30    1
    34     4    31    1
    35     9    32    1
    36    10    33    1
    37    10    34    1
    38    10    35    1
    39    12    36    1
    40    13    37    1
    41    16    38    1
    42    16    39    1
    43    23    40    1
    44    23    41    1
    45    24    42    1
    46    24    43    1
    47    25    44    1
    48    25    45    1
    49    26    46    1
    50    26    47    1
    51    27    48    1
    52    27    49    1
