@<TRIPOS>MOLECULE
*****
 48 51 0 0 0
SMALL
GASTEIGER

@<TRIPOS>ATOM
      1 O           1.0709   -0.2346   -0.0712 O.2     1  UNL1       -0.2522
      2 C           2.2920   -0.0669   -0.0546 C.2     1  UNL1        0.3086
      3 N           2.9806    0.6306   -1.0368 N.am    1  UNL1       -0.2693
      4 C           2.3047    1.2145   -2.1478 C.ar    1  UNL1        0.0348
      5 C           2.7549    1.0128   -3.4608 C.ar    1  UNL1       -0.0404
      6 C           2.1186    1.6558   -4.5372 C.ar    1  UNL1       -0.0600
      7 C           1.0173    2.4805   -4.3124 C.ar    1  UNL1       -0.0616
      8 C           0.5691    2.6855   -3.0108 C.ar    1  UNL1       -0.0600
      9 C           1.2060    2.0523   -1.9382 C.ar    1  UNL1       -0.0404
     10 N           3.0917   -0.7094    0.8707 N.am    1  UNL1       -0.2546
     11 C           4.1496   -0.0716    1.6241 C.3     1  UNL1        0.0423
     12 C           4.8163   -1.2509    2.2891 C.3     1  UNL1        0.0661
     13 O           3.7333   -2.1723    2.5450 O.3     1  UNL1       -0.3543
     14 C           2.7369   -1.9902    1.4989 C.3     1  UNL1        0.1424
     15 C           1.3385   -2.0809    2.1387 C.3     1  UNL1        0.0094
     16 C           1.0437   -3.4735    2.7112 C.3     1  UNL1        0.0215
     17 N           1.2694   -4.5424    1.7157 N.pl3   1  UNL1       -0.2776
     18 C           0.2476   -5.3588    1.2848 C.ar    1  UNL1        0.2740
     19 C          -0.9513   -4.8759    0.7352 C.ar    1  UNL1        0.0265
     20 C          -1.9948   -5.7491    0.4038 C.ar    1  UNL1       -0.0455
     21 C          -1.8876   -7.0911    0.7320 C.ar    1  UNL1        0.0416
     22 C          -0.6902   -7.5368    1.2629 C.ar    1  UNL1        0.3618
     23 F          -0.5682   -8.8250    1.6074 F       1  UNL1       -0.1357
     24 N           0.3345   -6.6918    1.4536 N.ar    1  UNL1       -0.1669
     25 C           2.5982   -4.5164    1.0984 C.3     1  UNL1        0.0215
     26 C           2.8907   -3.1395    0.4846 C.3     1  UNL1        0.0094
     27 H           3.9335    0.3351   -1.1943 H       1  UNL1        0.1564
     28 H           3.5608    0.3193   -3.6849 H       1  UNL1        0.0636
     29 H           2.4785    1.5203   -5.5559 H       1  UNL1        0.0618
     30 H           0.5085    2.9623   -5.1454 H       1  UNL1        0.0618
     31 H          -0.2687    3.3522   -2.8231 H       1  UNL1        0.0618
     32 H           0.8551    2.2491   -0.9296 H       1  UNL1        0.0636
     33 H           3.6785    0.5642    2.3849 H       1  UNL1        0.0488
     34 H           4.8137    0.5450    1.0144 H       1  UNL1        0.0488
     35 H           5.3285   -0.9954    3.2228 H       1  UNL1        0.0576
     36 H           5.5339   -1.7414    1.6215 H       1  UNL1        0.0576
     37 H           0.5614   -1.8728    1.3993 H       1  UNL1        0.0325
     38 H           1.2384   -1.3344    2.9363 H       1  UNL1        0.0325
     39 H           0.0222   -3.5034    3.1092 H       1  UNL1        0.0467
     40 H           1.7098   -3.6614    3.5626 H       1  UNL1        0.0467
     41 H          -1.0728   -3.8117    0.5473 H       1  UNL1        0.0698
     42 H          -2.8946   -5.3773   -0.0866 H       1  UNL1        0.0623
     43 H          -2.7184   -7.7781    0.5792 H       1  UNL1        0.0709
     44 H           1.1997   -7.0862    1.8011 H       1  UNL1        0.4572
     45 H           2.7000   -5.2886    0.3283 H       1  UNL1        0.0467
     46 H           3.3428   -4.7380    1.8732 H       1  UNL1        0.0467
     47 H           2.2149   -2.9643   -0.3611 H       1  UNL1        0.0325
     48 H           3.9135   -3.1448    0.0876 H       1  UNL1        0.0325
@<TRIPOS>UNITY_ATOM_ATTR
24 1
charge 1
@<TRIPOS>BOND
     1     1     2    2
     2     2     3   am
     3     3     4    1
     4     4     5   ar
     5     5     6   ar
     6     6     7   ar
     7     7     8   ar
     8     8     9   ar
     9     4     9   ar
    10     2    10   am
    11    10    11    1
    12    11    12    1
    13    12    13    1
    14    13    14    1
    15    10    14    1
    16    14    15    1
    17    15    16    1
    18    16    17    1
    19    17    18    1
    20    18    19   ar
    21    19    20   ar
    22    20    21   ar
    23    21    22   ar
    24    22    23    1
    25    22    24   ar
    26    18    24   ar
    27    17    25    1
    28    25    26    1
    29    14    26    1
    30     3    27    1
    31     5    28    1
    32     6    29    1
    33     7    30    1
    34     8    31    1
    35     9    32    1
    36    11    33    1
    37    11    34    1
    38    12    35    1
    39    12    36    1
    40    15    37    1
    41    15    38    1
    42    16    39    1
    43    16    40    1
    44    19    41    1
    45    20    42    1
    46    21    43    1
    47    24    44    1
    48    25    45    1
    49    25    46    1
    50    26    47    1
    51    26    48    1
