REMARK  8 active torsions:
REMARK  status: ('A' for Active; 'I' for Inactive)
REMARK    1  A    between atoms: C_2  and  N_3 
REMARK    2  A    between atoms: N_6  and  C_7 
REMARK    3  A    between atoms: C_10  and  C_11 
REMARK    4  A    between atoms: C_11  and  O_13 
REMARK    5  A    between atoms: C_16  and  N_17 
REMARK    6  A    between atoms: N_17  and  C_18 
REMARK    7  A    between atoms: C_18  and  N_20 
REMARK       I    between atoms: N_20  and  C_21 
REMARK    8  A    between atoms: C_21  and  C_23 
ROOT
ATOM      1  C   UNL d   1       5.713  -3.847  -2.215  0.00  0.00     0.052 A 
ATOM      2  C   UNL d   1       5.758  -5.105  -2.879  0.00  0.00     0.032 A 
ATOM      3  C   UNL d   1       6.612  -6.161  -2.498  0.00  0.00     0.020 A 
ATOM      4  C   UNL d   1       7.530  -5.996  -1.460  0.00  0.00     0.041 A 
ATOM      5  C   UNL d   1       7.553  -4.745  -0.805  0.00  0.00     0.043 A 
ATOM      6  C   UNL d   1       6.700  -3.639  -1.187  0.00  0.00     0.042 A 
ENDROOT
BRANCH   6   7
ATOM      7  N   UNL d   1       6.940  -2.356  -0.455  0.00  0.00    -0.234 NA
ATOM      8  H   UNL d   1       7.649  -2.560   0.251  0.00  0.00     0.136 HD
BRANCH   7   9
ATOM      9  C   UNL d   1       5.927  -1.622   0.175  0.00  0.00     0.157 C 
ATOM     10  S   UNL d   1       4.836  -2.425   1.157  0.00  0.00    -0.046 SA
BRANCH   9  11
ATOM     11  N   UNL d   1       6.106  -0.162   0.203  0.00  0.00    -0.304 N 
ATOM     12  C   UNL d   1       5.196   0.985   0.058  0.00  0.00     0.259 C 
ATOM     13  O   UNL d   1       4.527   1.292  -0.932  0.00  0.00    -0.267 OA
ATOM     14  H   UNL d   1       6.759   0.043   0.944  0.00  0.00     0.171 HD
BRANCH  12  15
ATOM     15  C   UNL d   1       5.183   2.207   0.836  0.00  0.00     0.054 A 
ATOM     16  C   UNL d   1       3.937   2.913   0.978  0.00  0.00     0.020 A 
ATOM     17  C   UNL d   1       3.909   4.244   1.365  0.00  0.00     0.025 A 
ATOM     18  C   UNL d   1       5.118   4.847   1.669  0.00  0.00     0.035 A 
ATOM     19 CL   UNL d   1       5.115   6.394   2.403  0.00  0.00    -0.084 Cl
ATOM     20  C   UNL d   1       6.336   4.193   1.444  0.00  0.00     0.048 A 
ATOM     21  C   UNL d   1       6.375   2.884   0.991  0.00  0.00     0.051 A 
ATOM     22 CL   UNL d   1       7.897   2.197   0.557  0.00  0.00    -0.083 Cl
ENDBRANCH  12  15
ENDBRANCH   9  11
ENDBRANCH   7   9
ENDBRANCH   6   7
BRANCH   1  23
ATOM     23  N   UNL d   1       4.714  -2.963  -2.616  0.00  0.00    -0.376 N 
ATOM     24  C   UNL d   1       4.986  -1.613  -3.043  0.00  0.00     0.150 C 
ATOM     25  C   UNL d   1       4.212  -0.659  -2.144  0.00  0.00     0.254 C 
ATOM     26  N   UNL d   1       2.762  -0.908  -1.621  0.00  0.00    -0.068 N 
ATOM     27  C   UNL d   1       2.495  -2.413  -1.504  0.00  0.00     0.254 C 
ATOM     28  H   UNL d   1       2.181  -0.446  -2.322  0.00  0.00     0.280 HD
ATOM     29  C   UNL d   1       3.259  -3.252  -2.566  0.00  0.00     0.150 C 
BRANCH  26  30
ATOM     30  C   UNL d   1       2.334  -0.224  -0.256  0.00  0.00     0.230 C 
ATOM     31  C   UNL d   1       0.830  -0.132  -0.103  0.00  0.00     0.034 C 
ENDBRANCH  26  30
ENDBRANCH   1  23
BRANCH   4  32
ATOM     32  C   UNL d   1       8.487  -7.127  -1.180  0.00  0.00     0.293 C 
ATOM     33  O   UNL d   1       8.492  -8.172  -1.852  0.00  0.00    -0.259 OA
BRANCH  32  34
ATOM     34  O   UNL d   1       9.358  -6.864  -0.178  0.00  0.00    -0.323 OA
ATOM     35  C   UNL d   1      10.342  -7.894   0.056  0.00  0.00     0.213 C 
ENDBRANCH  32  34
ENDBRANCH   4  32
TORSDOF 8
