REMARK  8 active torsions:
REMARK  status: ('A' for Active; 'I' for Inactive)
REMARK    1  A    between atoms: O_2  and  C_3 
REMARK    2  A    between atoms: C_6  and  C_5 
REMARK    3  A    between atoms: C_6  and  C_14 
REMARK    4  A    between atoms: C_6  and  C_7 
REMARK    5  A    between atoms: C_8  and  O_9 
REMARK    6  A    between atoms: C_19  and  O_20 
REMARK    7  A    between atoms: C_23  and  O_24 
REMARK    8  A    between atoms: O_24  and  C_25 
ROOT
ATOM      1  C   UNL d   1       6.460  -1.508  -2.526  0.00  0.00     0.097 C 
ENDROOT
BRANCH   1   2
ATOM      2  C   UNL d   1       7.122  -1.294  -3.846  0.00  0.00     0.033 A 
ATOM      3  C   UNL d   1       7.435  -0.017  -4.399  0.00  0.00     0.062 A 
ATOM      4  C   UNL d   1       7.133   1.318  -3.810  0.00  0.00     0.073 C 
ATOM      5  N   UNL d   1       8.023  -0.121  -5.598  0.00  0.00    -0.177 NA
ATOM      6  N   UNL d   1       8.053  -1.442  -5.822  0.00  0.00    -0.256 N 
ATOM      7  C   UNL d   1       7.485  -2.197  -4.841  0.00  0.00     0.166 A 
ATOM      8  H   UNL d   1       8.440  -1.770  -6.706  0.00  0.00     0.191 HD
BRANCH   7   9
ATOM      9  O   UNL d   1       7.301  -3.501  -4.915  0.00  0.00    -0.345 OA
ATOM     10  H   UNL d   1       7.936  -3.921  -5.527  0.00  0.00     0.219 HD
ENDBRANCH   7   9
ENDBRANCH   1   2
BRANCH   1  11
ATOM     11  C   UNL d   1       5.096  -0.912  -2.526  0.00  0.00     0.033 A 
ATOM     12  C   UNL d   1       4.045  -1.109  -3.441  0.00  0.00     0.190 A 
ATOM     13  N   UNL d   1       2.950  -0.424  -3.143  0.00  0.00    -0.149 NA
ATOM     14  N   UNL d   1       3.313   0.273  -2.050  0.00  0.00    -0.280 N 
ATOM     15  C   UNL d   1       4.596   0.026  -1.639  0.00  0.00     0.035 A 
ATOM     16  H   UNL d   1       2.629   0.902  -1.646  0.00  0.00     0.189 HD
ATOM     17  C   UNL d   1       5.263   0.683  -0.488  0.00  0.00     0.070 C 
BRANCH  12  18
ATOM     18  O   UNL d   1       3.983  -1.944  -4.484  0.00  0.00    -0.343 OA
ATOM     19  H   UNL d   1       4.812  -2.454  -4.541  0.00  0.00     0.219 HD
ENDBRANCH  12  18
ENDBRANCH   1  11
BRANCH   1  20
ATOM     20  C   UNL d   1       6.359  -2.988  -2.208  0.00  0.00    -0.042 C 
ATOM     21  C   UNL d   1       7.551  -3.731  -2.088  0.00  0.00     0.047 C 
ATOM     22  C   UNL d   1       7.577  -5.098  -1.778  0.00  0.00     0.102 C 
ATOM     23  C   UNL d   1       6.341  -5.695  -1.423  0.00  0.00     0.102 C 
ATOM     24  C   UNL d   1       5.147  -4.990  -1.607  0.00  0.00     0.040 C 
ATOM     25  C   UNL d   1       5.155  -3.667  -2.004  0.00  0.00     0.011 C 
BRANCH  22  26
ATOM     26  O   UNL d   1       8.885  -5.507  -1.676  0.00  0.00    -0.353 OA
ATOM     27  C   UNL d   1       9.428  -6.741  -2.131  0.00  0.00     0.210 C 
ENDBRANCH  22  26
BRANCH  23  28
ATOM     28  O   UNL d   1       6.048  -6.869  -0.751  0.00  0.00    -0.344 OA
BRANCH  28  29
ATOM     29  C   UNL d   1       7.180  -7.666  -0.548  0.00  0.00     0.121 C 
ATOM     30  C   UNL d   1       8.077  -7.051   0.550  0.00  0.00     0.040 C 
ATOM     31  C   UNL d   1       6.931  -9.113  -0.182  0.00  0.00     0.040 C 
ENDBRANCH  28  29
ENDBRANCH  23  28
ENDBRANCH   1  20
TORSDOF 8
