@<TRIPOS>MOLECULE
*****
 57 60 0 0 0
SMALL
GASTEIGER

@<TRIPOS>ATOM
      1 O           7.6294   10.1257    1.1499 O.2     1  UNL1       -0.2726
      2 C           7.6710    9.5145    0.0786 C.2     1  UNL1        0.2462
      3 N           8.3005    8.2806   -0.0948 N.am    1  UNL1       -0.2804
      4 C           8.8663    7.6271    1.0251 C.ar    1  UNL1        0.0754
      5 C          10.1850    7.1602    0.9844 C.ar    1  UNL1       -0.0366
      6 C          10.7854    6.6337    2.1400 C.ar    1  UNL1       -0.0563
      7 C          10.0636    6.5375    3.3370 C.ar    1  UNL1       -0.0395
      8 C          10.7194    5.9218    4.5600 C.3     1  UNL1       -0.0022
      9 C           9.8028    5.7892    5.7528 C.ar    1  UNL1       -0.0395
     10 C           8.6267    5.0263    5.7266 C.ar    1  UNL1       -0.0563
     11 C           7.6843    5.1135    6.7723 C.ar    1  UNL1       -0.0366
     12 C           7.9386    5.8962    7.9188 C.ar    1  UNL1        0.0754
     13 N           6.9371    5.9189    8.9550 N.am    1  UNL1       -0.2804
     14 C           7.0179    6.6072   10.1506 C.2     1  UNL1        0.2462
     15 O           7.9761    7.3230   10.4692 O.2     1  UNL1       -0.2726
     16 C           5.8950    6.4972   11.1802 C.3     1  UNL1        0.1347
     17 C           6.4931    6.0660   12.5205 C.3     1  UNL1       -0.0159
     18 C           6.8957    7.3679   13.1820 C.3     1  UNL1       -0.0266
     19 C           5.8807    8.3470   12.6369 C.3     1  UNL1        0.0487
     20 O           5.3646    7.8198   11.4000 O.3     1  UNL1       -0.3673
     21 C           9.1675    6.5890    7.9361 C.ar    1  UNL1        0.1382
     22 O           9.6834    7.3794    8.9173 O.3     1  UNL1       -0.5049
     23 C          10.0612    6.5548    6.8726 C.ar    1  UNL1       -0.0148
     24 C           8.7367    7.0010    3.3514 C.ar    1  UNL1       -0.0148
     25 C           8.1343    7.4894    2.2043 C.ar    1  UNL1        0.1382
     26 O           6.7875    7.7477    2.2165 O.3     1  UNL1       -0.5049
     27 C           7.0720   10.1418   -1.1960 C.3     1  UNL1        0.1347
     28 C           5.9229   11.0739   -0.8216 C.3     1  UNL1       -0.0159
     29 C           6.6068   12.4102   -0.6591 C.3     1  UNL1       -0.0266
     30 C           7.7048   12.3409   -1.6947 C.3     1  UNL1        0.0487
     31 O           8.0398   10.9532   -1.8835 O.3     1  UNL1       -0.3673
     32 H           8.6323    8.0311   -1.0157 H       1  UNL1        0.1550
     33 H          10.7847    7.2590    0.0853 H       1  UNL1        0.0637
     34 H          11.8282    6.3200    2.1105 H       1  UNL1        0.0621
     35 H          11.5878    6.5429    4.8292 H       1  UNL1        0.0361
     36 H          11.1117    4.9264    4.3216 H       1  UNL1        0.0361
     37 H           8.3971    4.4496    4.8295 H       1  UNL1        0.0621
     38 H           6.7509    4.5695    6.6364 H       1  UNL1        0.0637
     39 H           6.0927    5.3855    8.7699 H       1  UNL1        0.1550
     40 H           5.0975    5.8363   10.8326 H       1  UNL1        0.0693
     41 H           7.3417    5.3804   12.4238 H       1  UNL1        0.0296
     42 H           5.7261    5.5783   13.1296 H       1  UNL1        0.0296
     43 H           7.9090    7.6660   12.8847 H       1  UNL1        0.0288
     44 H           6.8970    7.3230   14.2753 H       1  UNL1        0.0288
     45 H           6.3125    9.3424   12.4801 H       1  UNL1        0.0560
     46 H           5.0342    8.4497   13.3218 H       1  UNL1        0.0560
     47 H           9.0584    7.3959    9.6625 H       1  UNL1        0.2922
     48 H          10.9527    7.1759    6.9389 H       1  UNL1        0.0657
     49 H           8.1380    6.9689    4.2537 H       1  UNL1        0.0657
     50 H           6.5018    7.8551    3.1375 H       1  UNL1        0.2922
     51 H           6.7356    9.3475   -1.8709 H       1  UNL1        0.0693
     52 H           5.3839   10.7682    0.0808 H       1  UNL1        0.0296
     53 H           5.1987   11.1288   -1.6417 H       1  UNL1        0.0296
     54 H           7.0466   12.4985    0.3411 H       1  UNL1        0.0288
     55 H           5.9371   13.2640   -0.7962 H       1  UNL1        0.0288
     56 H           8.5957   12.8992   -1.3903 H       1  UNL1        0.0560
     57 H           7.3619   12.7436   -2.6543 H       1  UNL1        0.0560
@<TRIPOS>BOND
     1     1     2    2
     2     2     3   am
     3     3     4    1
     4     4     5   ar
     5     5     6   ar
     6     6     7   ar
     7     7     8    1
     8     8     9    1
     9     9    10   ar
    10    10    11   ar
    11    11    12   ar
    12    12    13    1
    13    13    14   am
    14    14    15    2
    15    16    17    1
    16    17    18    1
    17    18    19    1
    18    19    20    1
    19    16    20    1
    20    12    21   ar
    21    21    22    1
    22    21    23   ar
    23     9    23   ar
    24     7    24   ar
    25    24    25   ar
    26     4    25   ar
    27    25    26    1
    28    27    28    1
    29    28    29    1
    30    29    30    1
    31    30    31    1
    32    27    31    1
    33    27     2    1
    34    16    14    1
    35     3    32    1
    36     5    33    1
    37     6    34    1
    38     8    35    1
    39     8    36    1
    40    10    37    1
    41    11    38    1
    42    13    39    1
    43    16    40    1
    44    17    41    1
    45    17    42    1
    46    18    43    1
    47    18    44    1
    48    19    45    1
    49    19    46    1
    50    22    47    1
    51    23    48    1
    52    24    49    1
    53    26    50    1
    54    27    51    1
    55    28    52    1
    56    28    53    1
    57    29    54    1
    58    29    55    1
    59    30    56    1
    60    30    57    1
