REMARK  5 active torsions:
REMARK  status: ('A' for Active; 'I' for Inactive)
REMARK       I    between atoms: N_1  and  C_2 
REMARK    1  A    between atoms: C_2  and  C_4 
REMARK    2  A    between atoms: C_7  and  C_8 
REMARK       I    between atoms: C_8  and  N_10 
REMARK    3  A    between atoms: N_10  and  C_11 
REMARK    4  A    between atoms: C_15  and  O_16 
REMARK    5  A    between atoms: O_16  and  C_17 
ROOT
ATOM      1  C   UNL d   1       5.460  -3.855  -3.283  0.00  0.00     0.256 C 
ATOM      2  O   UNL d   1       6.366  -4.432  -2.684  0.00  0.00    -0.267 OA
ATOM      3  N   UNL d   1       5.132  -4.099  -4.613  0.00  0.00    -0.323 N 
ATOM      4  H   UNL d   1       4.514  -3.478  -5.110  0.00  0.00     0.169 HD
ENDROOT
BRANCH   3   5
ATOM      5  C   UNL d   1       5.784  -5.077  -5.394  0.00  0.00     0.037 A 
ATOM      6  C   UNL d   1       6.071  -4.821  -6.734  0.00  0.00     0.029 A 
ATOM      7  C   UNL d   1       6.681  -5.805  -7.521  0.00  0.00     0.005 A 
ATOM      8  C   UNL d   1       7.006  -7.047  -6.967  0.00  0.00     0.037 A 
ATOM      9  C   UNL d   1       6.695  -7.316  -5.632  0.00  0.00     0.078 A 
ATOM     10  C   UNL d   1       6.111  -6.316  -4.852  0.00  0.00     0.066 A 
BRANCH   9  11
ATOM     11  O   UNL d   1       7.023  -8.568  -5.156  0.00  0.00    -0.311 OA
BRANCH  11  12
ATOM     12  C   UNL d   1       6.516  -8.979  -3.942  0.00  0.00     0.076 A 
ATOM     13  C   UNL d   1       7.419  -9.523  -3.030  0.00  0.00     0.037 A 
ATOM     14  C   UNL d   1       6.955 -10.047  -1.822  0.00  0.00     0.003 A 
ATOM     15  C   UNL d   1       5.603  -9.950  -1.488  0.00  0.00     0.000 A 
ATOM     16  C   UNL d   1       4.702  -9.385  -2.388  0.00  0.00     0.003 A 
ATOM     17  C   UNL d   1       5.151  -8.938  -3.631  0.00  0.00     0.037 A 
ENDBRANCH  11  12
ENDBRANCH   9  11
ENDBRANCH   3   5
BRANCH   1  18
ATOM     18  C   UNL d   1       4.686  -2.808  -2.538  0.00  0.00     0.032 A 
ATOM     19  C   UNL d   1       5.036  -2.576  -1.195  0.00  0.00     0.018 A 
ATOM     20  C   UNL d   1       4.273  -1.726  -0.386  0.00  0.00     0.018 A 
ATOM     21  C   UNL d   1       3.184  -1.041  -0.928  0.00  0.00     0.031 A 
ATOM     22  C   UNL d   1       2.861  -1.214  -2.278  0.00  0.00     0.018 A 
ATOM     23  C   UNL d   1       3.608  -2.095  -3.079  0.00  0.00     0.018 A 
BRANCH  21  24
ATOM     24  C   UNL d   1       2.453  -0.078  -0.072  0.00  0.00     0.249 C 
ATOM     25  N   UNL d   1       1.093  -0.056  -0.166  0.00  0.00    -0.366 N 
ATOM     26  H   UNL d   1       0.600   0.547   0.483  0.00  0.00     0.159 HD
ATOM     27  H   UNL d   1       0.557  -0.742  -0.679  0.00  0.00     0.159 HD
ATOM     28  O   UNL d   1       3.053   0.660   0.707  0.00  0.00    -0.268 OA
ENDBRANCH  21  24
ENDBRANCH   1  18
TORSDOF 5
