@<TRIPOS>MOLECULE
*****
 60 64 0 0 0
SMALL
GASTEIGER

@<TRIPOS>ATOM
      1 C           1.1783   -0.0585   -0.0415 C.3     1  UNL1       -0.0217
      2 C           2.6799   -0.0715   -0.0446 C.2     1  UNL1        0.0479
      3 N           3.4181    1.0195   -0.0473 N.2     1  UNL1       -0.2512
      4 C           4.7653    0.5700   -0.0521 C.ar    1  UNL1        0.0719
      5 C           5.9140    1.3554   -0.0611 C.ar    1  UNL1       -0.0357
      6 C           7.1694    0.7250   -0.0706 C.ar    1  UNL1       -0.0597
      7 C           7.2665   -0.6671   -0.0719 C.ar    1  UNL1       -0.0611
      8 C           6.1182   -1.4453   -0.0631 C.ar    1  UNL1       -0.0519
      9 C           4.8787   -0.8275   -0.0513 C.ar    1  UNL1        0.0104
     10 C           3.5060   -1.3342   -0.0437 C.2     1  UNL1        0.0202
     11 C           3.1002   -2.6184   -0.0340 C.2     1  UNL1        0.0175
     12 N           3.8890   -3.7488   -0.0095 N.pl3   1  UNL1       -0.2707
     13 N           3.5217   -5.0877   -0.0912 N.am    1  UNL1       -0.2317
     14 C           4.5307   -6.0494   -0.0087 C.2     1  UNL1        0.2778
     15 O           5.7264   -5.7445    0.1076 O.2     1  UNL1       -0.2670
     16 C           4.0825   -7.4162   -0.0548 C.ar    1  UNL1        0.1222
     17 C           3.1126   -8.0192   -0.8333 C.ar    1  UNL1       -0.0041
     18 C           3.1054   -9.3953   -0.4783 C.ar    1  UNL1        0.0932
     19 C           2.2072  -10.4264   -1.0006 C.ar    1  UNL1        0.0023
     20 C           2.0886  -10.6674   -2.3757 C.ar    1  UNL1       -0.0491
     21 C           1.0746  -11.5069   -2.8635 C.ar    1  UNL1       -0.0193
     22 C           0.2279  -12.1860   -1.9848 C.ar    1  UNL1        0.1210
     23 O          -0.7572  -12.9345   -2.5756 O.3     1  UNL1       -0.4874
     24 C          -1.6582  -13.5965   -1.6873 C.3     1  UNL1        0.1146
     25 C          -2.6977  -14.3738   -2.4589 C.ar    1  UNL1       -0.0104
     26 C          -3.4960  -13.7747   -3.4421 C.ar    1  UNL1       -0.0551
     27 C          -4.5421  -14.4903   -4.0339 C.ar    1  UNL1       -0.0585
     28 C          -4.7484  -15.8374   -3.7174 C.ar    1  UNL1       -0.0504
     29 C          -5.8994  -16.6023   -4.2978 C.3     1  UNL1       -0.0397
     30 C          -3.8811  -16.4646   -2.8192 C.ar    1  UNL1       -0.0585
     31 C          -2.9098  -15.7235   -2.1489 C.ar    1  UNL1       -0.0551
     32 C           0.4351  -12.0494   -0.6119 C.ar    1  UNL1       -0.0193
     33 C           1.3824  -11.1393   -0.1250 C.ar    1  UNL1       -0.0491
     34 N           4.0011   -9.6298    0.4924 N.ar    1  UNL1       -0.1732
     35 N           4.6203   -8.4443    0.6755 N.ar    1  UNL1       -0.2719
     36 H           0.7953    0.9685   -0.0410 H       1  UNL1        0.0293
     37 H           0.7989   -0.5656    0.8499 H       1  UNL1        0.0293
     38 H           0.7971   -0.5653   -0.9322 H       1  UNL1        0.0293
     39 H           5.8560    2.4386   -0.0618 H       1  UNL1        0.0639
     40 H           8.0863    1.3087   -0.0785 H       1  UNL1        0.0618
     41 H           8.2321   -1.1667   -0.0807 H       1  UNL1        0.0618
     42 H           6.2584   -2.5118   -0.0678 H       1  UNL1        0.0624
     43 H           2.0390   -2.8482   -0.0312 H       1  UNL1        0.0801
     44 H           4.8971   -3.6288   -0.0350 H       1  UNL1        0.1693
     45 H           2.5396   -5.3240   -0.0249 H       1  UNL1        0.1731
     46 H           2.4928   -7.5349   -1.5721 H       1  UNL1        0.0662
     47 H           2.7744  -10.2053   -3.0816 H       1  UNL1        0.0625
     48 H           0.9405  -11.6287   -3.9366 H       1  UNL1        0.0654
     49 H          -2.1762  -12.8786   -1.0364 H       1  UNL1        0.0748
     50 H          -1.0887  -14.2982   -1.0654 H       1  UNL1        0.0748
     51 H          -3.3178  -12.7453   -3.7460 H       1  UNL1        0.0621
     52 H          -5.1985  -13.9889   -4.7418 H       1  UNL1        0.0620
     53 H          -6.5227  -15.9656   -4.9336 H       1  UNL1        0.0278
     54 H          -6.5346  -16.9801   -3.4886 H       1  UNL1        0.0278
     55 H          -5.5403  -17.4432   -4.8977 H       1  UNL1        0.0278
     56 H          -3.9676  -17.5296   -2.6189 H       1  UNL1        0.0620
     57 H          -2.3157  -16.2092   -1.3784 H       1  UNL1        0.0621
     58 H          -0.1318  -12.6212    0.1145 H       1  UNL1        0.0654
     59 H           1.4562  -10.9739    0.9474 H       1  UNL1        0.0625
     60 H           5.3787   -8.3987    1.3518 H       1  UNL1        0.1891
@<TRIPOS>BOND
     1     1     2    1
     2     2     3    2
     3     3     4    1
     4     4     5   ar
     5     5     6   ar
     6     6     7   ar
     7     7     8   ar
     8     8     9   ar
     9     4     9   ar
    10     9    10    1
    11     2    10    1
    12    10    11    2
    13    11    12    1
    14    12    13    1
    15    13    14   am
    16    14    15    2
    17    14    16    1
    18    16    17   ar
    19    17    18   ar
    20    18    19    1
    21    19    20   ar
    22    20    21   ar
    23    21    22   ar
    24    22    23    1
    25    23    24    1
    26    24    25    1
    27    25    26   ar
    28    26    27   ar
    29    27    28   ar
    30    28    29    1
    31    28    30   ar
    32    30    31   ar
    33    25    31   ar
    34    22    32   ar
    35    32    33   ar
    36    19    33   ar
    37    18    34   ar
    38    34    35   ar
    39    16    35   ar
    40     1    36    1
    41     1    37    1
    42     1    38    1
    43     5    39    1
    44     6    40    1
    45     7    41    1
    46     8    42    1
    47    11    43    1
    48    12    44    1
    49    13    45    1
    50    17    46    1
    51    20    47    1
    52    21    48    1
    53    24    49    1
    54    24    50    1
    55    26    51    1
    56    27    52    1
    57    29    53    1
    58    29    54    1
    59    29    55    1
    60    30    56    1
    61    31    57    1
    62    32    58    1
    63    33    59    1
    64    35    60    1
