REMARK  12 active torsions:
REMARK  status: ('A' for Active; 'I' for Inactive)
REMARK    1  A    between atoms: C_3  and  C_2 
REMARK    2  A    between atoms: C_3  and  C_33 
REMARK    3  A    between atoms: C_3  and  C_4 
REMARK       I    between atoms: C_4  and  N_6 
REMARK    4  A    between atoms: N_6  and  C_7 
REMARK    5  A    between atoms: N_6  and  C_14 
REMARK    6  A    between atoms: C_7  and  C_8 
REMARK    7  A    between atoms: C_14  and  C_15 
REMARK    8  A    between atoms: C_14  and  C_24 
REMARK       I    between atoms: C_15  and  N_17 
REMARK    9  A    between atoms: N_17  and  C_18 
REMARK   10  A    between atoms: C_25  and  O_26 
REMARK   11  A    between atoms: C_28  and  O_29 
REMARK   12  A    between atoms: C_31  and  O_32 
ROOT
ATOM      1  C   UNL d   1       2.949   2.405  -1.182  0.00  0.00     0.218 C 
ENDROOT
BRANCH   1   2
ATOM      2  N   UNL d   1       3.200   1.427  -0.033  0.00  0.00    -0.328 N 
ATOM      3  C   UNL d   1       2.730   0.062  -0.213  0.00  0.00     0.229 C 
ATOM      4  O   UNL d   1       1.890  -0.177  -1.093  0.00  0.00    -0.273 OA
BRANCH   3   5
ATOM      5  C   UNL d   1       3.207  -1.158   0.717  0.00  0.00     0.110 C 
BRANCH   5   6
ATOM      6  C   UNL d   1       4.728  -1.483   0.678  0.00  0.00    -0.045 C 
ATOM      7  C   UNL d   1       5.490  -2.627   0.588  0.00  0.00     0.008 C 
ATOM      8  C   UNL d   1       6.879  -2.567   0.904  0.00  0.00     0.001 C 
ATOM      9  C   UNL d   1       7.562  -1.354   1.107  0.00  0.00     0.000 C 
ATOM     10  C   UNL d   1       6.835  -0.217   1.158  0.00  0.00     0.001 C 
ATOM     11  C   UNL d   1       5.491  -0.419   1.028  0.00  0.00     0.008 C 
ENDBRANCH   5   6
BRANCH   5  12
ATOM     12  C   UNL d   1       2.454  -2.484   0.551  0.00  0.00     0.014 C 
ATOM     13  C   UNL d   1       2.728  -3.305   1.825  0.00  0.00     0.006 C 
ENDBRANCH   5  12
ENDBRANCH   3   5
BRANCH   2  14
ATOM     14  C   UNL d   1       3.808   1.916   1.246  0.00  0.00     0.192 C 
BRANCH  14  15
ATOM     15  C   UNL d   1       4.097   3.261   1.721  0.00  0.00     0.071 C 
ATOM     16  C   UNL d   1       3.540   4.472   1.482  0.00  0.00     0.037 C 
ATOM     17  C   UNL d   1       4.486   5.424   1.863  0.00  0.00     0.035 C 
ATOM     18  C   UNL d   1       5.516   4.754   2.472  0.00  0.00     0.049 C 
ATOM     19  C   UNL d   1       6.733   5.259   3.125  0.00  0.00     0.076 C 
ATOM     20  O   UNL d   1       5.299   3.413   2.397  0.00  0.00    -0.318 OA
ENDBRANCH  14  15
ENDBRANCH   2  14
ENDBRANCH   1   2
BRANCH   1  21
ATOM     21  C   UNL d   1       1.493   2.925  -0.886  0.00  0.00     0.245 C 
ATOM     22  O   UNL d   1       1.248   4.075  -0.592  0.00  0.00    -0.271 OA
ATOM     23  N   UNL d   1       0.456   1.991  -0.898  0.00  0.00    -0.354 N 
ATOM     24  H   UNL d   1       0.647   1.027  -1.172  0.00  0.00     0.162 HD
BRANCH  23  25
ATOM     25  C   UNL d   1      -0.918   2.401  -0.618  0.00  0.00     0.084 C 
ATOM     26  C   UNL d   1      -1.018   3.155   0.726  0.00  0.00     0.025 C 
ATOM     27  C   UNL d   1      -2.347   3.849   0.952  0.00  0.00     0.002 C 
ATOM     28  C   UNL d   1      -2.735   4.697  -0.254  0.00  0.00     0.000 C 
ATOM     29  C   UNL d   1      -2.808   3.847  -1.516  0.00  0.00     0.002 C 
ATOM     30  C   UNL d   1      -1.469   3.190  -1.813  0.00  0.00     0.025 C 
ENDBRANCH  23  25
ENDBRANCH   1  21
BRANCH   1  31
ATOM     31  C   UNL d   1       4.029   3.541  -1.393  0.00  0.00     0.040 C 
ATOM     32  C   UNL d   1       5.390   3.391  -1.054  0.00  0.00     0.080 C 
ATOM     33  C   UNL d   1       6.226   4.482  -0.755  0.00  0.00     0.073 C 
ATOM     34  C   UNL d   1       5.780   5.771  -0.984  0.00  0.00     0.071 C 
ATOM     35  C   UNL d   1       4.533   5.963  -1.552  0.00  0.00     0.073 C 
ATOM     36  C   UNL d   1       3.692   4.856  -1.786  0.00  0.00     0.080 C 
BRANCH  32  37
ATOM     37  O   UNL d   1       5.988   2.174  -0.906  0.00  0.00    -0.360 OA
ATOM     38  H   UNL d   1       5.307   1.492  -1.024  0.00  0.00     0.217 HD
ENDBRANCH  32  37
BRANCH  34  39
ATOM     39  O   UNL d   1       6.517   6.860  -0.619  0.00  0.00    -0.361 OA
ATOM     40  H   UNL d   1       7.346   6.550  -0.215  0.00  0.00     0.217 HD
ENDBRANCH  34  39
BRANCH  36  41
ATOM     41  O   UNL d   1       2.508   5.099  -2.425  0.00  0.00    -0.360 OA
ATOM     42  H   UNL d   1       2.209   5.993  -2.175  0.00  0.00     0.217 HD
ENDBRANCH  36  41
ENDBRANCH   1  31
TORSDOF 12
