@<TRIPOS>MOLECULE
*****
 65 66 0 0 0
SMALL
GASTEIGER

@<TRIPOS>ATOM
      1 C           5.6985    7.6209   -1.0586 C.3     1  UNL1       -0.0181
      2 S           4.5635    6.2339   -1.3173 S.3     1  UNL1       -0.1641
      3 C           5.7200    4.8516   -1.6979 C.3     1  UNL1       -0.0044
      4 C           4.8440    3.6005   -1.8932 C.3     1  UNL1       -0.0151
      5 C           5.5161    2.2506   -2.2483 C.3     1  UNL1        0.1214
      6 N           5.0374    1.1946   -1.3193 N.am    1  UNL1       -0.2983
      7 C           5.5583   -0.0811   -1.3969 C.2     1  UNL1        0.2447
      8 O           6.3108   -0.4503   -2.2956 O.2     1  UNL1       -0.2702
      9 C           5.2226   -1.0327   -0.3200 C.ar    1  UNL1        0.0367
     10 C           6.2508   -1.8028    0.2360 C.ar    1  UNL1       -0.0494
     11 C           5.9463   -2.8862    1.0618 C.ar    1  UNL1       -0.0574
     12 C           4.6166   -3.1638    1.4220 C.ar    1  UNL1       -0.0419
     13 C           4.3084   -4.2726    2.4394 C.3     1  UNL1       -0.0127
     14 C           4.7841   -5.6435    1.9223 C.3     1  UNL1       -0.0560
     15 C           5.0366   -3.9556    3.7640 C.3     1  UNL1       -0.0560
     16 C           2.8003   -4.3737    2.7495 C.3     1  UNL1       -0.0560
     17 C           3.6047   -2.3578    0.8633 C.ar    1  UNL1       -0.0574
     18 C           3.8985   -1.2958    0.0065 C.ar    1  UNL1       -0.0494
     19 C           7.0703    2.2980   -2.2164 C.2     1  UNL1        0.3281
     20 O           7.7710    1.7828   -1.3473 O.2     1  UNL1       -0.2487
     21 O           7.5866    3.0285   -3.2469 O.3     1  UNL1       -0.4538
     22 C           9.0283    3.1030   -3.2473 C.3     1  UNL1        0.1695
     23 C           9.5418    4.1320   -4.2741 C.2     1  UNL1        0.2668
     24 O           8.7811    4.8308   -4.9496 O.2     1  UNL1       -0.2705
     25 N          10.9239    4.2487   -4.3929 N.am    1  UNL1       -0.2313
     26 N          11.4463    5.1838   -5.3307 N.am    1  UNL1       -0.2303
     27 C          12.8130    5.2957   -5.5432 C.2     1  UNL1        0.2601
     28 O          13.6488    4.6133   -4.9426 O.2     1  UNL1       -0.2687
     29 C          13.2491    6.3255   -6.5409 C.ar    1  UNL1        0.0382
     30 C          14.2854    6.0752   -7.4566 C.ar    1  UNL1       -0.0496
     31 C          14.7192    7.0871   -8.3299 C.ar    1  UNL1       -0.0610
     32 C          14.0931    8.3335   -8.3252 C.ar    1  UNL1       -0.0617
     33 C          13.0768    8.5914   -7.4076 C.ar    1  UNL1       -0.0610
     34 C          12.6660    7.5986   -6.5111 C.ar    1  UNL1       -0.0496
     35 H           5.0940    8.5072   -0.8335 H       1  UNL1        0.0340
     36 H           6.2845    7.8366   -1.9551 H       1  UNL1        0.0340
     37 H           6.3574    7.4429   -0.2055 H       1  UNL1        0.0340
     38 H           6.4076    4.7096   -0.8576 H       1  UNL1        0.0377
     39 H           6.2849    5.0997   -2.6007 H       1  UNL1        0.0377
     40 H           4.1024    3.8099   -2.6779 H       1  UNL1        0.0296
     41 H           4.2621    3.4689   -0.9708 H       1  UNL1        0.0296
     42 H           5.1892    1.9260   -3.2475 H       1  UNL1        0.0615
     43 H           4.2800    1.3855   -0.6743 H       1  UNL1        0.1498
     44 H           7.2909   -1.5745    0.0105 H       1  UNL1        0.0625
     45 H           6.7616   -3.5179    1.4113 H       1  UNL1        0.0621
     46 H           5.8652   -5.6665    1.7462 H       1  UNL1        0.0238
     47 H           4.2901   -5.9050    0.9799 H       1  UNL1        0.0238
     48 H           4.5616   -6.4342    2.6491 H       1  UNL1        0.0238
     49 H           6.1252   -3.9250    3.6401 H       1  UNL1        0.0238
     50 H           4.8213   -4.7134    4.5254 H       1  UNL1        0.0238
     51 H           4.7258   -2.9819    4.1610 H       1  UNL1        0.0238
     52 H           2.2271   -4.6231    1.8482 H       1  UNL1        0.0238
     53 H           2.4156   -3.4252    3.1452 H       1  UNL1        0.0238
     54 H           2.5883   -5.1454    3.4955 H       1  UNL1        0.0238
     55 H           2.5541   -2.5514    1.0594 H       1  UNL1        0.0621
     56 H           3.0866   -0.7264   -0.4322 H       1  UNL1        0.0625
     57 H           9.4227    2.1134   -3.5026 H       1  UNL1        0.0796
     58 H           9.3841    3.4061   -2.2543 H       1  UNL1        0.0796
     59 H          11.6061    3.7115   -3.8583 H       1  UNL1        0.1729
     60 H          10.7555    5.6855   -5.8897 H       1  UNL1        0.1731
     61 H          14.7618    5.0981   -7.5069 H       1  UNL1        0.0625
     62 H          15.5511    6.9130   -9.0113 H       1  UNL1        0.0618
     63 H          14.4011    9.1059   -9.0283 H       1  UNL1        0.0618
     64 H          12.6141    9.5750   -7.3761 H       1  UNL1        0.0618
     65 H          11.9100    7.8395   -5.7701 H       1  UNL1        0.0625
@<TRIPOS>BOND
     1     1     2    1
     2     2     3    1
     3     3     4    1
     4     6     7   am
     5     7     8    2
     6     7     9    1
     7     9    10   ar
     8    10    11   ar
     9    11    12   ar
    10    12    13    1
    11    13    14    1
    12    13    15    1
    13    13    16    1
    14    12    17   ar
    15    17    18   ar
    16     9    18   ar
    17     5    19    1
    18    19    20    2
    19    19    21    1
    20    21    22    1
    21    22    23    1
    22    23    24    2
    23    23    25   am
    24    25    26    1
    25    26    27   am
    26    27    28    2
    27    27    29    1
    28    29    30   ar
    29    30    31   ar
    30    31    32   ar
    31    32    33   ar
    32    33    34   ar
    33    29    34   ar
    34     5     6    1
    35     5     4    1
    36     1    35    1
    37     1    36    1
    38     1    37    1
    39     3    38    1
    40     3    39    1
    41     4    40    1
    42     4    41    1
    43     5    42    1
    44     6    43    1
    45    10    44    1
    46    11    45    1
    47    14    46    1
    48    14    47    1
    49    14    48    1
    50    15    49    1
    51    15    50    1
    52    15    51    1
    53    16    52    1
    54    16    53    1
    55    16    54    1
    56    17    55    1
    57    18    56    1
    58    22    57    1
    59    22    58    1
    60    25    59    1
    61    26    60    1
    62    30    61    1
    63    31    62    1
    64    32    63    1
    65    33    64    1
    66    34    65    1
