@<TRIPOS>MOLECULE
*****
 37 38 0 0 0
SMALL
GASTEIGER

@<TRIPOS>ATOM
      1 C           0.9287   -0.1515   -0.0467 C.3     1  UNL1       -0.0439
      2 C           2.4131    0.1507    0.0260 C.3     1  UNL1        0.0492
      3 N           2.6321    1.5996    0.3813 N.pl3   1  UNL1       -0.3225
      4 C           2.4454    2.5267   -0.6654 C.ar    1  UNL1        0.1375
      5 N           3.5506    3.1438   -1.1621 N.ar    1  UNL1       -0.2383
      6 C           3.3747    4.0492   -2.1819 C.ar    1  UNL1        0.0419
      7 C           2.1599    4.3040   -2.8028 C.ar    1  UNL1        0.0561
      8 C           1.9233    5.2642   -3.9097 C.2     1  UNL1        0.2430
      9 N           2.9755    5.9853   -4.3970 N.am    1  UNL1       -0.3253
     10 O           0.8086    5.4181   -4.3807 O.2     1  UNL1       -0.2704
     11 C           1.0481    3.6565   -2.2889 C.ar    1  UNL1       -0.0265
     12 C           1.1744    2.8572   -1.1613 C.ar    1  UNL1        0.0813
     13 CL         -0.3070    2.5952   -0.3038 Cl      1  UNL1       -0.0800
     14 C           3.0503   -0.8076    1.0877 C.3     1  UNL1        0.0981
     15 O           2.5972   -2.1594    0.9065 O.3     1  UNL1       -0.3853
     16 C           4.5650   -0.8294    1.0677 C.ar    1  UNL1       -0.0173
     17 C           5.3102    0.0224    0.2362 C.ar    1  UNL1       -0.0550
     18 C           6.6937    0.0635    0.2901 C.ar    1  UNL1       -0.0474
     19 C           7.3622   -0.7952    1.1471 C.ar    1  UNL1        0.0179
     20 BR          9.2467   -0.7438    1.1981 Br      1  UNL1       -0.0503
     21 C           6.6548   -1.6887    1.9510 C.ar    1  UNL1       -0.0474
     22 C           5.2586   -1.7019    1.9186 C.ar    1  UNL1       -0.0550
     23 H           0.5387    0.2516   -0.9820 H       1  UNL1        0.0248
     24 H           0.4357    0.2874    0.8257 H       1  UNL1        0.0248
     25 H           0.6737   -1.2110   -0.0725 H       1  UNL1        0.0248
     26 H           2.8468   -0.0957   -0.9562 H       1  UNL1        0.0524
     27 H           3.5813    1.7479    0.7266 H       1  UNL1        0.1479
     28 H           4.2777    4.5809   -2.4703 H       1  UNL1        0.0838
     29 H           3.9257    5.9443   -4.0714 H       1  UNL1        0.1453
     30 H           2.7618    6.6298   -5.1499 H       1  UNL1        0.1453
     31 H           0.0584    3.8352   -2.7007 H       1  UNL1        0.0641
     32 H           2.7124   -0.4953    2.0848 H       1  UNL1        0.0662
     33 H           2.9093   -2.4614    0.0366 H       1  UNL1        0.2103
     34 H           4.8454    0.6964   -0.4766 H       1  UNL1        0.0621
     35 H           7.2174    0.7725   -0.3441 H       1  UNL1        0.0629
     36 H           7.1797   -2.3725    2.6108 H       1  UNL1        0.0629
     37 H           4.7106   -2.3976    2.5552 H       1  UNL1        0.0621
@<TRIPOS>BOND
     1     1     2    1
     2     2     3    1
     3     3     4    1
     4     4     5   ar
     5     5     6   ar
     6     6     7   ar
     7     7     8    1
     8     8     9   am
     9     8    10    2
    10     7    11   ar
    11    11    12   ar
    12     4    12   ar
    13    12    13    1
    14     2    14    1
    15    14    15    1
    16    14    16    1
    17    16    17   ar
    18    17    18   ar
    19    18    19   ar
    20    19    20    1
    21    19    21   ar
    22    21    22   ar
    23    16    22   ar
    24     1    23    1
    25     1    24    1
    26     1    25    1
    27     2    26    1
    28     3    27    1
    29     6    28    1
    30     9    29    1
    31     9    30    1
    32    11    31    1
    33    14    32    1
    34    15    33    1
    35    17    34    1
    36    18    35    1
    37    21    36    1
    38    22    37    1
