@<TRIPOS>MOLECULE
*****
 45 49 0 0 0
SMALL
GASTEIGER

@<TRIPOS>ATOM
      1 O           1.0309    0.0157    0.0040 O.2     1  UNL1       -0.2746
      2 C           2.2594   -0.0947    0.0332 C.2     1  UNL1        0.2275
      3 C           3.0000   -1.4331    0.2525 C.3     1  UNL1        0.0779
      4 S           1.8456   -2.7737    0.6076 S.3     1  UNL1       -0.0763
      5 C           2.7690   -4.2465    0.5819 C.ar    1  UNL1        0.1977
      6 N           4.0522   -4.3733    0.8465 N.ar    1  UNL1       -0.1203
      7 N           4.3486   -5.7263    0.8838 N.ar    1  UNL1       -0.1095
      8 C           3.2436   -6.3838    0.6199 C.ar    1  UNL1        0.2372
      9 N           3.0461   -7.7393    0.5471 N.ar    1  UNL1       -0.2911
     10 C           1.8156   -8.2858    0.2206 C.ar    1  UNL1        0.2562
     11 O           1.6399   -9.4672    0.1388 O.2     1  UNL1       -0.2675
     12 C           0.6994   -7.2976   -0.0349 C.ar    1  UNL1        0.0368
     13 C           0.9226   -5.9677    0.0579 C.ar    1  UNL1        0.0373
     14 N           2.2026   -5.5008    0.3930 N.ar    1  UNL1       -0.2598
     15 C          -0.1803   -4.9794   -0.2138 C.3     1  UNL1       -0.0113
     16 C          -1.3776   -5.5866   -0.9253 C.3     1  UNL1       -0.0474
     17 C          -1.7738   -6.8757   -0.2291 C.3     1  UNL1       -0.0485
     18 C          -0.6431   -7.8959   -0.3725 C.3     1  UNL1       -0.0209
     19 N           3.0079    1.0627   -0.0612 N.am    1  UNL1       -0.2847
     20 C           4.3931    1.1765   -0.2176 C.ar    1  UNL1        0.0371
     21 C           5.1405    1.9961    0.6074 C.ar    1  UNL1       -0.0368
     22 C           6.5285    1.7736    0.6294 C.ar    1  UNL1       -0.0144
     23 C           7.1060    0.9307   -0.3462 C.ar    1  UNL1        0.1663
     24 C           6.4296    0.7772   -1.5137 C.ar    1  UNL1        0.1680
     25 C           5.0517    0.5564   -1.2858 C.ar    1  UNL1        0.0051
     26 O           7.2358   -0.0443   -2.3348 O.3     1  UNL1       -0.4525
     27 C           7.1490   -1.1316   -1.4609 C.3     1  UNL1        0.2332
     28 O           7.2764   -0.5488   -0.1083 O.3     1  UNL1       -0.4526
     29 H           3.6681   -1.3277    1.1105 H       1  UNL1        0.0475
     30 H           3.5562   -1.6928   -0.6462 H       1  UNL1        0.0475
     31 H           3.8093   -8.3772    0.7251 H       1  UNL1        0.1719
     32 H           0.1706   -4.1762   -0.8651 H       1  UNL1        0.0328
     33 H          -0.5060   -4.5543    0.7450 H       1  UNL1        0.0328
     34 H          -1.1082   -5.7877   -1.9705 H       1  UNL1        0.0269
     35 H          -2.2009   -4.8660   -0.9330 H       1  UNL1        0.0269
     36 H          -2.7015   -7.2674   -0.6550 H       1  UNL1        0.0269
     37 H          -1.9579   -6.6774    0.8354 H       1  UNL1        0.0269
     38 H          -0.6132   -8.2565   -1.4088 H       1  UNL1        0.0315
     39 H          -0.8655   -8.7552    0.2686 H       1  UNL1        0.0315
     40 H           2.4659    1.9171    0.0190 H       1  UNL1        0.1548
     41 H           4.6762    2.7486    1.2411 H       1  UNL1        0.0637
     42 H           7.1303    2.5293    1.1464 H       1  UNL1        0.0656
     43 H           4.5342   -0.2090   -1.8488 H       1  UNL1        0.0674
     44 H           7.4259   -2.2045   -1.4184 H       1  UNL1        0.1166
     45 H           6.2574   -1.4796   -2.0482 H       1  UNL1        0.1166
@<TRIPOS>BOND
     1     1     2    2
     2     2     3    1
     3     3     4    1
     4     4     5    1
     5     5     6   ar
     6     6     7   ar
     7     7     8   ar
     8     8     9   ar
     9     9    10   ar
    10    10    11    2
    11    10    12   ar
    12    12    13   ar
    13    13    14   ar
    14     5    14   ar
    15     8    14   ar
    16    13    15    1
    17    15    16    1
    18    16    17    1
    19    17    18    1
    20    12    18    1
    21     2    19   am
    22    19    20    1
    23    20    21   ar
    24    21    22   ar
    25    22    23   ar
    26    23    24   ar
    27    24    25   ar
    28    20    25   ar
    29    24    26    1
    30    26    27    1
    31    27    28    1
    32    23    28    1
    33     3    29    1
    34     3    30    1
    35     9    31    1
    36    15    32    1
    37    15    33    1
    38    16    34    1
    39    16    35    1
    40    17    36    1
    41    17    37    1
    42    18    38    1
    43    18    39    1
    44    19    40    1
    45    21    41    1
    46    22    42    1
    47    25    43    1
    48    27    44    1
    49    27    45    1
