@<TRIPOS>MOLECULE
*****
 40 40 0 0 0
SMALL
GASTEIGER

@<TRIPOS>ATOM
      1 C           1.0015   -0.1040    0.1094 C.3     1  UNL1       -0.0600
      2 C           2.4981    0.0056   -0.1101 C.3     1  UNL1       -0.0133
      3 C           2.9296    0.6506   -1.4347 C.2     1  UNL1        0.0671
      4 N           2.1392    1.1195   -2.3534 N.2     1  UNL1       -0.0958
      5 O           0.7779    1.0399   -2.1446 O.2     1  UNL1       -0.4092
      6 C           4.4593    0.7820   -1.7162 C.3     1  UNL1        0.0560
      7 C           5.1353   -0.5918   -1.6669 C.3     1  UNL1       -0.0504
      8 C           4.7740    1.4882   -3.0653 C.2     1  UNL1        0.1421
      9 O           3.9123    1.9246   -3.8337 O.2     1  UNL1       -0.2967
     10 C           6.2114    1.7104   -3.4669 C.3     1  UNL1        0.0147
     11 C           6.2569    2.4093   -4.8445 C.3     1  UNL1        0.0309
     12 C           7.6831    2.6039   -5.2858 C.2     1  UNL1        0.2176
     13 O           8.6135    2.2385   -4.5578 O.2     1  UNL1       -0.2755
     14 N           7.8494    3.2384   -6.5096 N.am    1  UNL1       -0.2855
     15 C           9.1416    3.4926   -7.0274 C.ar    1  UNL1        0.0335
     16 C          10.1393    2.5152   -6.9297 C.ar    1  UNL1       -0.0391
     17 C          11.4353    2.7635   -7.3797 C.ar    1  UNL1       -0.0416
     18 C          11.7457    4.0039   -7.9227 C.ar    1  UNL1        0.0411
     19 CL         13.3568    4.3256   -8.4337 Cl      1  UNL1       -0.0835
     20 C          10.7579    4.9819   -8.0501 C.ar    1  UNL1       -0.0416
     21 C           9.4453    4.7195   -7.6245 C.ar    1  UNL1       -0.0391
     22 H           0.7450   -0.5870    1.0523 H       1  UNL1        0.0233
     23 H           0.5508   -0.7040   -0.6907 H       1  UNL1        0.0233
     24 H           0.5483    0.8939    0.1216 H       1  UNL1        0.0233
     25 H           2.9159   -1.0057   -0.0664 H       1  UNL1        0.0324
     26 H           2.9464    0.5759    0.7121 H       1  UNL1        0.0324
     27 H           0.4199    1.4483   -2.9536 H       1  UNL1        0.3278
     28 H           4.8799    1.4061   -0.9146 H       1  UNL1        0.0436
     29 H           4.7307   -1.2500   -2.4425 H       1  UNL1        0.0240
     30 H           4.9959   -1.0879   -0.7005 H       1  UNL1        0.0240
     31 H           6.2181   -0.5238   -1.8163 H       1  UNL1        0.0240
     32 H           6.7219    0.7454   -3.5343 H       1  UNL1        0.0346
     33 H           6.7022    2.3254   -2.7048 H       1  UNL1        0.0346
     34 H           5.7532    3.3830   -4.7916 H       1  UNL1        0.0362
     35 H           5.7341    1.7978   -5.5920 H       1  UNL1        0.0362
     36 H           7.0653    3.7456   -6.9062 H       1  UNL1        0.1548
     37 H           9.9117    1.5388   -6.5090 H       1  UNL1        0.0636
     38 H          12.1886    1.9866   -7.2902 H       1  UNL1        0.0633
     39 H          11.0126    5.9545   -8.4645 H       1  UNL1        0.0633
     40 H           8.7041    5.5105   -7.7000 H       1  UNL1        0.0636
@<TRIPOS>BOND
     1     1     2    1
     2     2     3    1
     3     3     4    2
     4     4     5    1
     5     3     6    1
     6     6     7    1
     7     6     8    1
     8     8     9    2
     9     8    10    1
    10    10    11    1
    11    11    12    1
    12    12    13    2
    13    12    14   am
    14    14    15    1
    15    15    16   ar
    16    16    17   ar
    17    17    18   ar
    18    18    19    1
    19    18    20   ar
    20    20    21   ar
    21    15    21   ar
    22     1    22    1
    23     1    23    1
    24     1    24    1
    25     2    25    1
    26     2    26    1
    27     5    27    1
    28     6    28    1
    29     7    29    1
    30     7    30    1
    31     7    31    1
    32    10    32    1
    33    10    33    1
    34    11    34    1
    35    11    35    1
    36    14    36    1
    37    16    37    1
    38    17    38    1
    39    20    39    1
    40    21    40    1
