REMARK  14 active torsions:
REMARK  status: ('A' for Active; 'I' for Inactive)
REMARK    1  A    between atoms: C_2  and  C_3 
REMARK       I    between atoms: C_2  and  N_21 
REMARK    2  A    between atoms: C_3  and  N_4 
REMARK    3  A    between atoms: N_4  and  C_5 
REMARK    4  A    between atoms: C_8  and  O_9 
REMARK    5  A    between atoms: O_9  and  C_10 
REMARK    6  A    between atoms: C_10  and  C_11 
REMARK    7  A    between atoms: C_11  and  O_12 
REMARK    8  A    between atoms: O_12  and  C_13 
REMARK    9  A    between atoms: N_21  and  C_22 
REMARK   10  A    between atoms: C_25  and  O_26 
REMARK   11  A    between atoms: O_26  and  C_27 
REMARK   12  A    between atoms: C_27  and  C_28 
REMARK   13  A    between atoms: C_28  and  O_29 
REMARK   14  A    between atoms: O_29  and  C_30 
ROOT
ATOM      1  O   UNL d   1       1.097  -0.108  -0.065  0.00  0.00    -0.271 OA
ATOM      2  C   UNL d   1       2.333  -0.086   0.046  0.00  0.00     0.239 C 
ATOM      3  N   UNL d   1       3.113  -0.037  -1.095  0.00  0.00    -0.326 N 
ATOM      4  H   UNL d   1       2.589   0.113  -1.950  0.00  0.00     0.169 HD
ENDROOT
BRANCH   2   5
ATOM      5  C   UNL d   1       3.031   0.008   1.413  0.00  0.00     0.223 C 
BRANCH   5   6
ATOM      6  N   UNL d   1       2.110   0.006   2.539  0.00  0.00    -0.381 N 
ATOM      7  H   UNL d   1       1.119  -0.088   2.338  0.00  0.00     0.160 HD
BRANCH   6   8
ATOM      8  C   UNL d   1       2.565   0.125   3.837  0.00  0.00     0.028 A 
ATOM      9  C   UNL d   1       1.987  -0.625   4.864  0.00  0.00     0.032 A 
ATOM     10  C   UNL d   1       2.399  -0.465   6.198  0.00  0.00     0.039 A 
ATOM     11  C   UNL d   1       3.454   0.392   6.523  0.00  0.00     0.069 A 
ATOM     12  C   UNL d   1       4.064   1.107   5.497  0.00  0.00     0.039 A 
ATOM     13  C   UNL d   1       3.638   0.955   4.173  0.00  0.00     0.032 A 
BRANCH  11  14
ATOM     14  O   UNL d   1       3.813   0.442   7.846  0.00  0.00    -0.349 OA
BRANCH  14  15
ATOM     15  C   UNL d   1       4.958   1.245   8.165  0.00  0.00     0.202 C 
BRANCH  15  16
ATOM     16  C   UNL d   1       5.289   1.120   9.655  0.00  0.00     0.202 C 
BRANCH  16  17
ATOM     17  O   UNL d   1       6.348   2.032   9.974  0.00  0.00    -0.349 OA
BRANCH  17  18
ATOM     18  C   UNL d   1       6.839   1.965  11.252  0.00  0.00     0.068 A 
ATOM     19  C   UNL d   1       7.260   3.174  11.815  0.00  0.00     0.037 A 
ATOM     20  C   UNL d   1       7.896   3.195  13.060  0.00  0.00     0.003 A 
ATOM     21  C   UNL d   1       8.068   2.012  13.774  0.00  0.00     0.000 A 
ATOM     22  C   UNL d   1       7.641   0.805  13.223  0.00  0.00     0.003 A 
ATOM     23  C   UNL d   1       7.040   0.780  11.959  0.00  0.00     0.037 A 
ENDBRANCH  17  18
ENDBRANCH  16  17
ENDBRANCH  15  16
ENDBRANCH  14  15
ENDBRANCH  11  14
ENDBRANCH   6   8
ENDBRANCH   5   6
ENDBRANCH   2   5
BRANCH   3  24
ATOM     24  C   UNL d   1       4.514  -0.130  -1.183  0.00  0.00     0.034 A 
ATOM     25  C   UNL d   1       5.218   0.604  -2.138  0.00  0.00     0.032 A 
ATOM     26  C   UNL d   1       6.620   0.487  -2.219  0.00  0.00     0.039 A 
ATOM     27  C   UNL d   1       7.329  -0.322  -1.321  0.00  0.00     0.069 A 
ATOM     28  C   UNL d   1       6.612  -1.080  -0.406  0.00  0.00     0.039 A 
ATOM     29  C   UNL d   1       5.224  -1.010  -0.371  0.00  0.00     0.032 A 
BRANCH  27  30
ATOM     30  O   UNL d   1       8.697  -0.317  -1.417  0.00  0.00    -0.349 OA
BRANCH  30  31
ATOM     31  C   UNL d   1       9.400  -1.083  -0.424  0.00  0.00     0.202 C 
BRANCH  31  32
ATOM     32  C   UNL d   1      10.909  -0.916  -0.605  0.00  0.00     0.202 C 
BRANCH  32  33
ATOM     33  O   UNL d   1      11.587  -1.787   0.309  0.00  0.00    -0.349 OA
BRANCH  33  34
ATOM     34  C   UNL d   1      12.952  -1.674   0.346  0.00  0.00     0.068 A 
ATOM     35  C   UNL d   1      13.663  -2.855   0.581  0.00  0.00     0.037 A 
ATOM     36  C   UNL d   1      15.049  -2.825   0.763  0.00  0.00     0.003 A 
ATOM     37  C   UNL d   1      15.739  -1.619   0.661  0.00  0.00     0.000 A 
ATOM     38  C   UNL d   1      15.036  -0.441   0.417  0.00  0.00     0.003 A 
ATOM     39  C   UNL d   1      13.645  -0.466   0.274  0.00  0.00     0.037 A 
ENDBRANCH  33  34
ENDBRANCH  32  33
ENDBRANCH  31  32
ENDBRANCH  30  31
ENDBRANCH  27  30
ENDBRANCH   3  24
TORSDOF 14
