@<TRIPOS>MOLECULE
*****
 67 69 0 0 0
SMALL
GASTEIGER

@<TRIPOS>ATOM
      1 C           1.1084   -0.0639   -0.0066 C.3     1  UNL1       -0.0306
      2 C           2.6355   -0.0672   -0.0279 C.3     1  UNL1        0.0900
      3 O           3.1449    0.5279   -1.2462 O.3     1  UNL1       -0.4614
      4 C           4.5036    0.5163   -1.3936 C.2     1  UNL1        0.3392
      5 O           5.3109    0.0710   -0.5774 O.2     1  UNL1       -0.2450
      6 C           4.9395    1.1784   -2.6672 C.ar    1  UNL1        0.0609
      7 C           5.9523    0.7746   -3.5006 C.ar    1  UNL1       -0.0459
      8 C           6.3052    1.5963   -4.6058 C.ar    1  UNL1       -0.0381
      9 C           5.6637    2.8442   -4.9312 C.ar    1  UNL1        0.0516
     10 N           6.0248    3.4509   -6.1346 N.pl3   1  UNL1       -0.3183
     11 C           6.4695    4.8304   -6.3189 C.3     1  UNL1        0.0525
     12 C           5.4263    5.6166   -7.1575 C.3     1  UNL1       -0.0158
     13 N           5.0584    4.9071   -8.4830 N.4     1  UNL1        0.2373
     14 C           3.8990    5.6232   -9.1736 C.3     1  UNL1       -0.0347
     15 C           3.6401    5.0786  -10.5686 C.3     1  UNL1       -0.0245
     16 C           4.7769    3.3932   -8.2560 C.3     1  UNL1       -0.0158
     17 C           5.8888    2.7187   -7.4120 C.3     1  UNL1        0.0525
     18 C           4.6932    3.2997   -3.9908 C.ar    1  UNL1        0.0547
     19 N           4.0223    4.6006   -4.0017 N.am    1  UNL1       -0.2951
     20 C           3.0622    5.1146   -3.0566 C.2     1  UNL1        0.1411
     21 S           2.2297    4.2624   -1.8585 S.2     1  UNL1       -0.0182
     22 N           2.7563    6.4838   -3.2162 N.am    1  UNL1       -0.2635
     23 C           1.6032    7.0749   -2.6526 C.2     1  UNL1        0.2531
     24 O           0.9463    6.6434   -1.7067 O.2     1  UNL1       -0.2697
     25 C           1.0524    8.3364   -3.1488 C.ar    1  UNL1        0.0789
     26 C           0.7384    9.2247   -2.0880 C.ar    1  UNL1       -0.0461
     27 C          -0.0484   10.3467   -2.2893 C.ar    1  UNL1       -0.0606
     28 C          -0.4739   10.6387   -3.5733 C.ar    1  UNL1       -0.0553
     29 C          -0.2032    9.7560   -4.6359 C.ar    1  UNL1       -0.0080
     30 C          -0.7733   10.0712   -5.9917 C.3     1  UNL1       -0.0362
     31 C           0.5352    8.5643   -4.4318 C.ar    1  UNL1        0.1351
     32 O           0.5684    7.7685   -5.5511 O.3     1  UNL1       -0.4941
     33 C           1.2089    6.5149   -5.5098 C.3     1  UNL1        0.0788
     34 C           4.3841    2.4110   -2.9453 C.ar    1  UNL1       -0.0247
     35 H           0.7289   -0.5604    0.8956 H       1  UNL1        0.0262
     36 H           0.6999   -0.5852   -0.8780 H       1  UNL1        0.0262
     37 H           0.7089    0.9556   -0.0228 H       1  UNL1        0.0262
     38 H           2.9815   -1.1042    0.0274 H       1  UNL1        0.0695
     39 H           3.0017    0.4865    0.8451 H       1  UNL1        0.0695
     40 H           6.4619   -0.1632   -3.2995 H       1  UNL1        0.0626
     41 H           7.1549    1.2591   -5.2019 H       1  UNL1        0.0637
     42 H           7.4130    4.8190   -6.8874 H       1  UNL1        0.0516
     43 H           6.6940    5.3174   -5.3661 H       1  UNL1        0.0516
     44 H           5.8008    6.6154   -7.4056 H       1  UNL1        0.0830
     45 H           4.4850    5.7171   -6.6155 H       1  UNL1        0.0830
     46 H           5.8763    4.9828   -9.1032 H       1  UNL1        0.2034
     47 H           4.1645    6.6853   -9.2374 H       1  UNL1        0.0812
     48 H           3.0154    5.5147   -8.5355 H       1  UNL1        0.0812
     49 H           4.5030    5.2306  -11.2242 H       1  UNL1        0.0281
     50 H           2.7838    5.5931  -11.0206 H       1  UNL1        0.0281
     51 H           3.3949    4.0138  -10.5566 H       1  UNL1        0.0281
     52 H           4.7166    2.9226   -9.2414 H       1  UNL1        0.0830
     53 H           3.8115    3.3288   -7.7439 H       1  UNL1        0.0830
     54 H           6.8333    2.7751   -7.9744 H       1  UNL1        0.0516
     55 H           5.6686    1.6537   -7.2795 H       1  UNL1        0.0516
     56 H           4.3028    5.1842   -4.7655 H       1  UNL1        0.1539
     57 H           3.2955    7.0562   -3.8459 H       1  UNL1        0.1568
     58 H           1.0423    8.9835   -1.0661 H       1  UNL1        0.0626
     59 H          -0.3520   10.9639   -1.4468 H       1  UNL1        0.0618
     60 H          -1.0489   11.5476   -3.7379 H       1  UNL1        0.0621
     61 H          -1.3050   11.0274   -5.9924 H       1  UNL1        0.0279
     62 H          -1.4824    9.2925   -6.2906 H       1  UNL1        0.0279
     63 H           0.0384   10.1351   -6.7221 H       1  UNL1        0.0279
     64 H           1.1000    5.9849   -6.4578 H       1  UNL1        0.0660
     65 H           0.7924    5.8688   -4.7316 H       1  UNL1        0.0660
     66 H           2.2805    6.6928   -5.4396 H       1  UNL1        0.0660
     67 H           3.6714    2.6294   -2.1959 H       1  UNL1        0.0645
@<TRIPOS>UNITY_ATOM_ATTR
13 1
charge 1
@<TRIPOS>BOND
     1     1     2    1
     2     2     3    1
     3     3     4    1
     4     4     5    2
     5     4     6    1
     6     6     7   ar
     7     7     8   ar
     8     8     9   ar
     9     9    10    1
    10    10    11    1
    11    11    12    1
    12    12    13    1
    13    13    14    1
    14    14    15    1
    15    13    16    1
    16    16    17    1
    17    10    17    1
    18     9    18   ar
    19    18    19    1
    20    19    20    1
    21    20    21    2
    22    20    22    1
    23    22    23   am
    24    23    24    2
    25    23    25    1
    26    25    26   ar
    27    26    27   ar
    28    27    28   ar
    29    28    29   ar
    30    29    30    1
    31    29    31   ar
    32    25    31   ar
    33    31    32    1
    34    32    33    1
    35    18    34   ar
    36     6    34   ar
    37     1    35    1
    38     1    36    1
    39     1    37    1
    40     2    38    1
    41     2    39    1
    42     7    40    1
    43     8    41    1
    44    11    42    1
    45    11    43    1
    46    12    44    1
    47    12    45    1
    48    13    46    1
    49    14    47    1
    50    14    48    1
    51    15    49    1
    52    15    50    1
    53    15    51    1
    54    16    52    1
    55    16    53    1
    56    17    54    1
    57    17    55    1
    58    19    56    1
    59    22    57    1
    60    26    58    1
    61    27    59    1
    62    28    60    1
    63    30    61    1
    64    30    62    1
    65    30    63    1
    66    33    64    1
    67    33    65    1
    68    33    66    1
    69    34    67    1
