@<TRIPOS>MOLECULE
*****
 76 77 0 0 0
SMALL
GASTEIGER

@<TRIPOS>ATOM
      1 C           4.5994   -5.6981   -5.0218 C.3     1  UNL1       -0.0639
      2 C           4.5626   -4.3030   -4.4929 C.3     1  UNL1       -0.0400
      3 C           4.8899   -4.0441   -3.0503 C.3     1  UNL1        0.0156
      4 N           4.8832   -2.6190   -2.6250 N.am    1  UNL1       -0.2844
      5 C           4.7373   -1.5018   -3.4657 C.2     1  UNL1        0.2336
      6 O           4.9788   -0.3366   -3.1364 O.2     1  UNL1       -0.2739
      7 C           4.2515   -1.6417   -4.8880 C.3     1  UNL1        0.0886
      8 N           3.9475   -0.3930   -5.5141 N.am    1  UNL1       -0.3027
      9 C           3.5976   -0.4368   -6.8445 C.2     1  UNL1        0.2445
     10 O           3.4883   -1.4623   -7.4830 O.2     1  UNL1       -0.2702
     11 C           3.3846    0.8721   -7.4768 C.ar    1  UNL1        0.0367
     12 C           2.3725    1.0002   -8.4289 C.ar    1  UNL1       -0.0496
     13 C           2.2774    2.1811   -9.1586 C.ar    1  UNL1       -0.0610
     14 C           3.1441    3.2415   -8.8845 C.ar    1  UNL1       -0.0617
     15 C           4.1352    3.1139   -7.9103 C.ar    1  UNL1       -0.0610
     16 C           4.2639    1.9225   -7.2077 C.ar    1  UNL1       -0.0496
     17 C           5.3083   -2.4013   -1.2094 C.3     1  UNL1        0.1342
     18 C           4.3738   -1.4650   -0.4126 C.2     1  UNL1        0.2387
     19 O           3.7540   -1.9100    0.5583 O.2     1  UNL1       -0.2734
     20 N           4.2136   -0.1777   -0.9005 N.am    1  UNL1       -0.3085
     21 C           3.0899    0.6798   -0.5967 C.3     1  UNL1        0.0295
     22 C           1.8805   -0.1744   -0.9924 C.3     1  UNL1       -0.0440
     23 C           3.2394    0.9629    0.8948 C.3     1  UNL1       -0.0440
     24 C           3.0934    2.0376   -1.4372 C.3     1  UNL1       -0.0272
     25 C           1.8988    3.0434   -1.1854 C.3     1  UNL1       -0.0358
     26 C           0.5333    2.4447   -1.5550 C.3     1  UNL1       -0.0600
     27 C           1.8601    3.5490    0.2630 C.3     1  UNL1       -0.0600
     28 C           2.0349    4.3067   -2.0543 C.3     1  UNL1       -0.0600
     29 C           6.7979   -2.2047   -0.9863 C.ar    1  UNL1        0.0648
     30 C           7.6930   -3.2780   -0.7939 C.ar    1  UNL1        0.1292
     31 O           7.3809   -4.6079   -0.8913 O.3     1  UNL1       -0.5062
     32 C           9.0407   -3.0537   -0.4952 C.ar    1  UNL1        0.0219
     33 C           9.5262   -1.7566   -0.4384 C.ar    1  UNL1        0.1238
     34 O          10.8443   -1.4806   -0.2459 O.3     1  UNL1       -0.5065
     35 C           8.6840   -0.6823   -0.6217 C.ar    1  UNL1        0.0219
     36 C           7.3499   -0.9126   -0.9127 C.ar    1  UNL1        0.1292
     37 O           6.5912    0.1827   -1.1797 O.3     1  UNL1       -0.5062
     38 H           4.3498   -5.6321   -6.0888 H       1  UNL1        0.0230
     39 H           3.8544   -6.3131   -4.5206 H       1  UNL1        0.0230
     40 H           5.5993   -6.1200   -4.9235 H       1  UNL1        0.0230
     41 H           3.5461   -3.9642   -4.6731 H       1  UNL1        0.0278
     42 H           5.3205   -3.7873   -5.0799 H       1  UNL1        0.0278
     43 H           5.9035   -4.4189   -2.9007 H       1  UNL1        0.0465
     44 H           4.2179   -4.6101   -2.3910 H       1  UNL1        0.0465
     45 H           3.3133   -2.1864   -4.9376 H       1  UNL1        0.0558
     46 H           5.0772   -2.0312   -5.4796 H       1  UNL1        0.0558
     47 H           4.0169    0.4476   -4.9566 H       1  UNL1        0.1495
     48 H           1.6789    0.1818   -8.6096 H       1  UNL1        0.0625
     49 H           1.5450    2.2671   -9.9562 H       1  UNL1        0.0618
     50 H           3.0534    4.1699   -9.4413 H       1  UNL1        0.0618
     51 H           4.8292    3.9274   -7.7218 H       1  UNL1        0.0618
     52 H           5.0706    1.8027   -6.4892 H       1  UNL1        0.0625
     53 H           5.0652   -3.3477   -0.6939 H       1  UNL1        0.0650
     54 H           4.8574    0.1006   -1.6484 H       1  UNL1        0.1493
     55 H           1.9435   -1.2068   -0.6526 H       1  UNL1        0.0250
     56 H           1.7869   -0.2262   -2.0872 H       1  UNL1        0.0250
     57 H           0.9651    0.1534   -0.5314 H       1  UNL1        0.0250
     58 H           3.4881    0.0828    1.4823 H       1  UNL1        0.0250
     59 H           2.3207    1.2864    1.3543 H       1  UNL1        0.0250
     60 H           4.0557    1.6781    1.0677 H       1  UNL1        0.0250
     61 H           3.1238    1.8034   -2.5163 H       1  UNL1        0.0291
     62 H           4.0442    2.5731   -1.2700 H       1  UNL1        0.0291
     63 H           0.1966    1.7029   -0.8418 H       1  UNL1        0.0235
     64 H           0.5497    2.0095   -2.5612 H       1  UNL1        0.0235
     65 H          -0.2646    3.1891   -1.5075 H       1  UNL1        0.0235
     66 H           1.5073    2.7953    0.9554 H       1  UNL1        0.0235
     67 H           1.1288    4.3486    0.3979 H       1  UNL1        0.0235
     68 H           2.8444    3.9124    0.5808 H       1  UNL1        0.0235
     69 H           2.0052    4.0724   -3.1219 H       1  UNL1        0.0235
     70 H           2.9522    4.8575   -1.8301 H       1  UNL1        0.0235
     71 H           1.1915    4.9818   -1.8464 H       1  UNL1        0.0235
     72 H           6.4509   -4.7501   -1.1065 H       1  UNL1        0.2922
     73 H           9.6886   -3.9043   -0.3079 H       1  UNL1        0.0691
     74 H          11.3412   -2.3126   -0.2981 H       1  UNL1        0.2921
     75 H           9.0693    0.3286   -0.5661 H       1  UNL1        0.0691
     76 H           7.0337    1.0072   -0.9312 H       1  UNL1        0.2922
@<TRIPOS>BOND
     1     1     2    1
     2     2     3    1
     3     3     4    1
     4     4     5   am
     5     5     6    2
     6     5     7    1
     7     7     8    1
     8     8     9   am
     9     9    10    2
    10     9    11    1
    11    11    12   ar
    12    12    13   ar
    13    13    14   ar
    14    14    15   ar
    15    15    16   ar
    16    11    16   ar
    17    18    19    2
    18    18    20   am
    19    20    21    1
    20    21    22    1
    21    21    23    1
    22    21    24    1
    23    24    25    1
    24    25    26    1
    25    25    27    1
    26    25    28    1
    27    17    29    1
    28    29    30   ar
    29    30    31    1
    30    30    32   ar
    31    32    33   ar
    32    33    34    1
    33    33    35   ar
    34    35    36   ar
    35    29    36   ar
    36    36    37    1
    37    17    18    1
    38    17     4    1
    39     1    38    1
    40     1    39    1
    41     1    40    1
    42     2    41    1
    43     2    42    1
    44     3    43    1
    45     3    44    1
    46     7    45    1
    47     7    46    1
    48     8    47    1
    49    12    48    1
    50    13    49    1
    51    14    50    1
    52    15    51    1
    53    16    52    1
    54    17    53    1
    55    20    54    1
    56    22    55    1
    57    22    56    1
    58    22    57    1
    59    23    58    1
    60    23    59    1
    61    23    60    1
    62    24    61    1
    63    24    62    1
    64    26    63    1
    65    26    64    1
    66    26    65    1
    67    27    66    1
    68    27    67    1
    69    27    68    1
    70    28    69    1
    71    28    70    1
    72    28    71    1
    73    31    72    1
    74    32    73    1
    75    34    74    1
    76    35    75    1
    77    37    76    1
