@<TRIPOS>MOLECULE
*****
 46 48 0 0 0
SMALL
GASTEIGER

@<TRIPOS>ATOM
      1 C           2.4800   -0.0579    0.0247 C.3     1  UNL1       -0.0388
      2 C           0.9695   -0.0197    0.0740 C.ar    1  UNL1       -0.0334
      3 C           0.2584   -1.2264    0.0326 C.ar    1  UNL1        0.0192
      4 C          -1.1431   -1.2085    0.0225 C.ar    1  UNL1        0.2734
      5 N          -1.8776   -2.4791    0.0061 N.pl3   1  UNL1        0.0796
      6 O          -1.2233   -3.5267    0.0114 O.2     1  UNL1        0.0414
      7 O          -3.1197   -2.4234   -0.0056 O.co2   1  UNL1       -0.5760
      8 C          -1.8456    0.0030    0.0308 C.ar    1  UNL1        0.0163
      9 C          -1.1437    1.2076    0.0859 C.ar    1  UNL1       -0.0444
     10 C           0.2548    1.2053    0.1293 C.ar    1  UNL1        0.0206
     11 C           0.9676    2.4543   -0.0116 C.ar    1  UNL1        0.1359
     12 C           1.7944    2.8146   -1.0284 C.ar    1  UNL1       -0.0153
     13 C           2.3177    4.0326   -0.6459 C.ar    1  UNL1       -0.0158
     14 C           1.7788    4.4652    0.5644 C.ar    1  UNL1        0.1300
     15 C           2.0220    5.6846    1.3217 C.2     1  UNL1        0.0031
     16 C           2.8840    6.6601    0.9208 C.2     1  UNL1        0.1171
     17 C           3.6230    6.4246   -0.3864 C.1     1  UNL1        0.1045
     18 N           4.2361    6.2293   -1.4708 N.1     1  UNL1       -0.1907
     19 C           3.1106    7.9027    1.7338 C.2     1  UNL1        0.2587
     20 O           2.4886    8.0332    2.7920 O.2     1  UNL1       -0.2691
     21 N           3.9702    8.8785    1.2330 N.am    1  UNL1       -0.2797
     22 C           4.2940   10.0783    1.9483 C.ar    1  UNL1        0.0527
     23 C           4.4500   10.0434    3.3394 C.ar    1  UNL1       -0.0274
     24 C           4.8170   11.1837    4.0777 C.ar    1  UNL1        0.0566
     25 C           4.9999   11.0907    5.5737 C.3     1  UNL1        0.4175
     26 F           6.2534   11.4522    5.9641 F       1  UNL1       -0.1659
     27 F           4.1449   11.9001    6.2550 F       1  UNL1       -0.1659
     28 F           4.8061    9.8364    6.0669 F       1  UNL1       -0.1659
     29 C           5.0154   12.3967    3.4067 C.ar    1  UNL1       -0.0486
     30 C           4.8538   12.4594    2.0207 C.ar    1  UNL1       -0.0411
     31 C           4.5125   11.3049    1.2940 C.ar    1  UNL1        0.0622
     32 CL          4.2745   11.4656   -0.4096 Cl      1  UNL1       -0.0816
     33 O           0.9056    3.4327    0.9484 O.2     1  UNL1       -0.4554
     34 H           2.8643   -1.0814    0.0548 H       1  UNL1        0.0278
     35 H           2.8996    0.4834    0.8786 H       1  UNL1        0.0278
     36 H           2.8568    0.3813   -0.9049 H       1  UNL1        0.0278
     37 H           0.8035   -2.1681   -0.0001 H       1  UNL1        0.0688
     38 H          -2.9321    0.0280   -0.0176 H       1  UNL1        0.0685
     39 H          -1.6850    2.1515    0.0446 H       1  UNL1        0.0627
     40 H           2.0532    2.2554   -1.9145 H       1  UNL1        0.0656
     41 H           3.0401    4.4751   -1.2902 H       1  UNL1        0.0655
     42 H           1.4720    5.8024    2.2550 H       1  UNL1        0.0669
     43 H           4.2818    8.8570    0.2652 H       1  UNL1        0.1552
     44 H           4.3235    9.1038    3.8741 H       1  UNL1        0.0642
     45 H           5.2942   13.2927    3.9630 H       1  UNL1        0.0623
     46 H           4.9880   13.4168    1.5183 H       1  UNL1        0.0633
@<TRIPOS>UNITY_ATOM_ATTR
5 1
charge 1
7 1
charge -1
@<TRIPOS>BOND
     1     1     2    1
     2     2     3   ar
     3     3     4   ar
     4     4     5    1
     5     5     6    2
     6     5     7    1
     7     4     8   ar
     8     8     9   ar
     9     9    10   ar
    10     2    10   ar
    11    10    11    1
    12    11    12   ar
    13    12    13   ar
    14    13    14   ar
    15    14    15    1
    16    15    16    2
    17    16    17    1
    18    17    18    3
    19    16    19    1
    20    19    20    2
    21    19    21   am
    22    21    22    1
    23    22    23   ar
    24    23    24   ar
    25    24    25    1
    26    25    26    1
    27    25    27    1
    28    25    28    1
    29    24    29   ar
    30    29    30   ar
    31    30    31   ar
    32    22    31   ar
    33    31    32    1
    34    14    33   ar
    35    11    33   ar
    36     1    34    1
    37     1    35    1
    38     1    36    1
    39     3    37    1
    40     8    38    1
    41     9    39    1
    42    12    40    1
    43    13    41    1
    44    15    42    1
    45    21    43    1
    46    23    44    1
    47    29    45    1
    48    30    46    1
