REMARK  6 active torsions:
REMARK  status: ('A' for Active; 'I' for Inactive)
REMARK    1  A    between atoms: C_2  and  C_19 
REMARK    2  A    between atoms: N_3  and  N_4 
REMARK       I    between atoms: N_4  and  C_5 
REMARK    3  A    between atoms: C_5  and  C_7 
REMARK    4  A    between atoms: C_7  and  O_8 
REMARK    5  A    between atoms: O_8  and  C_9 
REMARK    6  A    between atoms: C_23  and  O_24 
ROOT
ATOM      1  N   UNL d   1       4.562  -0.842  -1.014  0.00  0.00    -0.245 N 
ATOM      2  C   UNL d   1       5.198  -1.545  -2.040  0.00  0.00     0.261 C 
ATOM      3  O   UNL d   1       4.583  -2.158  -2.919  0.00  0.00    -0.269 OA
ATOM      4  H   UNL d   1       5.103  -0.385  -0.291  0.00  0.00     0.192 HD
ENDROOT
BRANCH   2   5
ATOM      5  C   UNL d   1       6.748  -1.501  -1.996  0.00  0.00     0.280 C 
BRANCH   5   6
ATOM      6  O   UNL d   1       7.269  -2.214  -3.122  0.00  0.00    -0.342 OA
BRANCH   6   7
ATOM      7  C   UNL d   1       8.614  -2.423  -3.241  0.00  0.00     0.070 A 
ATOM      8  C   UNL d   1       9.493  -2.668  -2.193  0.00  0.00     0.037 A 
ATOM      9  C   UNL d   1      10.830  -3.006  -2.464  0.00  0.00     0.015 A 
ATOM     10  C   UNL d   1      11.305  -3.123  -3.783  0.00  0.00    -0.026 A 
ATOM     11  C   UNL d   1      12.627  -3.518  -4.061  0.00  0.00     0.012 A 
ATOM     12  C   UNL d   1      10.424  -2.855  -4.851  0.00  0.00    -0.023 A 
ATOM     13  C   UNL d   1      13.080  -3.636  -5.377  0.00  0.00     0.001 A 
ATOM     14  C   UNL d   1      12.219  -3.356  -6.432  0.00  0.00     0.001 A 
ATOM     15  C   UNL d   1      10.901  -2.967  -6.172  0.00  0.00     0.012 A 
ATOM     16  C   UNL d   1       9.088  -2.507  -4.559  0.00  0.00     0.049 A 
ENDBRANCH   6   7
ENDBRANCH   5   6
ENDBRANCH   2   5
BRANCH   1  17
ATOM     17  N   UNL d   1       3.179  -0.786  -0.969  0.00  0.00    -0.176 NA
ATOM     18  C   UNL d   1       2.559  -0.087  -0.058  0.00  0.00     0.061 C 
ATOM     19  C   UNL d   1       1.035  -0.084  -0.055  0.00  0.00     0.073 C 
BRANCH  18  20
ATOM     20  C   UNL d   1       3.206   0.776   0.961  0.00  0.00    -0.008 A 
ATOM     21  C   UNL d   1       2.859   0.711   2.315  0.00  0.00     0.013 A 
ATOM     22  C   UNL d   1       3.512   1.543   3.230  0.00  0.00     0.004 A 
ATOM     23  C   UNL d   1       4.516   2.418   2.799  0.00  0.00     0.036 A 
ATOM     24  C   UNL d   1       4.850   2.463   1.450  0.00  0.00     0.066 A 
ATOM     25  C   UNL d   1       4.179   1.677   0.529  0.00  0.00     0.050 A 
BRANCH  24  26
ATOM     26  O   UNL d   1       5.845   3.253   0.962  0.00  0.00    -0.361 OA
ATOM     27  H   UNL d   1       6.230   3.775   1.683  0.00  0.00     0.217 HD
ENDBRANCH  24  26
ENDBRANCH  18  20
ENDBRANCH   1  17
TORSDOF 6
