REMARK  9 active torsions:
REMARK  status: ('A' for Active; 'I' for Inactive)
REMARK    1  A    between atoms: C_2  and  O_3 
REMARK    2  A    between atoms: O_3  and  C_4 
REMARK    3  A    between atoms: C_6  and  N_7 
REMARK       I    between atoms: N_7  and  C_8 
REMARK       I    between atoms: C_8  and  N_10 
REMARK    4  A    between atoms: N_10  and  C_11 
REMARK    5  A    between atoms: C_11  and  C_12 
REMARK    6  A    between atoms: C_12  and  N_13 
REMARK    7  A    between atoms: N_13  and  C_14 
REMARK    8  A    between atoms: C_17  and  N_18 
REMARK    9  A    between atoms: C_25  and  O_26 
ROOT
ATOM      1  N   UNL d   1       6.788  -1.997  -3.794  0.00  0.00    -0.309 N 
ATOM      2  C   UNL d   1       8.078  -2.535  -3.914  0.00  0.00     0.320 C 
ATOM      3  O   UNL d   1       8.895  -2.670  -3.025  0.00  0.00    -0.247 OA
ATOM      4  N   UNL d   1       8.441  -2.932  -5.187  0.00  0.00    -0.341 N 
ATOM      5  H   UNL d   1       6.171  -2.036  -4.590  0.00  0.00     0.170 HD
ATOM      6  H   UNL d   1       7.787  -2.925  -5.952  0.00  0.00     0.164 HD
ENDROOT
BRANCH   1   7
ATOM      7  C   UNL d   1       6.212  -1.580  -2.537  0.00  0.00     0.039 C 
ATOM      8  C   UNL d   1       4.848  -1.207  -2.381  0.00  0.00     0.069 C 
ATOM      9  C   UNL d   1       4.242  -1.005  -1.083  0.00  0.00     0.104 C 
ATOM     10  C   UNL d   1       5.067  -1.175   0.056  0.00  0.00     0.101 C 
ATOM     11  C   UNL d   1       6.426  -1.436  -0.132  0.00  0.00     0.042 C 
ATOM     12  C   UNL d   1       6.984  -1.600  -1.386  0.00  0.00     0.032 C 
BRANCH   9  13
ATOM     13  O   UNL d   1       2.852  -0.887  -1.136  0.00  0.00    -0.349 OA
BRANCH  13  14
ATOM     14  C   UNL d   1       2.198   0.174  -0.434  0.00  0.00     0.171 C 
ATOM     15  C   UNL d   1       0.684   0.092  -0.323  0.00  0.00     0.034 C 
ENDBRANCH  13  14
ENDBRANCH   9  13
BRANCH  10  16
ATOM     16  O   UNL d   1       4.863  -1.228   1.412  0.00  0.00    -0.353 OA
ATOM     17  C   UNL d   1       3.636  -0.783   1.883  0.00  0.00     0.210 C 
ENDBRANCH  10  16
ENDBRANCH   1   7
BRANCH   4  18
ATOM     18  C   UNL d   1       9.803  -3.473  -5.370  0.00  0.00     0.144 C 
BRANCH  18  19
ATOM     19  C   UNL d   1      10.130  -3.905  -6.805  0.00  0.00     0.139 C 
BRANCH  19  20
ATOM     20  N   UNL d   1      11.479  -4.450  -6.942  0.00  0.00    -0.388 N 
ATOM     21  H   UNL d   1      12.068  -4.555  -6.121  0.00  0.00     0.159 HD
BRANCH  20  22
ATOM     22  C   UNL d   1      11.990  -4.854  -8.164  0.00  0.00     0.028 A 
ATOM     23  C   UNL d   1      12.727  -6.044  -8.258  0.00  0.00     0.031 A 
ATOM     24  C   UNL d   1      13.259  -6.480  -9.480  0.00  0.00     0.038 A 
ATOM     25  C   UNL d   1      12.994  -5.752 -10.644  0.00  0.00     0.103 A 
ATOM     26  C   UNL d   1      12.263  -4.564 -10.575  0.00  0.00     0.038 A 
ATOM     27  C   UNL d   1      11.761  -4.133  -9.342  0.00  0.00     0.031 A 
BRANCH  25  28
ATOM     28  N   UNL d   1      13.421  -6.272 -11.950  0.00  0.00    -0.116 N 
ATOM     29  O   UNL d   1      14.033  -7.349 -11.971  0.00  0.00    -0.532 OA
ATOM     30  O   UNL d   1      13.121  -5.616 -12.958  0.00  0.00    -0.532 OA
ENDBRANCH  25  28
ENDBRANCH  20  22
ENDBRANCH  19  20
ENDBRANCH  18  19
ENDBRANCH   4  18
TORSDOF 9
