REMARK  5 active torsions:
REMARK  status: ('A' for Active; 'I' for Inactive)
REMARK    1  A    between atoms: C_4  and  S_5 
REMARK    2  A    between atoms: S_5  and  C_6 
REMARK    3  A    between atoms: C_12  and  N_13 
REMARK    4  A    between atoms: C_14  and  N_13 
REMARK    5  A    between atoms: C_14  and  C_16 
REMARK       I    between atoms: C_16  and  N_18 
REMARK       I    between atoms: N_18  and  C_19 
REMARK       I    between atoms: C_19  and  N_20 
ROOT
ATOM      1  N   UNL d   1       3.120   1.762  -1.107  0.00  0.00    -0.377 N 
ATOM      2  H   UNL d   1       3.285   2.270  -1.970  0.00  0.00     0.160 HD
ENDROOT
BRANCH   1   3
ATOM      3  C   UNL d   1       2.815   0.403  -1.257  0.00  0.00     0.034 A 
ATOM      4  C   UNL d   1       2.317  -0.331  -0.187  0.00  0.00     0.031 A 
ATOM      5  C   UNL d   1       2.042  -1.685  -0.282  0.00  0.00     0.021 A 
ATOM      6  C   UNL d   1       2.309  -2.417  -1.425  0.00  0.00     0.002 A 
ATOM      7  C   UNL d   1       2.833  -1.708  -2.513  0.00  0.00     0.027 A 
ATOM      8  C   UNL d   1       3.083  -0.311  -2.442  0.00  0.00    -0.034 A 
ATOM      9  C   UNL d   1       3.609   0.392  -3.661  0.00  0.00     0.050 C 
BRANCH   6  10
ATOM     10  S   UNL d   1       2.045  -4.178  -1.581  0.00  0.00    -0.121 SA
BRANCH  10  11
ATOM     11  C   UNL d   1       1.357  -4.758   0.051  0.00  0.00     0.002 C 
ATOM     12  C   UNL d   1       2.366  -4.550   1.195  0.00  0.00     0.026 C 
ATOM     13  C   UNL d   1      -0.025  -4.137   0.318  0.00  0.00     0.026 C 
ATOM     14  C   UNL d   1       1.141  -6.282  -0.071  0.00  0.00     0.026 C 
ENDBRANCH  10  11
ENDBRANCH   6  10
ENDBRANCH   1   3
BRANCH   1  15
ATOM     15  C   UNL d   1       2.513   2.533   0.002  0.00  0.00     0.170 C 
ATOM     16  C   UNL d   1       0.973   2.496  -0.016  0.00  0.00     0.042 C 
BRANCH  15  17
ATOM     17  C   UNL d   1       2.933   4.015  -0.033  0.00  0.00     0.247 C 
ATOM     18  O   UNL d   1       2.095   4.920  -0.019  0.00  0.00    -0.271 OA
ATOM     19  N   UNL d   1       4.294   4.268  -0.020  0.00  0.00    -0.278 N 
ATOM     20  C   UNL d   1       4.878   5.507  -0.016  0.00  0.00     0.320 C 
ATOM     21  H   UNL d   1       4.946   3.494  -0.023  0.00  0.00     0.173 HD
ATOM     22  N   UNL d   1       4.045   6.571  -0.020  0.00  0.00    -0.352 N 
ATOM     23  O   UNL d   1       6.100   5.652  -0.009  0.00  0.00    -0.247 OA
ATOM     24  H   UNL d   1       3.037   6.426  -0.018  0.00  0.00     0.160 HD
ATOM     25  H   UNL d   1       4.404   7.513  -0.019  0.00  0.00     0.160 HD
ENDBRANCH  15  17
ENDBRANCH   1  15
TORSDOF 5
