@<TRIPOS>MOLECULE
*****
 60 62 0 0 0
SMALL
GASTEIGER

@<TRIPOS>ATOM
      1 O          -0.6504   -2.8828    2.6377 O.2     1  UNL1       -0.2689
      2 C          -0.9222   -1.7408    2.2603 C.2     1  UNL1        0.2577
      3 N          -0.4677   -1.1279    1.0982 N.am    1  UNL1       -0.2441
      4 N           0.4183   -1.8508    0.2092 N.3     1  UNL1       -0.2216
      5 C          -0.3760   -2.7611   -0.6556 C.3     1  UNL1        0.0460
      6 C          -1.1428   -3.8365    0.1338 C.3     1  UNL1        0.1033
      7 O          -0.3016   -4.7372    0.8570 O.3     1  UNL1       -0.3871
      8 C          -2.0289   -4.6944   -0.7194 C.3     1  UNL1        0.1166
      9 O          -2.8769   -3.8392   -1.4704 O.3     1  UNL1       -0.4894
     10 C          -3.8215   -4.5193   -2.1709 C.ar    1  UNL1        0.1206
     11 C          -4.0985   -4.0313   -3.4431 C.ar    1  UNL1       -0.0199
     12 C          -5.1008   -4.6275   -4.1996 C.ar    1  UNL1       -0.0583
     13 C          -5.7784   -5.7415   -3.7024 C.ar    1  UNL1       -0.0615
     14 C          -5.5001   -6.2230   -2.4257 C.ar    1  UNL1       -0.0583
     15 C          -4.5361   -5.5962   -1.6492 C.ar    1  UNL1       -0.0199
     16 C           1.1775   -0.9305   -0.6772 C.3     1  UNL1        0.0460
     17 C           2.1352    0.0122    0.0799 C.3     1  UNL1        0.1033
     18 O           1.3997    0.8411    1.0004 O.3     1  UNL1       -0.3871
     19 C           2.8908    0.9369   -0.8908 C.3     1  UNL1        0.1166
     20 O           3.5554    0.1634   -1.8811 O.3     1  UNL1       -0.4894
     21 C           4.3860    0.8299   -2.7363 C.ar    1  UNL1        0.1206
     22 C           4.5207    0.2458   -3.9977 C.ar    1  UNL1       -0.0199
     23 C           5.4833    0.7109   -4.8934 C.ar    1  UNL1       -0.0583
     24 C           6.2684    1.8108   -4.5579 C.ar    1  UNL1       -0.0615
     25 C           6.1069    2.4258   -3.3172 C.ar    1  UNL1       -0.0583
     26 C           5.1707    1.9332   -2.4024 C.ar    1  UNL1       -0.0199
     27 C          -1.7992   -0.9742    3.1570 C.ar    1  UNL1        0.0379
     28 C          -2.6470    0.0638    2.7642 C.ar    1  UNL1       -0.0496
     29 C          -3.3607    0.7498    3.7521 C.ar    1  UNL1       -0.0610
     30 C          -3.2942    0.3408    5.0906 C.ar    1  UNL1       -0.0617
     31 C          -2.5060   -0.7421    5.4602 C.ar    1  UNL1       -0.0610
     32 C          -1.7640   -1.3929    4.4938 C.ar    1  UNL1       -0.0496
     33 H          -0.2867   -0.1326    1.2102 H       1  UNL1        0.1695
     34 H           0.2980   -3.2727   -1.3548 H       1  UNL1        0.0470
     35 H          -1.0714   -2.1552   -1.2523 H       1  UNL1        0.0470
     36 H          -1.8557   -3.3398    0.7978 H       1  UNL1        0.0641
     37 H           0.4987   -4.9016    0.3399 H       1  UNL1        0.2100
     38 H          -2.5766   -5.3268   -0.0102 H       1  UNL1        0.0723
     39 H          -1.4257   -5.3317   -1.3725 H       1  UNL1        0.0723
     40 H          -3.5296   -3.1951   -3.8408 H       1  UNL1        0.0654
     41 H          -5.3573   -4.2206   -5.1725 H       1  UNL1        0.0619
     42 H          -6.5331   -6.2324   -4.3080 H       1  UNL1        0.0618
     43 H          -6.0422   -7.0715   -2.0201 H       1  UNL1        0.0619
     44 H          -4.3740   -5.9541   -0.6379 H       1  UNL1        0.0654
     45 H           0.4741   -0.3283   -1.2673 H       1  UNL1        0.0470
     46 H           1.7681   -1.5288   -1.3851 H       1  UNL1        0.0470
     47 H           2.8548   -0.5922    0.6476 H       1  UNL1        0.0641
     48 H           0.8103    1.4020    0.4687 H       1  UNL1        0.2100
     49 H           3.5740    1.5524   -0.2966 H       1  UNL1        0.0723
     50 H           2.1760    1.6071   -1.3851 H       1  UNL1        0.0723
     51 H           3.8840   -0.5895   -4.2775 H       1  UNL1        0.0654
     52 H           5.6370    0.1983   -5.8391 H       1  UNL1        0.0619
     53 H           7.0126    2.1812   -5.2581 H       1  UNL1        0.0618
     54 H           6.7387    3.2678   -3.0451 H       1  UNL1        0.0619
     55 H           5.1153    2.4045   -1.4279 H       1  UNL1        0.0654
     56 H          -2.7859    0.3264    1.7186 H       1  UNL1        0.0625
     57 H          -3.9735    1.6088    3.4899 H       1  UNL1        0.0618
     58 H          -3.8693    0.8574    5.8529 H       1  UNL1        0.0618
     59 H          -2.4454   -1.0842    6.4881 H       1  UNL1        0.0618
     60 H          -1.1478   -2.2466    4.7752 H       1  UNL1        0.0625
@<TRIPOS>BOND
     1     1     2    2
     2     2     3   am
     3     3     4    1
     4     4     5    1
     5     6     8    1
     6     8     9    1
     7     9    10    1
     8    10    11   ar
     9    11    12   ar
    10    12    13   ar
    11    13    14   ar
    12    14    15   ar
    13    10    15   ar
    14     4    16    1
    15    17    19    1
    16    19    20    1
    17    20    21    1
    18    21    22   ar
    19    22    23   ar
    20    23    24   ar
    21    24    25   ar
    22    25    26   ar
    23    21    26   ar
    24     2    27    1
    25    27    28   ar
    26    28    29   ar
    27    29    30   ar
    28    30    31   ar
    29    31    32   ar
    30    27    32   ar
    31    17    18    1
    32    17    16    1
    33     6     7    1
    34     6     5    1
    35     3    33    1
    36     5    34    1
    37     5    35    1
    38     6    36    1
    39     7    37    1
    40     8    38    1
    41     8    39    1
    42    11    40    1
    43    12    41    1
    44    13    42    1
    45    14    43    1
    46    15    44    1
    47    16    45    1
    48    16    46    1
    49    17    47    1
    50    18    48    1
    51    19    49    1
    52    19    50    1
    53    22    51    1
    54    23    52    1
    55    24    53    1
    56    25    54    1
    57    26    55    1
    58    28    56    1
    59    29    57    1
    60    30    58    1
    61    31    59    1
    62    32    60    1
