@<TRIPOS>MOLECULE
*****
 51 52 0 0 0
SMALL
GASTEIGER

@<TRIPOS>ATOM
      1 C           0.9522   -0.0403   -0.0550 C.3     1  UNL1       -0.0307
      2 C           2.4687   -0.0507   -0.0648 C.3     1  UNL1        0.0868
      3 O           2.8756    0.7234   -1.1963 O.3     1  UNL1       -0.4915
      4 C           4.2295    0.8512   -1.3494 C.ar    1  UNL1        0.1326
      5 C           5.0995   -0.2542   -1.2565 C.ar    1  UNL1       -0.0181
      6 C           6.4706   -0.1206   -1.5002 C.ar    1  UNL1       -0.0443
      7 C           6.9811    1.1192   -1.8532 C.ar    1  UNL1        0.0188
      8 BR          8.8312    1.3003   -2.2074 Br      1  UNL1       -0.0503
      9 C           6.1288    2.2203   -1.9548 C.ar    1  UNL1       -0.0321
     10 C           4.7347    2.1064   -1.7074 C.ar    1  UNL1        0.0797
     11 C           3.9153    3.3669   -1.8292 C.2     1  UNL1        0.2531
     12 O           4.5615    4.3757   -2.1270 O.2     1  UNL1       -0.2697
     13 N           2.5176    3.3768   -1.6018 N.am    1  UNL1       -0.2626
     14 C           1.6480    4.4905   -1.6712 C.2     1  UNL1        0.1533
     15 S           2.1179    6.0688   -2.0491 S.2     1  UNL1       -0.0170
     16 N           0.2960    4.2239   -1.3884 N.am    1  UNL1       -0.2454
     17 N          -0.6587    5.3198   -1.3967 N.am    1  UNL1       -0.2323
     18 C          -2.0040    5.1171   -1.0976 C.2     1  UNL1        0.2667
     19 O          -2.4363    3.9940   -0.8393 O.2     1  UNL1       -0.2705
     20 C          -2.8926    6.4007   -1.1477 C.3     1  UNL1        0.1666
     21 O          -4.2884    6.0882   -0.9926 O.3     1  UNL1       -0.4822
     22 C          -5.2188    7.1052   -1.0386 C.ar    1  UNL1        0.1270
     23 C          -5.3556    7.9954   -2.1206 C.ar    1  UNL1       -0.0085
     24 C          -4.5099    7.9791   -3.3585 C.3     1  UNL1       -0.0362
     25 C          -6.3836    8.9663   -2.1009 C.ar    1  UNL1       -0.0554
     26 C          -7.3083    9.0273   -1.0663 C.ar    1  UNL1       -0.0610
     27 C          -7.2239    8.1084   -0.0316 C.ar    1  UNL1       -0.0554
     28 C          -6.1969    7.1403   -0.0077 C.ar    1  UNL1       -0.0085
     29 C          -6.2032    6.1639    1.1390 C.3     1  UNL1       -0.0362
     30 H           0.5636   -0.6079    0.7935 H       1  UNL1        0.0262
     31 H           0.5642   -0.4758   -0.9825 H       1  UNL1        0.0262
     32 H           0.5726    0.9856   -0.0046 H       1  UNL1        0.0262
     33 H           2.8109   -1.0873   -0.1360 H       1  UNL1        0.0694
     34 H           2.8525    0.4076    0.8541 H       1  UNL1        0.0694
     35 H           4.7314   -1.2498   -1.0256 H       1  UNL1        0.0655
     36 H           7.1241   -0.9884   -1.4290 H       1  UNL1        0.0630
     37 H           6.5572    3.1832   -2.2355 H       1  UNL1        0.0637
     38 H           2.1142    2.4724   -1.3850 H       1  UNL1        0.1569
     39 H          -0.1020    3.3135   -1.1622 H       1  UNL1        0.1718
     40 H          -0.2758    6.2254   -1.6705 H       1  UNL1        0.1729
     41 H          -2.6637    6.8576   -2.1092 H       1  UNL1        0.0795
     42 H          -2.5798    7.1051   -0.3692 H       1  UNL1        0.0795
     43 H          -3.9180    7.0735   -3.4625 H       1  UNL1        0.0279
     44 H          -3.8553    8.8569   -3.3635 H       1  UNL1        0.0279
     45 H          -5.1398    7.9851   -4.2527 H       1  UNL1        0.0279
     46 H          -6.4815    9.6710   -2.9256 H       1  UNL1        0.0621
     47 H          -8.1014    9.7712   -1.0788 H       1  UNL1        0.0618
     48 H          -7.9719    8.1465    0.7595 H       1  UNL1        0.0621
     49 H          -7.0401    6.3608    1.8235 H       1  UNL1        0.0279
     50 H          -5.2835    6.2579    1.7211 H       1  UNL1        0.0279
     51 H          -6.3232    5.1384    0.7782 H       1  UNL1        0.0279
@<TRIPOS>BOND
     1     1     2    1
     2     2     3    1
     3     3     4    1
     4     4     5   ar
     5     5     6   ar
     6     6     7   ar
     7     7     8    1
     8     7     9   ar
     9     9    10   ar
    10     4    10   ar
    11    10    11    1
    12    11    12    2
    13    11    13   am
    14    13    14    1
    15    14    15    2
    16    14    16    1
    17    16    17    1
    18    17    18   am
    19    18    19    2
    20    18    20    1
    21    20    21    1
    22    21    22    1
    23    22    23   ar
    24    23    24    1
    25    23    25   ar
    26    25    26   ar
    27    26    27   ar
    28    27    28   ar
    29    22    28   ar
    30    28    29    1
    31     1    30    1
    32     1    31    1
    33     1    32    1
    34     2    33    1
    35     2    34    1
    36     5    35    1
    37     6    36    1
    38     9    37    1
    39    13    38    1
    40    16    39    1
    41    17    40    1
    42    20    41    1
    43    20    42    1
    44    24    43    1
    45    24    44    1
    46    24    45    1
    47    25    46    1
    48    26    47    1
    49    27    48    1
    50    29    49    1
    51    29    50    1
    52    29    51    1
