REMARK  4 active torsions:
REMARK  status: ('A' for Active; 'I' for Inactive)
REMARK    1  A    between atoms: C_2  and  C_3 
REMARK    2  A    between atoms: C_3  and  C_4 
REMARK       I    between atoms: C_4  and  N_6 
REMARK    3  A    between atoms: N_6  and  N_7 
REMARK       I    between atoms: N_7  and  C_8 
REMARK    4  A    between atoms: C_8  and  C_10 
ROOT
ATOM      1  N   UNL d   1       6.659   1.063  -2.548  0.00  0.00    -0.263 N 
ATOM      2  C   UNL d   1       7.329   1.526  -3.685  0.00  0.00     0.270 C 
ATOM      3  O   UNL d   1       8.343   0.957  -4.063  0.00  0.00    -0.266 OA
ATOM      4  H   UNL d   1       7.230   0.454  -1.961  0.00  0.00     0.190 HD
ENDROOT
BRANCH   1   5
ATOM      5  N   UNL d   1       5.305   0.553  -2.627  0.00  0.00    -0.267 N 
ATOM      6  C   UNL d   1       4.648   0.384  -1.405  0.00  0.00     0.236 C 
ATOM      7  O   UNL d   1       5.269   0.234  -0.356  0.00  0.00    -0.272 OA
ATOM      8  H   UNL d   1       4.799   0.732  -3.489  0.00  0.00     0.190 HD
BRANCH   6   9
ATOM      9  C   UNL d   1       3.114   0.482  -1.440  0.00  0.00     0.104 C 
BRANCH   9  10
ATOM     10  C   UNL d   1       2.500  -0.023  -0.125  0.00  0.00     0.005 C 
ATOM     11  C   UNL d   1       0.977  -0.008  -0.117  0.00  0.00     0.005 C 
ENDBRANCH   9  10
ENDBRANCH   6   9
ENDBRANCH   1   5
BRANCH   2  12
ATOM     12  C   UNL d   1       6.901   2.827  -4.349  0.00  0.00     0.039 A 
ATOM     13  C   UNL d   1       7.691   3.300  -5.427  0.00  0.00     0.017 A 
ATOM     14  C   UNL d   1       7.401   4.515  -6.072  0.00  0.00     0.001 A 
ATOM     15  C   UNL d   1       6.310   5.272  -5.671  0.00  0.00     0.001 A 
ATOM     16  C   UNL d   1       5.532   4.832  -4.612  0.00  0.00     0.007 A 
ATOM     17  C   UNL d   1       5.835   3.646  -3.922  0.00  0.00    -0.046 A 
ATOM     18  C   UNL d   1       4.945   3.353  -2.761  0.00  0.00     0.049 C 
ENDBRANCH   2  12
TORSDOF 4
