@<TRIPOS>MOLECULE
*****
 44 44 0 0 0
SMALL
GASTEIGER

@<TRIPOS>ATOM
      1 C           1.0871   -0.0605    0.0014 C.3     1  UNL1       -0.0652
      2 C           2.6116   -0.0337   -0.0080 C.3     1  UNL1       -0.0545
      3 C           3.1543    1.3253   -0.4839 C.3     1  UNL1       -0.0376
      4 C           4.6913    1.3683   -0.4990 C.3     1  UNL1        0.0131
      5 N           5.2585    2.6474   -0.9469 N.am    1  UNL1       -0.2982
      6 C           6.6264    2.8465   -1.0165 C.2     1  UNL1        0.3160
      7 O           7.4462    1.9775   -0.7127 O.2     1  UNL1       -0.2513
      8 N           7.0193    4.1023   -1.4557 N.am    1  UNL1       -0.2181
      9 N           8.4241    4.4178   -1.5649 N.am    1  UNL1       -0.2304
     10 C           8.8142    5.6848   -2.0032 C.2     1  UNL1        0.2667
     11 O           7.9683    6.5332   -2.2986 O.2     1  UNL1       -0.2705
     12 C          10.3521    5.9510   -2.1039 C.3     1  UNL1        0.1666
     13 O          10.6090    7.2996   -2.5358 O.3     1  UNL1       -0.4825
     14 C          11.9190    7.6971   -2.6873 C.ar    1  UNL1        0.1243
     15 C          12.8749    6.9194   -3.3440 C.ar    1  UNL1       -0.0196
     16 C          14.1681    7.4116   -3.5487 C.ar    1  UNL1       -0.0580
     17 C          14.5224    8.6786   -3.0900 C.ar    1  UNL1       -0.0584
     18 C          13.5829    9.4859   -2.4352 C.ar    1  UNL1       -0.0441
     19 C          14.0208   10.8410   -1.9415 C.3     1  UNL1       -0.0393
     20 C          12.2610    9.0037   -2.2553 C.ar    1  UNL1       -0.0059
     21 C          11.2012    9.8630   -1.6132 C.3     1  UNL1       -0.0360
     22 H           0.7189   -1.0346    0.3425 H       1  UNL1        0.0230
     23 H           0.6857    0.1179   -1.0012 H       1  UNL1        0.0230
     24 H           0.6857    0.7045    0.6737 H       1  UNL1        0.0230
     25 H           2.9747   -0.8361   -0.6615 H       1  UNL1        0.0263
     26 H           2.9747   -0.2531    1.0033 H       1  UNL1        0.0263
     27 H           2.7672    2.1137    0.1730 H       1  UNL1        0.0280
     28 H           2.7672    1.5317   -1.4891 H       1  UNL1        0.0280
     29 H           5.0746    0.5814   -1.1591 H       1  UNL1        0.0462
     30 H           5.0746    1.1652    0.5079 H       1  UNL1        0.0462
     31 H           4.6284    3.3922   -1.2074 H       1  UNL1        0.1503
     32 H           6.3753    4.8445   -1.7157 H       1  UNL1        0.1744
     33 H           9.0636    3.6700   -1.3018 H       1  UNL1        0.1729
     34 H          10.7719    5.2293   -2.8122 H       1  UNL1        0.0795
     35 H          10.8008    5.8083   -1.1137 H       1  UNL1        0.0795
     36 H          12.6300    5.9438   -3.7474 H       1  UNL1        0.0654
     37 H          14.9040    6.8111   -4.0786 H       1  UNL1        0.0619
     38 H          15.5372    9.0380   -3.2547 H       1  UNL1        0.0620
     39 H          15.0810   11.0270   -2.1476 H       1  UNL1        0.0278
     40 H          13.8888   10.9067   -0.8563 H       1  UNL1        0.0278
     41 H          13.4490   11.6345   -2.4328 H       1  UNL1        0.0278
     42 H          11.5765   10.8392   -1.2946 H       1  UNL1        0.0279
     43 H          10.8081    9.3651   -0.7221 H       1  UNL1        0.0279
     44 H          10.3888   10.0501   -2.3226 H       1  UNL1        0.0279
@<TRIPOS>BOND
     1     1     2    1
     2     2     3    1
     3     3     4    1
     4     4     5    1
     5     5     6   am
     6     6     7    2
     7     6     8   am
     8     8     9    1
     9     9    10   am
    10    10    11    2
    11    10    12    1
    12    12    13    1
    13    13    14    1
    14    14    15   ar
    15    15    16   ar
    16    16    17   ar
    17    17    18   ar
    18    18    19    1
    19    18    20   ar
    20    14    20   ar
    21    20    21    1
    22     1    22    1
    23     1    23    1
    24     1    24    1
    25     2    25    1
    26     2    26    1
    27     3    27    1
    28     3    28    1
    29     4    29    1
    30     4    30    1
    31     5    31    1
    32     8    32    1
    33     9    33    1
    34    12    34    1
    35    12    35    1
    36    15    36    1
    37    16    37    1
    38    17    38    1
    39    19    39    1
    40    19    40    1
    41    19    41    1
    42    21    42    1
    43    21    43    1
    44    21    44    1
