@<TRIPOS>MOLECULE
*****
 46 47 0 0 0
SMALL
GASTEIGER

@<TRIPOS>ATOM
      1 C           0.9521    0.0407    0.0636 C.3     1  UNL1       -0.0639
      2 C           2.4747    0.0568    0.0485 C.3     1  UNL1       -0.0402
      3 C           3.0084    0.8885   -1.1184 C.3     1  UNL1        0.0116
      4 N           4.4591    0.9634   -1.1372 N.am    1  UNL1       -0.3113
      5 C           5.1402    1.6438   -2.1334 C.2     1  UNL1        0.2455
      6 O           4.5865    2.3057   -3.0044 O.2     1  UNL1       -0.2702
      7 C           6.6304    1.5733   -2.1032 C.ar    1  UNL1        0.0551
      8 C           7.3927    2.7363   -2.3367 C.ar    1  UNL1       -0.0465
      9 C           8.8122    2.7052   -2.3088 C.ar    1  UNL1       -0.0397
     10 C           9.4903    1.5020   -2.0626 C.ar    1  UNL1        0.0349
     11 N          10.9213    1.4396   -2.0188 N.am    1  UNL1       -0.2842
     12 C          11.6564    0.2697   -1.7812 C.2     1  UNL1        0.2344
     13 O          11.1811   -0.8516   -1.5961 O.2     1  UNL1       -0.2737
     14 C          13.1815    0.4101   -1.7390 C.3     1  UNL1        0.0887
     15 N          13.7714   -0.8785   -1.3276 N.am    1  UNL1       -0.3023
     16 C          15.1176   -1.1894   -1.2941 C.2     1  UNL1        0.2511
     17 O          15.4759   -2.2553   -1.8057 O.2     1  UNL1       -0.2696
     18 C          15.9971   -0.2908   -0.5548 C.ar    1  UNL1        0.0741
     19 C          15.6656    0.7929    0.2353 C.ar    1  UNL1       -0.0422
     20 C          16.7765    1.4195    0.8412 C.ar    1  UNL1       -0.0511
     21 C          17.9482    0.7501    0.5887 C.ar    1  UNL1       -0.0125
     22 C          19.2894    1.0942    1.1372 C.3     1  UNL1       -0.0334
     23 S          17.6943   -0.5891   -0.4514 S.2     1  UNL1       -0.0889
     24 C           8.7056    0.3624   -1.8670 C.ar    1  UNL1       -0.0214
     25 C           7.3078    0.3793   -1.8928 C.ar    1  UNL1        0.0548
     26 CL          6.5278   -1.1529   -1.7009 Cl      1  UNL1       -0.0827
     27 H           0.5804   -0.5520    0.9060 H       1  UNL1        0.0230
     28 H           0.5549   -0.3963   -0.8584 H       1  UNL1        0.0230
     29 H           0.5516    1.0549    0.1618 H       1  UNL1        0.0230
     30 H           2.8459   -0.9733   -0.0189 H       1  UNL1        0.0278
     31 H           2.8408    0.4623    0.9993 H       1  UNL1        0.0278
     32 H           2.6278    1.9136   -1.0596 H       1  UNL1        0.0462
     33 H           2.6738    0.4624   -2.0714 H       1  UNL1        0.0462
     34 H           4.9787    0.3842   -0.4878 H       1  UNL1        0.1490
     35 H           6.8771    3.6764   -2.5400 H       1  UNL1        0.0626
     36 H           9.3481    3.6368   -2.4876 H       1  UNL1        0.0636
     37 H          11.4233    2.3104   -2.1626 H       1  UNL1        0.1549
     38 H          13.4128    1.1839   -1.0172 H       1  UNL1        0.0558
     39 H          13.5792    0.6797   -2.7199 H       1  UNL1        0.0558
     40 H          13.2028   -1.6841   -1.5845 H       1  UNL1        0.1495
     41 H          14.6622    1.1328    0.4168 H       1  UNL1        0.0630
     42 H          16.7057    2.2932    1.4749 H       1  UNL1        0.0626
     43 H          19.2113    1.9895    1.7678 H       1  UNL1        0.0283
     44 H          20.0003    1.3180    0.3381 H       1  UNL1        0.0283
     45 H          19.6836    0.2904    1.7660 H       1  UNL1        0.0283
     46 H           9.1516   -0.6057   -1.6922 H       1  UNL1        0.0651
@<TRIPOS>BOND
     1     1     2    1
     2     2     3    1
     3     3     4    1
     4     4     5   am
     5     5     6    2
     6     5     7    1
     7     7     8   ar
     8     8     9   ar
     9     9    10   ar
    10    10    11    1
    11    11    12   am
    12    12    13    2
    13    12    14    1
    14    14    15    1
    15    15    16   am
    16    16    17    2
    17    16    18    1
    18    18    19   ar
    19    19    20   ar
    20    20    21   ar
    21    21    22    1
    22    21    23   ar
    23    18    23   ar
    24    10    24   ar
    25    24    25   ar
    26     7    25   ar
    27    25    26    1
    28     1    27    1
    29     1    28    1
    30     1    29    1
    31     2    30    1
    32     2    31    1
    33     3    32    1
    34     3    33    1
    35     4    34    1
    36     8    35    1
    37     9    36    1
    38    11    37    1
    39    14    38    1
    40    14    39    1
    41    15    40    1
    42    19    41    1
    43    20    42    1
    44    22    43    1
    45    22    44    1
    46    22    45    1
    47    24    46    1
