REMARK  5 active torsions:
REMARK  status: ('A' for Active; 'I' for Inactive)
REMARK       I    between atoms: C_2  and  N_3 
REMARK       I    between atoms: C_2  and  N_26 
REMARK    1  A    between atoms: N_3  and  C_4 
REMARK    2  A    between atoms: C_6  and  N_7 
REMARK       I    between atoms: N_7  and  C_8 
REMARK    3  A    between atoms: C_8  and  C_10 
REMARK    4  A    between atoms: C_19  and  N_20 
REMARK    5  A    between atoms: N_26  and  C_27 
ROOT
ATOM      1  C   UNL d   1       2.144   2.056  -1.333  0.00  0.00     0.065 C 
ATOM      2  C   UNL d   1       2.641   2.580  -2.556  0.00  0.00     0.061 C 
ATOM      3  C   UNL d   1       2.051   3.713  -3.144  0.00  0.00     0.037 C 
ATOM      4  C   UNL d   1       0.903   4.226  -2.561  0.00  0.00     0.032 C 
ATOM      5  C   UNL d   1       0.442   3.747  -1.346  0.00  0.00     0.034 C 
ATOM      6  C   UNL d   1       1.056   2.679  -0.688  0.00  0.00     0.057 C 
ENDROOT
BRANCH   1   7
ATOM      7  N   UNL d   1       2.802   0.930  -0.772  0.00  0.00    -0.307 N 
ATOM      8  C   UNL d   1       2.173  -0.122  -0.154  0.00  0.00     0.321 C 
ATOM      9  O   UNL d   1       0.965  -0.363  -0.151  0.00  0.00    -0.247 OA
ATOM     10  N   UNL d   1       2.968  -1.009   0.511  0.00  0.00    -0.338 N 
ATOM     11  H   UNL d   1       2.418  -1.738   0.951  0.00  0.00     0.164 HD
ATOM     12  H   UNL d   1       3.769   0.809  -1.017  0.00  0.00     0.170 HD
BRANCH  10  13
ATOM     13  C   UNL d   1       4.414  -1.057   0.619  0.00  0.00     0.086 C 
ATOM     14  C   UNL d   1       4.944   0.185   1.343  0.00  0.00     0.025 C 
ATOM     15  C   UNL d   1       6.458   0.160   1.450  0.00  0.00     0.002 C 
ATOM     16  C   UNL d   1       6.928  -1.091   2.174  0.00  0.00     0.000 C 
ATOM     17  C   UNL d   1       6.410  -2.350   1.483  0.00  0.00     0.002 C 
ATOM     18  C   UNL d   1       4.886  -2.330   1.346  0.00  0.00     0.025 C 
ENDBRANCH  10  13
ENDBRANCH   1   7
BRANCH   6  19
ATOM     19  N   UNL d   1       0.577   2.359   0.563  0.00  0.00    -0.379 N 
ATOM     20  C   UNL d   1      -0.799   1.903   0.697  0.00  0.00     0.123 C 
ATOM     21  C   UNL d   1      -1.491   2.816   1.702  0.00  0.00     0.020 C 
ATOM     22  C   UNL d   1      -0.709   2.868   3.020  0.00  0.00     0.003 C 
ATOM     23  C   UNL d   1       0.775   3.194   2.800  0.00  0.00     0.020 C 
ATOM     24  C   UNL d   1       1.401   2.270   1.753  0.00  0.00     0.123 C 
ENDBRANCH   6  19
BRANCH   3  25
ATOM     25  N   UNL d   1       2.630   4.345  -4.276  0.00  0.00    -0.323 N 
ATOM     26  C   UNL d   1       2.193   5.543  -4.838  0.00  0.00     0.257 C 
ATOM     27  O   UNL d   1       1.260   6.253  -4.456  0.00  0.00    -0.267 OA
ATOM     28  H   UNL d   1       3.452   3.909  -4.677  0.00  0.00     0.169 HD
BRANCH  26  29
ATOM     29  C   UNL d   1       2.922   6.063  -6.011  0.00  0.00     0.054 A 
ATOM     30  C   UNL d   1       3.134   7.457  -6.083  0.00  0.00     0.019 A 
ATOM     31  C   UNL d   1       3.681   8.031  -7.232  0.00  0.00     0.001 A 
ATOM     32  C   UNL d   1       4.069   7.213  -8.289  0.00  0.00     0.002 A 
ATOM     33  C   UNL d   1       3.854   5.835  -8.224  0.00  0.00     0.025 A 
ATOM     34  C   UNL d   1       3.269   5.256  -7.096  0.00  0.00     0.049 A 
ATOM     35 CL   UNL d   1       2.974   3.555  -7.149  0.00  0.00    -0.083 Cl
ENDBRANCH  26  29
ENDBRANCH   3  25
TORSDOF 5
