REMARK  8 active torsions:
REMARK  status: ('A' for Active; 'I' for Inactive)
REMARK    1  A    between atoms: C_2  and  C_18 
REMARK    2  A    between atoms: C_2  and  S_3 
REMARK    3  A    between atoms: C_4  and  S_3 
REMARK    4  A    between atoms: C_7  and  C_8 
REMARK       I    between atoms: C_18  and  N_20 
REMARK    5  A    between atoms: N_20  and  C_21 
REMARK    6  A    between atoms: C_24  and  O_25 
REMARK    7  A    between atoms: O_25  and  C_26 
REMARK    8  A    between atoms: C_26  and  C_27 
ROOT
ATOM      1  C   UNL d   1       0.632   2.939   3.605  0.00  0.00     0.031 C 
ATOM      2  C   UNL d   1       0.123   2.000   2.510  0.00  0.00     0.140 C 
ENDROOT
BRANCH   2   3
ATOM      3  C   UNL d   1       0.509   2.499   1.105  0.00  0.00     0.235 C 
ATOM      4  O   UNL d   1       1.233   1.823   0.371  0.00  0.00    -0.272 OA
ATOM      5  N   UNL d   1      -0.023   3.740   0.720  0.00  0.00    -0.326 N 
ATOM      6  H   UNL d   1      -0.327   4.386   1.438  0.00  0.00     0.169 HD
BRANCH   5   7
ATOM      7  C   UNL d   1       0.320   4.299  -0.542  0.00  0.00     0.034 C 
ATOM      8  C   UNL d   1       0.337   3.493  -1.681  0.00  0.00     0.032 C 
ATOM      9  C   UNL d   1       0.924   3.944  -2.864  0.00  0.00     0.039 C 
ATOM     10  C   UNL d   1       1.405   5.248  -2.961  0.00  0.00     0.069 C 
ATOM     11  C   UNL d   1       1.224   6.114  -1.881  0.00  0.00     0.039 C 
ATOM     12  C   UNL d   1       0.708   5.636  -0.661  0.00  0.00     0.032 C 
BRANCH  10  13
ATOM     13  O   UNL d   1       2.032   5.543  -4.138  0.00  0.00    -0.347 OA
BRANCH  13  14
ATOM     14  C   UNL d   1       2.623   6.840  -4.269  0.00  0.00     0.214 C 
BRANCH  14  15
ATOM     15  C   UNL d   1       3.327   6.998  -5.602  0.00  0.00    -0.034 C 
ATOM     16  C   UNL d   1       3.795   8.264  -5.991  0.00  0.00     0.009 C 
ATOM     17  C   UNL d   1       4.272   8.475  -7.287  0.00  0.00     0.001 C 
ATOM     18  C   UNL d   1       4.401   7.402  -8.165  0.00  0.00     0.000 C 
ATOM     19  C   UNL d   1       4.075   6.118  -7.740  0.00  0.00     0.001 C 
ATOM     20  C   UNL d   1       3.501   5.923  -6.484  0.00  0.00     0.009 C 
ENDBRANCH  14  15
ENDBRANCH  13  14
ENDBRANCH  10  13
ENDBRANCH   5   7
ENDBRANCH   2   3
BRANCH   2  21
ATOM     21  S   UNL d   1       0.844   0.337   2.891  0.00  0.00    -0.101 SA
BRANCH  21  22
ATOM     22  C   UNL d   1       0.123  -0.698   1.581  0.00  0.00     0.311 A 
ATOM     23  N   UNL d   1       0.467  -2.076   1.835  0.00  0.00    -0.273 N 
ATOM     24  N   UNL d   1      -0.607  -2.862   1.937  0.00  0.00    -0.150 NA
ATOM     25  H   UNL d   1       1.396  -2.432   1.637  0.00  0.00     0.186 HD
ATOM     26  C   UNL d   1      -1.587  -2.026   1.844  0.00  0.00     0.195 A 
ATOM     27  O   UNL d   1      -1.309  -0.708   1.634  0.00  0.00    -0.296 OA
BRANCH  26  28
ATOM     28  C   UNL d   1      -2.992  -2.342   1.986  0.00  0.00     0.026 A 
ATOM     29  C   UNL d   1      -3.930  -2.168   1.052  0.00  0.00     0.003 A 
ATOM     30  C   UNL d   1      -3.939  -1.643  -0.267  0.00  0.00     0.014 A 
ATOM     31  C   UNL d   1      -5.152  -2.741   1.661  0.00  0.00     0.039 A 
ATOM     32  C   UNL d   1      -5.098  -1.641  -0.945  0.00  0.00     0.001 A 
ATOM     33  C   UNL d   1      -6.327  -2.166  -0.366  0.00  0.00     0.002 A 
ATOM     34  C   UNL d   1      -6.399  -2.703   0.867  0.00  0.00     0.030 A 
ATOM     35  N   UNL d   1      -4.941  -3.208   2.827  0.00  0.00    -0.385 N 
ATOM     36  C   UNL d   1      -3.514  -3.036   3.196  0.00  0.00     0.164 A 
ATOM     37  H   UNL d   1      -5.666  -3.639   3.404  0.00  0.00     0.160 HD
ENDBRANCH  26  28
ENDBRANCH  21  22
ENDBRANCH   2  21
TORSDOF 8
