REMARK  10 active torsions:
REMARK  status: ('A' for Active; 'I' for Inactive)
REMARK    1  A    between atoms: C_2  and  C_3 
REMARK       I    between atoms: C_3  and  N_5 
REMARK    2  A    between atoms: N_5  and  C_6 
REMARK    3  A    between atoms: C_9  and  C_10 
REMARK       I    between atoms: C_10  and  N_12 
REMARK    4  A    between atoms: N_12  and  N_13 
REMARK    5  A    between atoms: N_13  and  C_14 
REMARK    6  A    between atoms: C_14  and  N_16 
REMARK       I    between atoms: N_16  and  C_17 
REMARK    7  A    between atoms: C_17  and  C_19 
REMARK    8  A    between atoms: C_23  and  O_24 
REMARK    9  A    between atoms: C_25  and  O_24 
REMARK   10  A    between atoms: C_25  and  C_27 
ROOT
ATOM      1  N   UNL d   1      -1.649  -9.160  -8.702  0.00  0.00    -0.273 N 
ATOM      2  H   UNL d   1      -0.997  -8.884  -7.972  0.00  0.00     0.189 HD
ENDROOT
BRANCH   1   3
ATOM      3  N   UNL d   1      -3.026  -8.764  -8.491  0.00  0.00    -0.264 N 
ATOM      4  C   UNL d   1      -3.439  -8.053  -7.368  0.00  0.00     0.270 C 
ATOM      5  O   UNL d   1      -2.650  -7.705  -6.499  0.00  0.00    -0.266 OA
ATOM      6  H   UNL d   1      -3.663  -9.096  -9.210  0.00  0.00     0.190 HD
BRANCH   4   7
ATOM      7  C   UNL d   1      -4.929  -7.743  -7.232  0.00  0.00     0.033 A 
ATOM      8  C   UNL d   1      -5.391  -7.071  -6.081  0.00  0.00     0.019 A 
ATOM      9  C   UNL d   1      -6.772  -6.872  -5.836  0.00  0.00     0.030 A 
ATOM     10  C   UNL d   1      -7.722  -7.322  -6.753  0.00  0.00     0.034 A 
ATOM     11  C   UNL d   1      -7.268  -7.934  -7.925  0.00  0.00     0.030 A 
ATOM     12  C   UNL d   1      -5.894  -8.135  -8.169  0.00  0.00     0.019 A 
BRANCH  10  13
ATOM     13  N   UNL d   1      -9.111  -7.151  -6.503  0.00  0.00    -0.327 N 
ATOM     14  C   UNL d   1     -10.019  -8.181  -6.727  0.00  0.00     0.221 C 
ATOM     15  O   UNL d   1      -9.698  -9.288  -7.156  0.00  0.00    -0.273 OA
ATOM     16  H   UNL d   1      -9.396  -6.380  -5.911  0.00  0.00     0.169 HD
BRANCH  14  17
ATOM     17  C   UNL d   1     -11.467  -7.875  -6.353  0.00  0.00     0.098 C 
ATOM     18  C   UNL d   1     -12.343  -9.102  -6.608  0.00  0.00     0.014 C 
ENDBRANCH  14  17
ENDBRANCH  10  13
ENDBRANCH   4   7
ENDBRANCH   1   3
BRANCH   1  19
ATOM     19  C   UNL d   1      -1.341  -9.882  -9.867  0.00  0.00     0.193 C 
ATOM     20  S   UNL d   1      -2.578 -10.249 -10.963  0.00  0.00    -0.039 SA
BRANCH  19  21
ATOM     21  N   UNL d   1       0.014 -10.242 -10.016  0.00  0.00    -0.298 N 
ATOM     22  C   UNL d   1       0.542 -10.924 -11.124  0.00  0.00     0.258 C 
ATOM     23  O   UNL d   1      -0.102 -11.355 -12.071  0.00  0.00    -0.267 OA
ATOM     24  H   UNL d   1       0.676  -9.917  -9.328  0.00  0.00     0.171 HD
BRANCH  22  25
ATOM     25  C   UNL d   1       2.003 -11.126 -11.263  0.00  0.00     0.035 A 
ATOM     26  C   UNL d   1       2.475 -10.872 -12.565  0.00  0.00     0.017 A 
ATOM     27  C   UNL d   1       3.750 -11.220 -12.916  0.00  0.00     0.004 A 
ATOM     28  C   UNL d   1       4.575 -11.742 -11.944  0.00  0.00     0.037 A 
ATOM     29  C   UNL d   1       4.168 -12.053 -10.646  0.00  0.00     0.070 A 
ATOM     30  C   UNL d   1       2.838 -11.737 -10.304  0.00  0.00     0.053 A 
BRANCH  29  31
ATOM     31  O   UNL d   1       4.933 -12.670  -9.691  0.00  0.00    -0.346 OA
BRANCH  31  32
ATOM     32  C   UNL d   1       6.313 -13.104  -9.839  0.00  0.00     0.124 C 
ATOM     33  C   UNL d   1       7.011 -12.905 -11.171  0.00  0.00     0.040 C 
BRANCH  32  34
ATOM     34  C   UNL d   1       6.432 -14.605  -9.536  0.00  0.00     0.027 C 
ATOM     35  C   UNL d   1       6.099 -14.932  -8.098  0.00  0.00     0.007 C 
ENDBRANCH  32  34
ENDBRANCH  31  32
ENDBRANCH  29  31
ENDBRANCH  22  25
ENDBRANCH  19  21
ENDBRANCH   1  19
TORSDOF 10
