@<TRIPOS>MOLECULE
*****
 56 59 0 0 0
SMALL
GASTEIGER

@<TRIPOS>ATOM
      1 C           1.0267    0.5603   -0.5349 C.3     1  UNL1        0.0789
      2 O           2.3907    0.2945   -0.2961 O.3     1  UNL1       -0.4933
      3 C           2.9360    0.6527    0.9019 C.ar    1  UNL1        0.1412
      4 C           4.1904    1.2751    0.7019 C.ar    1  UNL1       -0.0181
      5 C           4.9944    1.6639    1.7644 C.ar    1  UNL1       -0.0582
      6 C           4.5131    1.4939    3.0536 C.ar    1  UNL1       -0.0598
      7 C           3.2568    0.8807    3.2719 C.ar    1  UNL1       -0.0369
      8 C           2.4487    0.4099    2.2065 C.ar    1  UNL1        0.0768
      9 N           1.1822   -0.2296    2.5312 N.am    1  UNL1       -0.2661
     10 C           0.5588   -1.1913    1.7164 C.2     1  UNL1        0.3097
     11 O           1.2400   -1.9374    0.9958 O.2     1  UNL1       -0.2521
     12 N          -0.8400   -1.0809    1.6490 N.am    1  UNL1       -0.2482
     13 C          -1.5674   -1.2819    0.4514 C.ar    1  UNL1        0.1658
     14 N          -1.1418   -1.5585   -0.7668 N.ar    1  UNL1       -0.2290
     15 C          -2.1571   -2.0080   -1.6478 C.ar    1  UNL1        0.0593
     16 C          -1.8277   -2.8188   -2.9585 C.3     1  UNL1        0.0671
     17 C          -0.3261   -3.1757   -3.1591 C.2     1  UNL1        0.2231
     18 O           0.5723   -2.5176   -2.6361 O.2     1  UNL1       -0.2751
     19 N           0.0122   -4.2395   -4.0099 N.am    1  UNL1       -0.2823
     20 C           1.3426   -4.7798   -4.0188 C.ar    1  UNL1        0.0762
     21 C           2.0200   -4.8271   -5.2501 C.ar    1  UNL1       -0.0369
     22 C           3.3397   -5.3008   -5.3425 C.ar    1  UNL1       -0.0598
     23 C           4.0155   -5.7138   -4.2005 C.ar    1  UNL1       -0.0582
     24 C           3.3468   -5.7098   -2.9781 C.ar    1  UNL1       -0.0175
     25 C           2.0093   -5.2669   -2.8734 C.ar    1  UNL1        0.1495
     26 O           1.5305   -5.3855   -1.5852 O.3     1  UNL1       -0.4542
     27 C           0.1937   -5.3595   -1.2979 C.ar    1  UNL1        0.1285
     28 C          -0.1861   -4.4828   -0.2962 C.ar    1  UNL1       -0.0193
     29 C          -1.5216   -4.3737    0.0768 C.ar    1  UNL1       -0.0583
     30 C          -2.5096   -4.9654   -0.6983 C.ar    1  UNL1       -0.0615
     31 C          -2.1420   -5.8184   -1.7305 C.ar    1  UNL1       -0.0583
     32 C          -0.7891   -6.0759   -1.9783 C.ar    1  UNL1       -0.0193
     33 C          -3.4185   -1.8250   -1.0861 C.ar    1  UNL1        0.0007
     34 S          -3.2867   -1.1971    0.5421 S.2     1  UNL1       -0.0602
     35 H           0.7135   -0.0695   -1.3698 H       1  UNL1        0.0660
     36 H           0.8309    1.6121   -0.7211 H       1  UNL1        0.0660
     37 H           0.3771    0.3568    0.2888 H       1  UNL1        0.0660
     38 H           4.5334    1.4566   -0.3164 H       1  UNL1        0.0655
     39 H           5.9808    2.0850    1.5781 H       1  UNL1        0.0619
     40 H           5.1257    1.8334    3.8880 H       1  UNL1        0.0618
     41 H           2.9592    0.7427    4.3079 H       1  UNL1        0.0637
     42 H           0.9129   -0.2053    3.5049 H       1  UNL1        0.1565
     43 H          -1.3651   -1.0051    2.5064 H       1  UNL1        0.1583
     44 H          -2.1894   -2.2966   -3.8481 H       1  UNL1        0.0423
     45 H          -2.4319   -3.7355   -2.9648 H       1  UNL1        0.0423
     46 H          -0.6407   -4.6453   -4.6672 H       1  UNL1        0.1549
     47 H           1.5654   -4.4051   -6.1415 H       1  UNL1        0.0637
     48 H           3.8527   -5.3191   -6.3019 H       1  UNL1        0.0618
     49 H           5.0577   -6.0229   -4.2548 H       1  UNL1        0.0619
     50 H           3.8731   -6.0536   -2.0879 H       1  UNL1        0.0655
     51 H           0.5350   -3.7377    0.0324 H       1  UNL1        0.0654
     52 H          -1.7968   -3.6419    0.8216 H       1  UNL1        0.0619
     53 H          -3.5321   -4.5958   -0.6290 H       1  UNL1        0.0618
     54 H          -2.8982   -6.1474   -2.4370 H       1  UNL1        0.0619
     55 H          -0.5118   -6.6762   -2.8351 H       1  UNL1        0.0654
     56 H          -4.3833   -2.1319   -1.4742 H       1  UNL1        0.0712
@<TRIPOS>BOND
     1     1     2    1
     2     2     3    1
     3     3     4   ar
     4     4     5   ar
     5     5     6   ar
     6     6     7   ar
     7     7     8   ar
     8     3     8   ar
     9     8     9    1
    10     9    10   am
    11    10    11    2
    12    10    12   am
    13    12    13    1
    14    13    14   ar
    15    14    15   ar
    16    15    16    1
    17    16    17    1
    18    17    18    2
    19    17    19   am
    20    19    20    1
    21    20    21   ar
    22    21    22   ar
    23    22    23   ar
    24    23    24   ar
    25    24    25   ar
    26    20    25   ar
    27    25    26    1
    28    26    27    1
    29    27    28   ar
    30    28    29   ar
    31    29    30   ar
    32    30    31   ar
    33    31    32   ar
    34    27    32   ar
    35    15    33   ar
    36    33    34   ar
    37    13    34   ar
    38     1    35    1
    39     1    36    1
    40     1    37    1
    41     4    38    1
    42     5    39    1
    43     6    40    1
    44     7    41    1
    45     9    42    1
    46    12    43    1
    47    16    44    1
    48    16    45    1
    49    19    46    1
    50    21    47    1
    51    22    48    1
    52    23    49    1
    53    24    50    1
    54    28    51    1
    55    29    52    1
    56    30    53    1
    57    31    54    1
    58    32    55    1
    59    33    56    1
