@<TRIPOS>MOLECULE
*****
 71 75 0 0 0
SMALL
GASTEIGER

@<TRIPOS>ATOM
      1 C           1.0374   -0.0721    0.0636 C.3     1  UNL1       -0.0653
      2 C           2.5566   -0.0610    0.0640 C.3     1  UNL1       -0.0558
      3 C           3.0871    1.3666    0.1645 C.3     1  UNL1       -0.0502
      4 C           4.6140    1.3975    0.1555 C.3     1  UNL1       -0.0186
      5 C           5.1324    2.8335    0.2501 C.3     1  UNL1        0.0896
      6 O           6.5602    2.8190    0.1479 O.3     1  UNL1       -0.4920
      7 C           7.1886    4.0218    0.3407 C.ar    1  UNL1        0.1205
      8 C           8.3481    4.2440   -0.4095 C.ar    1  UNL1       -0.0193
      9 C           9.1382    5.3902   -0.1982 C.ar    1  UNL1       -0.0496
     10 C           8.7297    6.3620    0.7214 C.ar    1  UNL1       -0.0052
     11 C           9.4607    7.6634    0.8487 C.2     1  UNL1        0.0528
     12 N           9.0098    8.5835    1.6425 N.2     1  UNL1       -0.1877
     13 N           9.6153    9.8146    1.7202 N.am    1  UNL1       -0.2063
     14 C           9.0289   10.7635    2.5930 C.2     1  UNL1        0.2425
     15 O           8.0423   10.5158    3.2833 O.2     1  UNL1       -0.2732
     16 C           9.7889   12.0840    2.6933 C.3     1  UNL1        0.0792
     17 S           9.1770   13.2603    3.9420 S.3     1  UNL1       -0.0778
     18 C          10.1688   14.7486    3.9341 C.ar    1  UNL1        0.1777
     19 N           9.4799   15.8501    3.7985 N.ar    1  UNL1       -0.2155
     20 C          10.1741   17.0113    3.9418 C.ar    1  UNL1        0.1167
     21 S           9.4331   18.5536    3.8491 S.2     1  UNL1       -0.0731
     22 C          10.9209   19.3585    4.0717 C.ar    1  UNL1       -0.0042
     23 C          11.9808   18.4845    4.2117 C.ar    1  UNL1       -0.0227
     24 C          11.5228   17.1332    4.1823 C.ar    1  UNL1        0.0760
     25 C          12.2905   15.9298    4.3332 C.ar    1  UNL1        0.2677
     26 O          13.5175   15.9836    4.4846 O.2     1  UNL1       -0.2665
     27 N          11.5494   14.7426    4.2396 N.ar    1  UNL1       -0.2554
     28 C          12.3373   13.5764    4.3258 C.ar    1  UNL1        0.0519
     29 C          13.0533   13.2725    5.4848 C.ar    1  UNL1       -0.0377
     30 C          13.8848   12.1553    5.4991 C.ar    1  UNL1       -0.0598
     31 C          13.8879   11.2746    4.4183 C.ar    1  UNL1       -0.0616
     32 C          13.2143   11.6085    3.2521 C.ar    1  UNL1       -0.0598
     33 C          12.5542   12.8287    3.1744 C.ar    1  UNL1       -0.0377
     34 C          13.3994   18.9578    4.3926 C.3     1  UNL1       -0.0261
     35 C          13.5380   20.4334    3.9937 C.3     1  UNL1       -0.0487
     36 C          12.4187   21.2603    4.6415 C.3     1  UNL1       -0.0483
     37 C          11.0474   20.8528    4.0710 C.3     1  UNL1       -0.0211
     38 C           7.5739    6.1313    1.4772 C.ar    1  UNL1       -0.0496
     39 C           6.8135    4.9660    1.2941 C.ar    1  UNL1       -0.0193
     40 H           0.6632   -1.0972   -0.0102 H       1  UNL1        0.0230
     41 H           0.6449    0.4980   -0.7847 H       1  UNL1        0.0230
     42 H           0.6451    0.3708    0.9847 H       1  UNL1        0.0230
     43 H           2.9236   -0.5324   -0.8551 H       1  UNL1        0.0263
     44 H           2.9245   -0.6579    0.9065 H       1  UNL1        0.0263
     45 H           2.7117    1.8326    1.0842 H       1  UNL1        0.0266
     46 H           2.7037    1.9591   -0.6754 H       1  UNL1        0.0266
     47 H           4.9986    0.9214   -0.7542 H       1  UNL1        0.0298
     48 H           5.0059    0.8086    0.9950 H       1  UNL1        0.0298
     49 H           4.7889    3.2515    1.2015 H       1  UNL1        0.0696
     50 H           4.7282    3.4271   -0.5777 H       1  UNL1        0.0696
     51 H           8.6320    3.5222   -1.1736 H       1  UNL1        0.0654
     52 H          10.0614    5.5001   -0.7595 H       1  UNL1        0.0625
     53 H          10.3536    7.8045    0.2134 H       1  UNL1        0.0851
     54 H          10.4593    9.9907    1.1836 H       1  UNL1        0.1772
     55 H           9.9209   12.5505    1.7117 H       1  UNL1        0.0476
     56 H          10.7121   11.6925    3.0796 H       1  UNL1        0.0476
     57 H          12.9921   13.9109    6.3638 H       1  UNL1        0.0638
     58 H          14.5280   11.9692    6.3537 H       1  UNL1        0.0618
     59 H          14.4380   10.3407    4.4753 H       1  UNL1        0.0618
     60 H          13.1841   10.9224    2.4116 H       1  UNL1        0.0618
     61 H          12.1081   13.1478    2.2361 H       1  UNL1        0.0638
     62 H          14.0919   18.3611    3.7886 H       1  UNL1        0.0314
     63 H          13.6870   18.8335    5.4446 H       1  UNL1        0.0314
     64 H          13.4700   20.5230    2.9011 H       1  UNL1        0.0268
     65 H          14.5226   20.8117    4.2883 H       1  UNL1        0.0268
     66 H          12.5907   22.3291    4.4798 H       1  UNL1        0.0269
     67 H          12.4310   21.0893    5.7267 H       1  UNL1        0.0269
     68 H          10.9652   21.2187    3.0400 H       1  UNL1        0.0318
     69 H          10.2510   21.3177    4.6607 H       1  UNL1        0.0318
     70 H           7.2546    6.8555    2.2250 H       1  UNL1        0.0625
     71 H           5.9460    4.8209    1.9282 H       1  UNL1        0.0654
@<TRIPOS>BOND
     1     1     2    1
     2     2     3    1
     3     3     4    1
     4     4     5    1
     5     5     6    1
     6     6     7    1
     7     7     8   ar
     8     8     9   ar
     9     9    10   ar
    10    10    11    1
    11    11    12    2
    12    12    13    1
    13    13    14   am
    14    14    15    2
    15    14    16    1
    16    16    17    1
    17    17    18    1
    18    18    19   ar
    19    19    20   ar
    20    20    21   ar
    21    21    22   ar
    22    22    23   ar
    23    23    24   ar
    24    20    24   ar
    25    24    25   ar
    26    25    26    2
    27    25    27   ar
    28    18    27   ar
    29    27    28    1
    30    28    29   ar
    31    29    30   ar
    32    30    31   ar
    33    31    32   ar
    34    32    33   ar
    35    28    33   ar
    36    23    34    1
    37    34    35    1
    38    35    36    1
    39    36    37    1
    40    22    37    1
    41    10    38   ar
    42    38    39   ar
    43     7    39   ar
    44     1    40    1
    45     1    41    1
    46     1    42    1
    47     2    43    1
    48     2    44    1
    49     3    45    1
    50     3    46    1
    51     4    47    1
    52     4    48    1
    53     5    49    1
    54     5    50    1
    55     8    51    1
    56     9    52    1
    57    11    53    1
    58    13    54    1
    59    16    55    1
    60    16    56    1
    61    29    57    1
    62    30    58    1
    63    31    59    1
    64    32    60    1
    65    33    61    1
    66    34    62    1
    67    34    63    1
    68    35    64    1
    69    35    65    1
    70    36    66    1
    71    36    67    1
    72    37    68    1
    73    37    69    1
    74    38    70    1
    75    39    71    1
