REMARK  11 active torsions:
REMARK  status: ('A' for Active; 'I' for Inactive)
REMARK    1  A    between atoms: C_2  and  C_3 
REMARK       I    between atoms: C_2  and  N_15 
REMARK    2  A    between atoms: C_3  and  C_4 
REMARK    3  A    between atoms: C_4  and  C_5 
REMARK    4  A    between atoms: C_5  and  C_6 
REMARK    5  A    between atoms: N_15  and  C_16 
REMARK    6  A    between atoms: C_17  and  C_16 
REMARK    7  A    between atoms: C_17  and  C_19 
REMARK    8  A    between atoms: C_17  and  O_18 
REMARK    9  A    between atoms: C_19  and  O_20 
REMARK   10  A    between atoms: O_20  and  C_21 
REMARK   11  A    between atoms: C_24  and  N_25 
ROOT
ATOM      1  O   UNL d   1       6.246  -2.483   5.755  0.00  0.00    -0.274 OA
ATOM      2  C   UNL d   1       5.283  -1.923   5.228  0.00  0.00     0.217 C 
ATOM      3  N   UNL d   1       5.505  -1.051   4.211  0.00  0.00    -0.359 N 
ATOM      4  H   UNL d   1       6.497  -0.857   4.117  0.00  0.00     0.162 HD
ENDROOT
BRANCH   3   5
ATOM      5  C   UNL d   1       4.531  -0.165   3.590  0.00  0.00     0.156 C 
BRANCH   5   6
ATOM      6  C   UNL d   1       5.103   0.801   2.530  0.00  0.00     0.160 C 
BRANCH   6   7
ATOM      7  C   UNL d   1       6.634   0.884   2.510  0.00  0.00     0.209 C 
BRANCH   7   8
ATOM      8  O   UNL d   1       7.090   1.184   3.832  0.00  0.00    -0.349 OA
BRANCH   8   9
ATOM      9  C   UNL d   1       8.438   1.312   3.997  0.00  0.00     0.069 A 
ATOM     10  C   UNL d   1       8.958   0.878   5.222  0.00  0.00     0.039 A 
ATOM     11  C   UNL d   1      10.303   1.098   5.535  0.00  0.00     0.039 A 
ATOM     12  C   UNL d   1      11.139   1.692   4.581  0.00  0.00     0.103 A 
ATOM     13  C   UNL d   1      10.620   2.129   3.356  0.00  0.00     0.039 A 
ATOM     14  C   UNL d   1       9.266   1.943   3.072  0.00  0.00     0.039 A 
BRANCH  12  15
ATOM     15  N   UNL d   1      12.579   1.808   4.838  0.00  0.00    -0.116 N 
ATOM     16  O   UNL d   1      13.008   1.392   5.923  0.00  0.00    -0.532 OA
ATOM     17  O   UNL d   1      13.285   2.296   3.943  0.00  0.00    -0.532 OA
ENDBRANCH  12  15
ENDBRANCH   8   9
ENDBRANCH   7   8
ENDBRANCH   6   7
BRANCH   6  18
ATOM     18  O   UNL d   1       4.629   0.444   1.227  0.00  0.00    -0.392 OA
ATOM     19  H   UNL d   1       4.905  -0.472   1.046  0.00  0.00     0.210 HD
ENDBRANCH   6  18
ENDBRANCH   5   6
ENDBRANCH   3   5
BRANCH   2  20
ATOM     20  C   UNL d   1       3.852  -2.131   5.653  0.00  0.00     0.103 C 
BRANCH  20  21
ATOM     21  C   UNL d   1       3.759  -3.192   6.738  0.00  0.00     0.017 C 
BRANCH  21  22
ATOM     22  C   UNL d   1       2.313  -3.403   7.163  0.00  0.00     0.079 C 
BRANCH  22  23
ATOM     23  C   UNL d   1       2.216  -4.469   8.191  0.00  0.00     0.105 A 
ATOM     24  N   UNL d   1       1.777  -5.694   8.000  0.00  0.00    -0.233 NA
ATOM     25  C   UNL d   1       1.873  -6.311   9.221  0.00  0.00     0.085 A 
ATOM     26  C   UNL d   1       1.524  -7.616   9.591  0.00  0.00     0.034 A 
ATOM     27  C   UNL d   1       2.395  -5.447  10.177  0.00  0.00     0.062 A 
ATOM     28  C   UNL d   1       1.708  -8.004  10.924  0.00  0.00     0.002 A 
ATOM     29  C   UNL d   1       2.245  -7.117  11.861  0.00  0.00     0.002 A 
ATOM     30  C   UNL d   1       2.607  -5.812  11.507  0.00  0.00     0.032 A 
ATOM     31  N   UNL d   1       2.603  -4.278   9.495  0.00  0.00    -0.343 N 
ATOM     32  H   UNL d   1       2.977  -3.424   9.882  0.00  0.00     0.167 HD
ENDBRANCH  22  23
ENDBRANCH  21  22
ENDBRANCH  20  21
ENDBRANCH   2  20
TORSDOF 11
