REMARK  7 active torsions:
REMARK  status: ('A' for Active; 'I' for Inactive)
REMARK    1  A    between atoms: C_2  and  C_3 
REMARK       I    between atoms: C_3  and  N_5 
REMARK    2  A    between atoms: N_5  and  C_6 
REMARK    3  A    between atoms: C_9  and  S_10 
REMARK    4  A    between atoms: S_10  and  N_13 
REMARK    5  A    between atoms: N_13  and  C_14 
REMARK    6  A    between atoms: C_17  and  O_18 
REMARK    7  A    between atoms: O_18  and  C_19 
ROOT
ATOM      1  S   UNL d   1       6.648  -6.127  -4.198  0.00  0.00     0.263 S 
ATOM      2  O   UNL d   1       8.039  -5.873  -4.529  0.00  0.00    -0.200 OA
ATOM      3  O   UNL d   1       6.272  -7.219  -3.330  0.00  0.00    -0.200 OA
ENDROOT
BRANCH   1   4
ATOM      4  C   UNL d   1       6.050  -4.643  -3.382  0.00  0.00     0.080 A 
ATOM      5  C   UNL d   1       6.584  -4.328  -2.119  0.00  0.00     0.027 A 
ATOM      6  C   UNL d   1       6.049  -3.272  -1.355  0.00  0.00     0.031 A 
ATOM      7  C   UNL d   1       4.993  -2.508  -1.857  0.00  0.00     0.034 A 
ATOM      8  C   UNL d   1       4.503  -2.800  -3.136  0.00  0.00     0.031 A 
ATOM      9  C   UNL d   1       5.027  -3.854  -3.901  0.00  0.00     0.027 A 
BRANCH   7  10
ATOM     10  N   UNL d   1       4.444  -1.449  -1.087  0.00  0.00    -0.327 N 
ATOM     11  C   UNL d   1       3.070  -1.263  -0.981  0.00  0.00     0.221 C 
ATOM     12  O   UNL d   1       2.242  -1.978  -1.543  0.00  0.00    -0.273 OA
ATOM     13  H   UNL d   1       5.046  -0.999  -0.408  0.00  0.00     0.169 HD
BRANCH  11  14
ATOM     14  C   UNL d   1       2.631  -0.124  -0.065  0.00  0.00     0.098 C 
ATOM     15  C   UNL d   1       1.105  -0.061  -0.005  0.00  0.00     0.014 C 
ENDBRANCH  11  14
ENDBRANCH   7  10
ENDBRANCH   1   4
BRANCH   1  16
ATOM     16  N   UNL d   1       5.802  -6.289  -5.647  0.00  0.00    -0.281 N 
ATOM     17  H   UNL d   1       5.107  -5.612  -5.932  0.00  0.00     0.179 HD
BRANCH  16  18
ATOM     18  C   UNL d   1       6.078  -7.372  -6.540  0.00  0.00     0.042 A 
ATOM     19  C   UNL d   1       6.185  -7.125  -7.914  0.00  0.00     0.033 A 
ATOM     20  C   UNL d   1       6.380  -8.185  -8.820  0.00  0.00     0.039 A 
ATOM     21  C   UNL d   1       6.531  -9.496  -8.356  0.00  0.00     0.079 A 
ATOM     22  C   UNL d   1       6.383  -9.734  -6.987  0.00  0.00     0.039 A 
ATOM     23  C   UNL d   1       6.140  -8.687  -6.093  0.00  0.00     0.033 A 
BRANCH  21  24
ATOM     24  O   UNL d   1       6.873 -10.455  -9.294  0.00  0.00    -0.277 OA
BRANCH  24  25
ATOM     25  C   UNL d   1       7.071 -11.752  -8.834  0.00  0.00     0.273 A 
ATOM     26  N   UNL d   1       8.322 -12.244  -8.904  0.00  0.00    -0.219 NA
ATOM     27  C   UNL d   1       8.503 -13.462  -8.353  0.00  0.00     0.122 A 
ATOM     28  C   UNL d   1       7.498 -14.184  -7.749  0.00  0.00     0.039 A 
ATOM     29  C   UNL d   1       6.255 -13.599  -7.769  0.00  0.00     0.122 A 
ATOM     30  N   UNL d   1       6.006 -12.398  -8.321  0.00  0.00    -0.219 NA
ENDBRANCH  24  25
ENDBRANCH  21  24
ENDBRANCH  16  18
ENDBRANCH   1  16
TORSDOF 7
