REMARK  9 active torsions:
REMARK  status: ('A' for Active; 'I' for Inactive)
REMARK    1  A    between atoms: C_2  and  O_3 
REMARK    2  A    between atoms: O_3  and  C_4 
REMARK    3  A    between atoms: C_4  and  C_6 
REMARK    4  A    between atoms: C_7  and  N_8 
REMARK    5  A    between atoms: N_8  and  C_9 
REMARK    6  A    between atoms: C_9  and  N_11 
REMARK       I    between atoms: N_11  and  C_12 
REMARK    7  A    between atoms: C_12  and  C_14 
REMARK    8  A    between atoms: C_21  and  C_22 
REMARK       I    between atoms: C_22  and  N_24 
REMARK    9  A    between atoms: N_24  and  C_25 
ROOT
ATOM      1  C   UNL d   1       5.237   0.682  -1.004  0.00  0.00     0.080 C 
ATOM      2  C   UNL d   1       4.693  -0.340  -1.780  0.00  0.00     0.094 C 
ATOM      3  S   UNL d   1       6.019  -1.341  -2.370  0.00  0.00    -0.065 SA
ATOM      4  C   UNL d   1       7.270  -0.220  -1.915  0.00  0.00     0.082 C 
ATOM      5  C   UNL d   1       6.699   0.820  -1.181  0.00  0.00    -0.020 C 
ATOM      6  C   UNL d   1       7.454   2.002  -0.585  0.00  0.00     0.051 C 
ENDROOT
BRANCH   2   7
ATOM      7  N   UNL d   1       3.321  -0.765  -2.057  0.00  0.00    -0.326 N 
ATOM      8  H   UNL d   1       3.233  -1.742  -2.313  0.00  0.00     0.169 HD
BRANCH   7   9
ATOM      9  C   UNL d   1       2.166   0.113  -2.109  0.00  0.00     0.179 C 
ATOM     10  S   UNL d   1       2.285   1.750  -2.501  0.00  0.00    -0.040 SA
BRANCH   9  11
ATOM     11  N   UNL d   1       0.878  -0.492  -1.731  0.00  0.00    -0.299 N 
ATOM     12  C   UNL d   1      -0.279   0.211  -1.183  0.00  0.00     0.257 C 
ATOM     13  O   UNL d   1      -0.263   1.390  -0.809  0.00  0.00    -0.267 OA
ATOM     14  H   UNL d   1       0.787  -1.496  -1.767  0.00  0.00     0.171 HD
BRANCH  12  15
ATOM     15  C   UNL d   1      -1.594  -0.406  -0.865  0.00  0.00     0.035 C 
ATOM     16  C   UNL d   1      -1.853  -1.689  -0.405  0.00  0.00     0.036 C 
ATOM     17  C   UNL d   1      -3.193  -2.054  -0.300  0.00  0.00     0.117 C 
ATOM     18  N   UNL d   1      -4.242  -1.236  -0.568  0.00  0.00    -0.273 NA
ATOM     19  C   UNL d   1      -3.959   0.040  -0.878  0.00  0.00     0.117 C 
ATOM     20  C   UNL d   1      -2.670   0.497  -0.987  0.00  0.00     0.036 C 
ENDBRANCH  12  15
ENDBRANCH   9  11
ENDBRANCH   7   9
ENDBRANCH   2   7
BRANCH   1  21
ATOM     21  C   UNL d   1       4.546   1.626  -0.107  0.00  0.00     0.296 C 
ATOM     22  O   UNL d   1       4.928   2.768   0.032  0.00  0.00    -0.259 OA
BRANCH  21  23
ATOM     23  O   UNL d   1       3.546   1.189   0.705  0.00  0.00    -0.318 OA
BRANCH  23  24
ATOM     24  C   UNL d   1       3.019  -0.122   0.953  0.00  0.00     0.174 C 
ATOM     25  C   UNL d   1       1.539   0.068   0.939  0.00  0.00     0.034 C 
ENDBRANCH  23  24
ENDBRANCH  21  23
ENDBRANCH   1  21
BRANCH   4  26
ATOM     26  C   UNL d   1       8.730  -0.281  -2.243  0.00  0.00     0.263 C 
ATOM     27  O   UNL d   1       9.430   0.726  -2.111  0.00  0.00    -0.267 OA
ATOM     28  N   UNL d   1       9.339  -1.434  -2.745  0.00  0.00    -0.322 N 
ATOM     29  H   UNL d   1       8.755  -2.049  -3.291  0.00  0.00     0.169 HD
BRANCH  28  30
ATOM     30  C   UNL d   1      10.762  -1.465  -2.977  0.00  0.00     0.041 A 
ATOM     31  C   UNL d   1      11.245  -1.845  -4.241  0.00  0.00     0.030 A 
ATOM     32  C   UNL d   1      12.626  -1.890  -4.507  0.00  0.00     0.002 A 
ATOM     33  C   UNL d   1      13.546  -1.581  -3.511  0.00  0.00     0.001 A 
ATOM     34  C   UNL d   1      13.087  -1.220  -2.248  0.00  0.00     0.009 A 
ATOM     35  C   UNL d   1      11.706  -1.157  -1.963  0.00  0.00    -0.035 A 
ATOM     36  C   UNL d   1      11.311  -0.849  -0.542  0.00  0.00     0.050 C 
ENDBRANCH  28  30
ENDBRANCH   4  26
TORSDOF 9
