@<TRIPOS>MOLECULE
*****
 31 32 0 0 0
SMALL
GASTEIGER

@<TRIPOS>ATOM
      1 O           1.0215    0.0415   -0.0365 O.2     1  UNL1       -0.2687
      2 C           2.2517   -0.0209   -0.0161 C.2     1  UNL1        0.2602
      3 N           2.9781   -0.1820    1.1579 N.am    1  UNL1       -0.2301
      4 N           2.2910   -0.2810    2.4048 N.am    1  UNL1       -0.2301
      5 C           3.0207   -0.3082    3.5884 C.2     1  UNL1        0.2603
      6 O           4.2514   -0.2558    3.6100 O.2     1  UNL1       -0.2687
      7 C           2.2538   -0.3952    4.8744 C.ar    1  UNL1        0.0416
      8 C           1.1620   -1.2618    5.0173 C.ar    1  UNL1       -0.0494
      9 C           0.4831   -1.3508    6.2438 C.ar    1  UNL1       -0.0576
     10 C           0.8879   -0.5823    7.3384 C.ar    1  UNL1       -0.0201
     11 C           1.9872    0.2589    7.2021 C.ar    1  UNL1        0.1176
     12 O           2.4321    1.0205    8.2450 O.3     1  UNL1       -0.5067
     13 C           2.6746    0.3510    5.9878 C.ar    1  UNL1       -0.0080
     14 C           3.0214    0.0894   -1.3003 C.ar    1  UNL1        0.0383
     15 C           2.6016    0.9983   -2.2910 C.ar    1  UNL1       -0.0469
     16 C           3.2835    1.0900   -3.5148 C.ar    1  UNL1       -0.0257
     17 C           4.3718    0.2613   -3.7567 C.ar    1  UNL1        0.1234
     18 F           5.0242    0.3443   -4.9246 F       1  UNL1       -0.2055
     19 C           4.7855   -0.6609   -2.8009 C.ar    1  UNL1       -0.0257
     20 C           4.1109   -0.7511   -1.5728 C.ar    1  UNL1       -0.0469
     21 H           3.9939   -0.1187    1.2111 H       1  UNL1        0.1731
     22 H           1.2756   -0.2073    2.3672 H       1  UNL1        0.1731
     23 H           0.8508   -1.9021    4.1965 H       1  UNL1        0.0625
     24 H          -0.3605   -2.0307    6.3488 H       1  UNL1        0.0619
     25 H           0.3447   -0.6598    8.2773 H       1  UNL1        0.0654
     26 H           1.8874    0.8504    9.0321 H       1  UNL1        0.2921
     27 H           3.5368    1.0096    5.9189 H       1  UNL1        0.0661
     28 H           1.7410    1.6419   -2.1185 H       1  UNL1        0.0626
     29 H           2.9720    1.7944   -4.2821 H       1  UNL1        0.0646
     30 H           5.6258   -1.3120   -3.0257 H       1  UNL1        0.0646
     31 H           4.4220   -1.5072   -0.8578 H       1  UNL1        0.0626
@<TRIPOS>BOND
     1     1     2    2
     2     2     3   am
     3     3     4    1
     4     4     5   am
     5     5     6    2
     6     5     7    1
     7     7     8   ar
     8     8     9   ar
     9     9    10   ar
    10    10    11   ar
    11    11    12    1
    12    11    13   ar
    13     7    13   ar
    14     2    14    1
    15    14    15   ar
    16    15    16   ar
    17    16    17   ar
    18    17    18    1
    19    17    19   ar
    20    19    20   ar
    21    14    20   ar
    22     3    21    1
    23     4    22    1
    24     8    23    1
    25     9    24    1
    26    10    25    1
    27    12    26    1
    28    13    27    1
    29    15    28    1
    30    16    29    1
    31    19    30    1
    32    20    31    1
