REMARK  12 active torsions:
REMARK  status: ('A' for Active; 'I' for Inactive)
REMARK    1  A    between atoms: C_2  and  C_3 
REMARK    2  A    between atoms: C_3  and  C_4 
REMARK    3  A    between atoms: C_4  and  C_5 
REMARK    4  A    between atoms: C_5  and  C_6 
REMARK    5  A    between atoms: C_6  and  O_7 
REMARK    6  A    between atoms: O_7  and  C_8 
REMARK    7  A    between atoms: C_13  and  C_14 
REMARK       I    between atoms: C_14  and  N_16 
REMARK    8  A    between atoms: N_16  and  C_17 
REMARK    9  A    between atoms: C_17  and  N_19 
REMARK   10  A    between atoms: N_19  and  C_20 
REMARK   11  A    between atoms: C_23  and  N_24 
REMARK   12  A    between atoms: C_28  and  O_29 
ROOT
ATOM      1  C   UNL d   1       8.776   0.053  -3.307  0.00  0.00     0.260 C 
ATOM      2  O   UNL d   1       9.721  -0.712  -3.053  0.00  0.00    -0.267 OA
ATOM      3  N   UNL d   1       7.427  -0.356  -3.295  0.00  0.00    -0.299 N 
ATOM      4  H   UNL d   1       6.757   0.337  -3.605  0.00  0.00     0.171 HD
ENDROOT
BRANCH   3   5
ATOM      5  C   UNL d   1       6.944  -1.570  -2.745  0.00  0.00     0.179 C 
ATOM      6  S   UNL d   1       7.913  -2.950  -2.627  0.00  0.00    -0.040 SA
BRANCH   5   7
ATOM      7  N   UNL d   1       5.584  -1.546  -2.352  0.00  0.00    -0.331 N 
ATOM      8  H   UNL d   1       4.958  -0.870  -2.769  0.00  0.00     0.168 HD
BRANCH   7   9
ATOM      9  C   UNL d   1       4.927  -2.551  -1.547  0.00  0.00     0.068 C 
ATOM     10  C   UNL d   1       3.606  -2.927  -1.842  0.00  0.00     0.035 C 
ATOM     11  C   UNL d   1       2.998  -4.005  -1.165  0.00  0.00     0.038 C 
ATOM     12  C   UNL d   1       3.741  -4.753  -0.240  0.00  0.00     0.105 C 
ATOM     13  C   UNL d   1       5.013  -4.332   0.140  0.00  0.00     0.075 C 
ATOM     14  C   UNL d   1       5.548  -3.192  -0.459  0.00  0.00     0.094 C 
BRANCH  12  15
ATOM     15  N   UNL d   1       3.196  -5.994   0.326  0.00  0.00    -0.116 N 
ATOM     16  O   UNL d   1       2.054  -6.331  -0.014  0.00  0.00    -0.532 OA
ATOM     17  O   UNL d   1       3.921  -6.644   1.094  0.00  0.00    -0.532 OA
ENDBRANCH  12  15
BRANCH  14  18
ATOM     18  O   UNL d   1       6.660  -2.644   0.124  0.00  0.00    -0.358 OA
ATOM     19  H   UNL d   1       7.301  -3.364   0.267  0.00  0.00     0.217 HD
ENDBRANCH  14  18
ENDBRANCH   7   9
ENDBRANCH   5   7
ENDBRANCH   3   5
BRANCH   1  20
ATOM     20  C   UNL d   1       9.202   1.456  -3.611  0.00  0.00     0.065 A 
ATOM     21  C   UNL d   1      10.578   1.621  -3.931  0.00  0.00     0.020 A 
ATOM     22  C   UNL d   1      11.124   2.852  -4.297  0.00  0.00     0.001 A 
ATOM     23  C   UNL d   1      10.299   3.961  -4.354  0.00  0.00     0.003 A 
ATOM     24  C   UNL d   1       8.960   3.844  -3.958  0.00  0.00     0.038 A 
ATOM     25  C   UNL d   1       8.407   2.602  -3.569  0.00  0.00     0.084 A 
BRANCH  25  26
ATOM     26  O   UNL d   1       7.069   2.615  -3.311  0.00  0.00    -0.350 OA
BRANCH  26  27
ATOM     27  C   UNL d   1       6.650   2.131  -2.031  0.00  0.00     0.175 C 
BRANCH  27  28
ATOM     28  C   UNL d   1       5.148   1.904  -2.181  0.00  0.00     0.027 C 
BRANCH  28  29
ATOM     29  C   UNL d   1       4.587   1.137  -0.998  0.00  0.00     0.002 C 
BRANCH  29  30
ATOM     30  C   UNL d   1       3.087   0.936  -1.149  0.00  0.00    -0.000 C 
BRANCH  30  31
ATOM     31  C   UNL d   1       2.556   0.062  -0.022  0.00  0.00    -0.005 C 
ATOM     32  C   UNL d   1       1.042   0.025  -0.043  0.00  0.00     0.005 C 
ENDBRANCH  30  31
ENDBRANCH  29  30
ENDBRANCH  28  29
ENDBRANCH  27  28
ENDBRANCH  26  27
ENDBRANCH  25  26
ENDBRANCH   1  20
TORSDOF 12
