REMARK  8 active torsions:
REMARK  status: ('A' for Active; 'I' for Inactive)
REMARK    1  A    between atoms: O_2  and  C_3 
REMARK    2  A    between atoms: C_7  and  C_8 
REMARK    3  A    between atoms: C_8  and  C_9 
REMARK    4  A    between atoms: C_9  and  N_10 
REMARK       I    between atoms: N_10  and  C_11 
REMARK    5  A    between atoms: C_11  and  C_13 
REMARK    6  A    between atoms: C_13  and  S_14 
REMARK    7  A    between atoms: C_15  and  S_14 
REMARK    8  A    between atoms: N_19  and  C_20 
ROOT
ATOM      1  N   UNL d   1      -2.031   7.860   8.973  0.00  0.00    -0.360 N 
ATOM      2  C   UNL d   1      -1.010   8.792   8.869  0.00  0.00     0.227 C 
ATOM      3  O   UNL d   1      -0.564   9.359   9.874  0.00  0.00    -0.273 OA
ATOM      4  H   UNL d   1      -2.414   7.372   8.175  0.00  0.00     0.162 HD
ENDROOT
BRANCH   2   5
ATOM      5  C   UNL d   1      -0.497   9.089   7.445  0.00  0.00     0.180 C 
BRANCH   5   6
ATOM      6  S   UNL d   1       0.788  10.412   7.536  0.00  0.00    -0.116 SA
BRANCH   6   7
ATOM      7  C   UNL d   1       1.446  10.589   5.814  0.00  0.00     0.267 C 
ATOM      8  N   UNL d   1       0.528  11.489   5.077  0.00  0.00    -0.105 NA
ATOM      9  N   UNL d   1       1.046  12.824   5.417  0.00  0.00     0.072 N 
ATOM     10  H   UNL d   1      -0.430  11.325   5.388  0.00  0.00     0.158 HD
ATOM     11  N   UNL d   1       2.474  12.687   5.601  0.00  0.00    -0.042 NA
ATOM     12  H   UNL d   1       0.620  13.156   6.308  0.00  0.00     0.325 HD
ATOM     13  H   UNL d   1       0.830  13.525   4.683  0.00  0.00     0.325 HD
ATOM     14  N   UNL d   1       2.690  11.344   5.962  0.00  0.00    -0.259 N 
ATOM     15  H   UNL d   1       2.856  13.319   6.321  0.00  0.00     0.181 HD
BRANCH  14  16
ATOM     16  C   UNL d   1       3.977  10.825   6.091  0.00  0.00     0.050 A 
ATOM     17  C   UNL d   1       4.493   9.821   5.261  0.00  0.00     0.031 A 
ATOM     18  C   UNL d   1       5.783   9.298   5.461  0.00  0.00     0.003 A 
ATOM     19  C   UNL d   1       6.577   9.751   6.512  0.00  0.00     0.007 A 
ATOM     20  C   UNL d   1       6.099  10.749   7.359  0.00  0.00    -0.060 A 
ATOM     21  C   UNL d   1       6.931  11.210   8.524  0.00  0.00     0.048 C 
ATOM     22  C   UNL d   1       4.817  11.290   7.126  0.00  0.00     0.037 A 
ENDBRANCH  14  16
ENDBRANCH   6   7
ENDBRANCH   5   6
ENDBRANCH   2   5
BRANCH   1  23
ATOM     23  C   UNL d   1      -2.539   7.551  10.298  0.00  0.00     0.127 C 
BRANCH  23  24
ATOM     24  C   UNL d   1      -3.663   6.521  10.413  0.00  0.00     0.060 C 
BRANCH  24  25
ATOM     25  C   UNL d   1      -4.119   6.270  11.834  0.00  0.00    -0.029 A 
ATOM     26  C   UNL d   1      -3.658   6.901  13.043  0.00  0.00    -0.002 A 
ATOM     27  C   UNL d   1      -2.697   7.890  13.335  0.00  0.00     0.017 A 
ATOM     28  C   UNL d   1      -4.372   6.364  14.116  0.00  0.00     0.045 A 
ATOM     29  C   UNL d   1      -2.505   8.351  14.629  0.00  0.00     0.038 A 
ATOM     30  C   UNL d   1      -3.253   7.833  15.672  0.00  0.00     0.070 A 
ATOM     31  C   UNL d   1      -4.170   6.794  15.443  0.00  0.00     0.067 A 
ATOM     32  N   UNL d   1      -5.227   5.420  13.590  0.00  0.00    -0.365 N 
ATOM     33  C   UNL d   1      -5.110   5.383  12.221  0.00  0.00     0.096 A 
ATOM     34  H   UNL d   1      -5.869   4.858  14.133  0.00  0.00     0.165 HD
BRANCH  30  35
ATOM     35  O   UNL d   1      -3.088   8.260  16.963  0.00  0.00    -0.356 OA
ATOM     36  C   UNL d   1      -2.952   9.678  17.090  0.00  0.00     0.210 C 
ENDBRANCH  30  35
ENDBRANCH  24  25
ENDBRANCH  23  24
ENDBRANCH   1  23
TORSDOF 8
