@<TRIPOS>MOLECULE
*****
 67 70 0 0 0
SMALL
GASTEIGER

@<TRIPOS>ATOM
      1 C           1.0918    0.0332    0.0416 C.3     1  UNL1        0.0788
      2 O           2.5129    0.0038   -0.0544 O.3     1  UNL1       -0.4951
      3 C           3.1239    1.2190   -0.1986 C.ar    1  UNL1        0.1201
      4 C           4.2780    1.2380   -0.9739 C.ar    1  UNL1       -0.0192
      5 C           5.0239    2.4201   -1.0829 C.ar    1  UNL1       -0.0462
      6 C           4.5946    3.6273   -0.4777 C.ar    1  UNL1        0.0373
      7 C           5.3797    4.8774   -0.7766 C.2     1  UNL1        0.2484
      8 O           6.3521    4.6984   -1.4893 O.2     1  UNL1       -0.2699
      9 N           4.9573    6.1394   -0.2834 N.am    1  UNL1       -0.2773
     10 C           5.5806    7.3975   -0.5325 C.2     1  UNL1        0.0967
     11 C           6.6981    7.4556   -1.2865 C.2     1  UNL1       -0.0282
     12 C           7.5561    8.5792   -1.6125 C.ar    1  UNL1       -0.0229
     13 C           7.8345    8.8891   -2.9452 C.ar    1  UNL1       -0.0511
     14 C           8.5610   10.0422   -3.2523 C.ar    1  UNL1       -0.0194
     15 C           8.8704   10.9548   -2.2459 C.ar    1  UNL1        0.1209
     16 O           9.4619   12.1281   -2.6255 O.3     1  UNL1       -0.4894
     17 C           9.6685   13.1387   -1.6187 C.3     1  UNL1        0.0946
     18 C          10.6987   12.7171   -0.5611 C.3     1  UNL1       -0.0281
     19 C          10.2419   14.3757   -2.3151 C.3     1  UNL1       -0.0281
     20 C           8.5657   10.6139   -0.9337 C.ar    1  UNL1       -0.0194
     21 C           8.0403    9.3831   -0.5966 C.ar    1  UNL1       -0.0511
     22 C           4.9224    8.6569    0.1680 C.2     1  UNL1        0.2583
     23 O           4.0201    8.4786    0.9795 O.2     1  UNL1       -0.2688
     24 N           5.3707    9.9373   -0.1553 N.am    1  UNL1       -0.3099
     25 C           5.0337   11.2147    0.5355 C.3     1  UNL1        0.0187
     26 C           5.9574   12.3919    0.1777 C.3     1  UNL1        0.0210
     27 C           5.7000   13.8157    0.6371 C.ar    1  UNL1        0.1097
     28 N           6.2286   14.7938   -0.0634 N.ar    1  UNL1       -0.2324
     29 C           5.8580   15.9524    0.5332 C.ar    1  UNL1        0.0891
     30 C           6.0207   17.2391    0.0203 C.ar    1  UNL1       -0.0342
     31 C           5.7687   18.3443    0.8190 C.ar    1  UNL1       -0.0596
     32 C           5.3308   18.1543    2.1268 C.ar    1  UNL1       -0.0597
     33 C           5.0454   16.8526    2.6361 C.ar    1  UNL1       -0.0363
     34 C           5.2645   15.7407    1.7705 C.ar    1  UNL1        0.0662
     35 N           4.9902   14.3600    1.7129 N.ar    1  UNL1       -0.3418
     36 C           3.4510    3.5874    0.3121 C.ar    1  UNL1       -0.0462
     37 C           2.7275    2.3890    0.4540 C.ar    1  UNL1       -0.0192
     38 H           0.7472   -0.9820    0.2644 H       1  UNL1        0.0660
     39 H           0.6614    0.3371   -0.9172 H       1  UNL1        0.0660
     40 H           0.7256    0.6719    0.8497 H       1  UNL1        0.0660
     41 H           4.5976    0.3421   -1.5046 H       1  UNL1        0.0654
     42 H           5.9517    2.3857   -1.6556 H       1  UNL1        0.0626
     43 H           4.1440    6.2011    0.3176 H       1  UNL1        0.1553
     44 H           7.1101    6.5716   -1.7540 H       1  UNL1        0.0644
     45 H           7.4625    8.2517   -3.7452 H       1  UNL1        0.0625
     46 H           8.8443   10.2394   -4.2817 H       1  UNL1        0.0654
     47 H           8.7037   13.4206   -1.1743 H       1  UNL1        0.0727
     48 H          11.6378   12.4365   -1.0427 H       1  UNL1        0.0265
     49 H          10.4332   11.8422    0.0291 H       1  UNL1        0.0265
     50 H          10.8597   13.5192    0.1624 H       1  UNL1        0.0265
     51 H          11.1900   14.1296   -2.8075 H       1  UNL1        0.0265
     52 H          10.4306   15.1763   -1.5910 H       1  UNL1        0.0265
     53 H           9.5692   14.7567   -3.0887 H       1  UNL1        0.0265
     54 H           8.6722   11.3047   -0.1142 H       1  UNL1        0.0654
     55 H           7.8303    9.1699    0.4501 H       1  UNL1        0.0625
     56 H           5.8997   10.0383   -1.0097 H       1  UNL1        0.1491
     57 H           5.0929   11.0337    1.6112 H       1  UNL1        0.0466
     58 H           4.0101   11.4477    0.2477 H       1  UNL1        0.0466
     59 H           6.0385   12.4432   -0.9223 H       1  UNL1        0.0358
     60 H           6.9707   12.1731    0.5233 H       1  UNL1        0.0358
     61 H           6.3374   17.3297   -1.0081 H       1  UNL1        0.0639
     62 H           5.9499   19.3359    0.4104 H       1  UNL1        0.0618
     63 H           5.1945   19.0493    2.7397 H       1  UNL1        0.0618
     64 H           4.7211   16.7721    3.6726 H       1  UNL1        0.0639
     65 H           4.2413   13.8817    2.1971 H       1  UNL1        0.1671
     66 H           3.0983    4.4616    0.8448 H       1  UNL1        0.0626
     67 H           1.8613    2.3961    1.1053 H       1  UNL1        0.0654
@<TRIPOS>BOND
     1     1     2    1
     2     2     3    1
     3     3     4   ar
     4     4     5   ar
     5     5     6   ar
     6     6     7    1
     7     7     8    2
     8     7     9   am
     9     9    10    1
    10    10    11    2
    11    11    12    1
    12    12    13   ar
    13    13    14   ar
    14    14    15   ar
    15    15    16    1
    16    16    17    1
    17    17    18    1
    18    17    19    1
    19    15    20   ar
    20    20    21   ar
    21    12    21   ar
    22    10    22    1
    23    22    23    2
    24    22    24   am
    25    24    25    1
    26    25    26    1
    27    26    27    1
    28    27    28   ar
    29    28    29   ar
    30    29    30   ar
    31    30    31   ar
    32    31    32   ar
    33    32    33   ar
    34    33    34   ar
    35    29    34   ar
    36    34    35   ar
    37    27    35   ar
    38     6    36   ar
    39    36    37   ar
    40     3    37   ar
    41     1    38    1
    42     1    39    1
    43     1    40    1
    44     4    41    1
    45     5    42    1
    46     9    43    1
    47    11    44    1
    48    13    45    1
    49    14    46    1
    50    17    47    1
    51    18    48    1
    52    18    49    1
    53    18    50    1
    54    19    51    1
    55    19    52    1
    56    19    53    1
    57    20    54    1
    58    21    55    1
    59    24    56    1
    60    25    57    1
    61    25    58    1
    62    26    59    1
    63    26    60    1
    64    30    61    1
    65    31    62    1
    66    32    63    1
    67    33    64    1
    68    35    65    1
    69    36    66    1
    70    37    67    1
