REMARK  6 active torsions:
REMARK  status: ('A' for Active; 'I' for Inactive)
REMARK    1  A    between atoms: C_4  and  C_5 
REMARK       I    between atoms: C_5  and  N_7 
REMARK    2  A    between atoms: N_7  and  C_8 
REMARK    3  A    between atoms: C_10  and  C_11 
REMARK    4  A    between atoms: C_14  and  C_15 
REMARK       I    between atoms: C_15  and  N_16 
REMARK    5  A    between atoms: N_24  and  C_25 
REMARK    6  A    between atoms: C_25  and  C_26 
ROOT
ATOM      1  C   UNL d   1       5.428  -2.667   0.124  0.00  0.00     0.258 C 
ATOM      2  O   UNL d   1       6.651  -2.606   0.067  0.00  0.00    -0.267 OA
ATOM      3  N   UNL d   1       4.702  -3.840   0.145  0.00  0.00    -0.301 N 
ATOM      4  H   UNL d   1       3.743  -3.874  -0.154  0.00  0.00     0.171 HD
ENDROOT
BRANCH   1   5
ATOM      5  C   UNL d   1       4.659  -1.391   0.075  0.00  0.00     0.049 A 
ATOM      6  C   UNL d   1       3.259  -1.325   0.072  0.00  0.00     0.044 A 
ATOM      7  C   UNL d   1       2.625  -0.089   0.035  0.00  0.00     0.034 A 
ATOM      8  C   UNL d   1       1.117  -0.034   0.056  0.00  0.00     0.070 C 
ATOM      9  N   UNL d   1       3.286   1.084  -0.006  0.00  0.00    -0.234 NA
ATOM     10  C   UNL d   1       4.636   1.006   0.022  0.00  0.00     0.159 A 
ATOM     11  N   UNL d   1       5.567   2.033   0.052  0.00  0.00    -0.247 N 
ATOM     12  C   UNL d   1       5.366  -0.172   0.051  0.00  0.00     0.046 A 
ATOM     13  N   UNL d   1       6.848   1.580   0.053  0.00  0.00    -0.182 NA
ATOM     14  C   UNL d   1       6.712   0.253   0.051  0.00  0.00     0.155 A 
BRANCH  11  15
ATOM     15  C   UNL d   1       5.394   3.486   0.095  0.00  0.00     0.199 C 
BRANCH  15  16
ATOM     16  C   UNL d   1       3.972   3.916   0.133  0.00  0.00     0.002 A 
ATOM     17  C   UNL d   1       3.018   3.638   1.095  0.00  0.00     0.017 A 
ATOM     18  C   UNL d   1       1.717   4.016   0.670  0.00  0.00     0.008 A 
ATOM     19  C   UNL d   1       1.744   4.671  -0.540  0.00  0.00     0.050 A 
ATOM     20  S   UNL d   1       3.319   4.785  -1.185  0.00  0.00    -0.105 SA
ENDBRANCH  15  16
ENDBRANCH  11  15
ENDBRANCH   1   5
BRANCH   3  21
ATOM     21  C   UNL d   1       5.369  -5.037   0.143  0.00  0.00     0.173 A 
ATOM     22  N   UNL d   1       6.440  -5.383   0.811  0.00  0.00    -0.223 NA
ATOM     23  C   UNL d   1       6.772  -6.682   0.478  0.00  0.00     0.078 A 
ATOM     24  C   UNL d   1       5.964  -7.279  -0.469  0.00  0.00     0.086 A 
ATOM     25  S   UNL d   1       4.671  -6.223  -0.866  0.00  0.00    -0.061 SA
BRANCH  23  26
ATOM     26  C   UNL d   1       7.899  -7.327   1.145  0.00  0.00     0.011 A 
ATOM     27  C   UNL d   1       9.017  -7.889   0.575  0.00  0.00     0.102 A 
ATOM     28  N   UNL d   1       9.798  -8.389   1.589  0.00  0.00    -0.361 N 
ATOM     29  C   UNL d   1       9.183  -8.195   2.811  0.00  0.00     0.101 A 
ATOM     30  H   UNL d   1      10.693  -8.835   1.451  0.00  0.00     0.165 HD
ATOM     31  C   UNL d   1       7.993  -7.532   2.539  0.00  0.00     0.050 A 
BRANCH  29  32
ATOM     32  C   UNL d   1       9.664  -8.586   4.116  0.00  0.00     0.266 C 
ATOM     33  N   UNL d   1      10.871  -9.215   4.185  0.00  0.00    -0.365 N 
ATOM     34  H   UNL d   1      11.474  -9.417   3.406  0.00  0.00     0.159 HD
ATOM     35  H   UNL d   1      11.188  -9.457   5.115  0.00  0.00     0.159 HD
ATOM     36  O   UNL d   1       9.044  -8.387   5.162  0.00  0.00    -0.266 OA
ENDBRANCH  29  32
ENDBRANCH  23  26
ENDBRANCH   3  21
TORSDOF 6
