REMARK  7 active torsions:
REMARK  status: ('A' for Active; 'I' for Inactive)
REMARK    1  A    between atoms: O_2  and  C_3 
REMARK    2  A    between atoms: C_6  and  C_7 
REMARK       I    between atoms: C_7  and  N_9 
REMARK    3  A    between atoms: N_9  and  C_10 
REMARK    4  A    between atoms: C_10  and  N_12 
REMARK    5  A    between atoms: N_12  and  C_13 
REMARK    6  A    between atoms: C_16  and  C_17 
REMARK    7  A    between atoms: C_29  and  O_30 
ROOT
ATOM      1  N   UNL d   1       4.912   5.279  -6.817  0.00  0.00    -0.333 N 
ATOM      2  H   UNL d   1       4.312   5.852  -6.237  0.00  0.00     0.168 HD
ENDROOT
BRANCH   1   3
ATOM      3  C   UNL d   1       5.500   4.094  -6.272  0.00  0.00     0.179 C 
ATOM      4  S   UNL d   1       6.929   3.421  -6.887  0.00  0.00    -0.040 SA
BRANCH   3   5
ATOM      5  N   UNL d   1       4.824   3.548  -5.143  0.00  0.00    -0.299 N 
ATOM      6  C   UNL d   1       5.210   2.348  -4.467  0.00  0.00     0.257 C 
ATOM      7  O   UNL d   1       6.119   1.619  -4.828  0.00  0.00    -0.267 OA
ATOM      8  H   UNL d   1       4.018   4.040  -4.799  0.00  0.00     0.171 HD
BRANCH   6   9
ATOM      9  C   UNL d   1       4.479   1.827  -3.266  0.00  0.00     0.035 A 
ATOM     10  C   UNL d   1       4.897   0.596  -2.719  0.00  0.00     0.020 A 
ATOM     11  C   UNL d   1       4.185  -0.032  -1.681  0.00  0.00     0.040 A 
ATOM     12  C   UNL d   1       3.063   0.578  -1.097  0.00  0.00     0.101 A 
ATOM     13  C   UNL d   1       2.705   1.859  -1.583  0.00  0.00     0.102 A 
ATOM     14  C   UNL d   1       3.401   2.451  -2.669  0.00  0.00     0.056 A 
BRANCH  12  15
ATOM     15  O   UNL d   1       2.625  -0.075   0.034  0.00  0.00    -0.353 OA
ATOM     16  C   UNL d   1       1.270  -0.518   0.147  0.00  0.00     0.210 C 
ENDBRANCH  12  15
BRANCH  13  17
ATOM     17  O   UNL d   1       1.772   2.766  -1.142  0.00  0.00    -0.353 OA
ATOM     18  C   UNL d   1       0.856   2.281  -0.203  0.00  0.00     0.210 C 
ENDBRANCH  13  17
ENDBRANCH   6   9
ENDBRANCH   3   5
ENDBRANCH   1   3
BRANCH   1  19
ATOM     19  C   UNL d   1       5.403   5.906  -8.037  0.00  0.00     0.034 A 
ATOM     20  C   UNL d   1       5.714   7.272  -8.171  0.00  0.00     0.030 A 
ATOM     21  C   UNL d   1       6.339   7.797  -9.369  0.00  0.00     0.017 A 
ATOM     22  C   UNL d   1       6.698   6.958 -10.432  0.00  0.00     0.010 A 
ATOM     23  C   UNL d   1       6.272   5.619 -10.297  0.00  0.00     0.017 A 
ATOM     24  C   UNL d   1       5.619   5.119  -9.161  0.00  0.00     0.030 A 
BRANCH  22  25
ATOM     25  C   UNL d   1       7.430   7.265 -11.708  0.00  0.00     0.139 C 
ATOM     26  N   UNL d   1       7.293   6.435 -12.725  0.00  0.00    -0.228 NA
ATOM     27  C   UNL d   1       8.020   6.915 -13.759  0.00  0.00     0.086 C 
ATOM     28  C   UNL d   1       7.979   6.477 -15.082  0.00  0.00     0.034 C 
ATOM     29  C   UNL d   1       8.839   7.963 -13.373  0.00  0.00     0.062 C 
ATOM     30  C   UNL d   1       8.874   6.992 -16.009  0.00  0.00     0.002 C 
ATOM     31  C   UNL d   1       9.830   7.918 -15.596  0.00  0.00     0.002 C 
ATOM     32  C   UNL d   1       9.841   8.434 -14.268  0.00  0.00     0.032 C 
ATOM     33  N   UNL d   1       8.284   8.303 -12.122  0.00  0.00    -0.338 N 
ATOM     34  H   UNL d   1       8.294   9.229 -11.719  0.00  0.00     0.167 HD
ENDBRANCH  22  25
ENDBRANCH   1  19
TORSDOF 7
