REMARK  11 active torsions:
REMARK  status: ('A' for Active; 'I' for Inactive)
REMARK    1  A    between atoms: C_3  and  C_2 
REMARK    2  A    between atoms: C_3  and  C_5 
REMARK    3  A    between atoms: C_8  and  O_9 
REMARK    4  A    between atoms: O_9  and  C_10 
REMARK    5  A    between atoms: C_10  and  C_11 
REMARK       I    between atoms: C_11  and  N_13 
REMARK    6  A    between atoms: N_13  and  N_14 
REMARK    7  A    between atoms: N_14  and  C_15 
REMARK    8  A    between atoms: C_15  and  N_17 
REMARK       I    between atoms: N_17  and  C_18 
REMARK    9  A    between atoms: C_18  and  C_20 
REMARK   10  A    between atoms: C_24  and  C_25 
REMARK   11  A    between atoms: C_25  and  O_27 
ROOT
ATOM      1  N   UNL d   1      13.301   2.731   1.447  0.00  0.00    -0.273 N 
ATOM      2  H   UNL d   1      13.630   1.772   1.337  0.00  0.00     0.189 HD
ENDROOT
BRANCH   1   3
ATOM      3  N   UNL d   1      11.845   2.870   1.477  0.00  0.00    -0.266 N 
ATOM      4  C   UNL d   1      11.009   1.763   1.354  0.00  0.00     0.260 C 
ATOM      5  O   UNL d   1      11.480   0.634   1.207  0.00  0.00    -0.269 OA
ATOM      6  H   UNL d   1      11.503   3.824   1.597  0.00  0.00     0.190 HD
BRANCH   4   7
ATOM      7  C   UNL d   1       9.472   2.054   1.415  0.00  0.00     0.280 C 
BRANCH   7   8
ATOM      8  O   UNL d   1       8.702   0.846   1.344  0.00  0.00    -0.342 OA
BRANCH   8   9
ATOM      9  C   UNL d   1       7.335   0.927   1.264  0.00  0.00     0.069 A 
ATOM     10  C   UNL d   1       6.666  -0.282   1.048  0.00  0.00     0.037 A 
ATOM     11  C   UNL d   1       5.275  -0.319   0.861  0.00  0.00     0.010 A 
ATOM     12  C   UNL d   1       4.498   0.846   0.976  0.00  0.00    -0.054 A 
ATOM     13  C   UNL d   1       5.170   2.049   1.237  0.00  0.00     0.010 A 
ATOM     14  C   UNL d   1       6.572   2.089   1.373  0.00  0.00     0.037 A 
BRANCH  12  15
ATOM     15  C   UNL d   1       2.953   0.784   1.018  0.00  0.00     0.014 C 
ATOM     16  C   UNL d   1       2.404  -0.128  -0.073  0.00  0.00     0.015 C 
BRANCH  15  17
ATOM     17  C   UNL d   1       2.598   0.451   2.493  0.00  0.00     0.004 C 
ATOM     18  C   UNL d   1       1.327  -0.162   3.066  0.00  0.00     0.006 C 
ENDBRANCH  15  17
ENDBRANCH  12  15
ENDBRANCH   8   9
ENDBRANCH   7   8
ENDBRANCH   4   7
ENDBRANCH   1   3
BRANCH   1  19
ATOM     19  C   UNL d   1      14.105   3.878   1.589  0.00  0.00     0.193 C 
ATOM     20  S   UNL d   1      13.365   5.385   1.774  0.00  0.00    -0.039 SA
BRANCH  19  21
ATOM     21  N   UNL d   1      15.506   3.656   1.555  0.00  0.00    -0.298 N 
ATOM     22  C   UNL d   1      16.513   4.640   1.718  0.00  0.00     0.257 C 
ATOM     23  O   UNL d   1      16.305   5.837   1.904  0.00  0.00    -0.267 OA
ATOM     24  H   UNL d   1      15.824   2.703   1.453  0.00  0.00     0.171 HD
BRANCH  22  25
ATOM     25  C   UNL d   1      17.965   4.281   1.656  0.00  0.00     0.033 A 
ATOM     26  C   UNL d   1      18.854   4.985   2.499  0.00  0.00     0.017 A 
ATOM     27  C   UNL d   1      20.239   4.896   2.325  0.00  0.00     0.002 A 
ATOM     28  C   UNL d   1      20.754   4.057   1.340  0.00  0.00     0.017 A 
ATOM     29  C   UNL d   1      19.888   3.355   0.484  0.00  0.00     0.040 A 
ATOM     30  C   UNL d   1      18.489   3.474   0.642  0.00  0.00     0.034 A 
BRANCH  29  31
ATOM     31  C   UNL d   1      20.501   2.548  -0.610  0.00  0.00     0.292 C 
ATOM     32  O   UNL d   1      21.716   2.430  -0.761  0.00  0.00    -0.259 OA
BRANCH  31  33
ATOM     33  O   UNL d   1      19.553   1.981  -1.393  0.00  0.00    -0.323 OA
ATOM     34  C   UNL d   1      20.073   1.189  -2.467  0.00  0.00     0.213 C 
ENDBRANCH  31  33
ENDBRANCH  29  31
ENDBRANCH  22  25
ENDBRANCH  19  21
ENDBRANCH   1  19
TORSDOF 11
