@<TRIPOS>MOLECULE
*****
 45 47 0 0 0
SMALL
GASTEIGER

@<TRIPOS>ATOM
      1 C           2.4804    0.3406   -0.0795 C.3     1  UNL1       -0.0315
      2 C           1.0211    0.1404    0.0088 C.ar    1  UNL1        0.0477
      3 C           0.4427   -1.1697    0.0296 C.ar    1  UNL1        0.0432
      4 N           1.1789   -2.4435    0.0262 N.am    1  UNL1       -0.2773
      5 C           2.5608   -2.6975    0.1518 C.2     1  UNL1        0.3031
      6 O           3.5109   -1.9608    0.4300 O.2     1  UNL1       -0.2648
      7 C           3.1203   -4.0999   -0.0171 C.2     1  UNL1        0.2993
      8 O           2.4361   -5.0831   -0.0244 O.2     1  UNL1       -0.2652
      9 N           4.5188   -3.9870   -0.0826 N.am    1  UNL1       -0.3073
     10 C           5.3667   -5.1070   -0.0031 C.3     1  UNL1        0.0161
     11 C           6.8735   -4.8759    0.0121 C.3     1  UNL1       -0.0101
     12 C           7.6042   -6.1914    0.0228 C.ar    1  UNL1       -0.0209
     13 C           8.9738   -6.3653   -0.0328 C.ar    1  UNL1        0.0060
     14 N           9.2380   -7.7110    0.0090 N.ar    1  UNL1       -0.3604
     15 C           8.0649   -8.4315    0.0334 C.ar    1  UNL1        0.0467
     16 C           7.8308   -9.8156    0.0271 C.ar    1  UNL1       -0.0378
     17 C           6.5027  -10.2683    0.0205 C.ar    1  UNL1       -0.0598
     18 C           5.4452   -9.3820    0.0530 C.ar    1  UNL1       -0.0611
     19 C           5.7010   -8.0225    0.0875 C.ar    1  UNL1       -0.0523
     20 C           7.0214   -7.5108    0.0578 C.ar    1  UNL1        0.0029
     21 C          -0.9705   -1.2126    0.0086 C.ar    1  UNL1       -0.0398
     22 C          -1.7482   -0.0277   -0.0033 C.ar    1  UNL1       -0.0536
     23 C          -1.1479    1.2340    0.0077 C.ar    1  UNL1        0.0160
     24 C           0.2404    1.3249    0.0163 C.ar    1  UNL1        0.2778
     25 N           0.8690    2.6847    0.0095 N.pl3   1  UNL1        0.0799
     26 O           0.1104    3.6611   -0.0105 O.2     1  UNL1        0.0415
     27 O           2.1019    2.8005    0.0274 O.co2   1  UNL1       -0.5760
     28 H           2.8126   -0.5767   -0.4355 H       1  UNL1        0.0280
     29 H           2.9293    0.6271    0.8778 H       1  UNL1        0.0280
     30 H           2.8318    0.8878   -0.9526 H       1  UNL1        0.0280
     31 H           0.6110   -3.2880   -0.0254 H       1  UNL1        0.1553
     32 H           4.8946   -3.0466    0.0436 H       1  UNL1        0.1492
     33 H           5.0988   -5.6795   -0.8942 H       1  UNL1        0.0465
     34 H           5.0778   -5.6131    0.9239 H       1  UNL1        0.0465
     35 H           7.1606   -4.2911    0.8961 H       1  UNL1        0.0329
     36 H           7.1761   -4.2916   -0.8657 H       1  UNL1        0.0329
     37 H           9.7803   -5.6452   -0.0996 H       1  UNL1        0.0810
     38 H          10.1618   -8.1198   -0.0063 H       1  UNL1        0.1653
     39 H           8.6462  -10.5287    0.0091 H       1  UNL1        0.0638
     40 H           6.2830  -11.3301   -0.0141 H       1  UNL1        0.0618
     41 H           4.4106   -9.7132    0.0449 H       1  UNL1        0.0618
     42 H           4.8150   -7.4013    0.1132 H       1  UNL1        0.0624
     43 H          -1.5184   -2.1562    0.0012 H       1  UNL1        0.0636
     44 H          -2.8380   -0.0794   -0.0200 H       1  UNL1        0.0620
     45 H          -1.7624    2.1328    0.0012 H       1  UNL1        0.0685
@<TRIPOS>UNITY_ATOM_ATTR
25 1
charge 1
27 1
charge -1
@<TRIPOS>BOND
     1     1     2    1
     2     2     3   ar
     3     3     4    1
     4     4     5   am
     5     5     6    2
     6     5     7    1
     7     7     8    2
     8     7     9   am
     9     9    10    1
    10    10    11    1
    11    11    12    1
    12    12    13   ar
    13    13    14   ar
    14    14    15   ar
    15    15    16   ar
    16    16    17   ar
    17    17    18   ar
    18    18    19   ar
    19    19    20   ar
    20    12    20   ar
    21    15    20   ar
    22     3    21   ar
    23    21    22   ar
    24    22    23   ar
    25    23    24   ar
    26     2    24   ar
    27    24    25    1
    28    25    26    2
    29    25    27    1
    30     1    28    1
    31     1    29    1
    32     1    30    1
    33     4    31    1
    34     9    32    1
    35    10    33    1
    36    10    34    1
    37    11    35    1
    38    11    36    1
    39    13    37    1
    40    14    38    1
    41    16    39    1
    42    17    40    1
    43    18    41    1
    44    19    42    1
    45    21    43    1
    46    22    44    1
    47    23    45    1
