@<TRIPOS>MOLECULE
*****
 45 48 0 0 0
SMALL
GASTEIGER

@<TRIPOS>ATOM
      1 C           1.0896   -0.1086   -0.1392 C.3     1  UNL1       -0.0191
      2 C           2.6156   -0.0593    0.0272 C.3     1  UNL1        0.1730
      3 O           3.0532    0.1362    1.3850 O.3     1  UNL1       -0.4784
      4 C           2.7520    1.2946    2.0643 C.ar    1  UNL1        0.1399
      5 C           1.4632    1.8288    2.1697 C.ar    1  UNL1       -0.0171
      6 C           1.1830    2.9459    2.9617 C.ar    1  UNL1       -0.0398
      7 C           2.1834    3.5027    3.7393 C.ar    1  UNL1        0.0426
      8 CL          1.8015    4.8113    4.7860 Cl      1  UNL1       -0.0835
      9 C           3.4686    2.9705    3.7007 C.ar    1  UNL1       -0.0215
     10 C           3.7514    1.8795    2.8608 C.ar    1  UNL1        0.0839
     11 CL          5.3663    1.2599    2.8567 Cl      1  UNL1       -0.0797
     12 C           3.1251   -1.4560   -0.4567 C.2     1  UNL1        0.2577
     13 O           2.3207   -2.3815   -0.6489 O.2     1  UNL1       -0.2714
     14 N           4.4985   -1.6345   -0.6262 N.am    1  UNL1       -0.2812
     15 C           5.0172   -2.9101   -1.0637 C.ar    1  UNL1        0.0542
     16 C           6.0383   -3.5237   -0.2823 C.ar    1  UNL1       -0.0097
     17 C           6.4563   -4.8248   -0.6967 C.ar    1  UNL1        0.1150
     18 N           7.3069   -5.7027   -0.1233 N.ar    1  UNL1       -0.1470
     19 N           7.3703   -6.7170   -1.0313 N.ar    1  UNL1       -0.1492
     20 C           8.1743   -7.8809   -0.8506 C.ar    1  UNL1        0.0862
     21 C           8.9770   -8.3488   -1.9047 C.ar    1  UNL1       -0.0345
     22 C           9.6489   -9.5735   -1.7923 C.ar    1  UNL1       -0.0597
     23 C           9.5583  -10.3151   -0.6158 C.ar    1  UNL1       -0.0616
     24 C           8.8256   -9.8152    0.4625 C.ar    1  UNL1       -0.0597
     25 C           8.1146   -8.6104    0.3437 C.ar    1  UNL1       -0.0345
     26 N           6.5856   -6.5933   -2.1287 N.ar    1  UNL1       -0.1471
     27 C           5.9300   -5.4434   -1.9108 C.ar    1  UNL1        0.1147
     28 C           4.9318   -4.8355   -2.6897 C.ar    1  UNL1       -0.0122
     29 C           4.5092   -3.5608   -2.2462 C.ar    1  UNL1        0.0643
     30 CL          3.4450   -2.7351   -3.3574 Cl      1  UNL1       -0.0816
     31 H           0.6281    0.8738   -0.0579 H       1  UNL1        0.0270
     32 H           0.6468   -0.7741    0.6142 H       1  UNL1        0.0270
     33 H           0.7918   -0.4555   -1.1325 H       1  UNL1        0.0270
     34 H           3.0426    0.7175   -0.6199 H       1  UNL1        0.0829
     35 H           0.5929    1.3732    1.7259 H       1  UNL1        0.0655
     36 H           0.1657    3.3311    2.9946 H       1  UNL1        0.0633
     37 H           4.2420    3.3910    4.3372 H       1  UNL1        0.0648
     38 H           5.0950   -1.0411   -0.0581 H       1  UNL1        0.1550
     39 H           6.4482   -3.0742    0.6130 H       1  UNL1        0.0659
     40 H           9.1205   -7.7506   -2.8019 H       1  UNL1        0.0639
     41 H          10.2440   -9.9518   -2.6212 H       1  UNL1        0.0618
     42 H          10.0600  -11.2786   -0.5386 H       1  UNL1        0.0618
     43 H           8.7959  -10.3794    1.3925 H       1  UNL1        0.0618
     44 H           7.4688   -8.2960    1.1594 H       1  UNL1        0.0639
     45 H           4.5375   -5.3012   -3.5833 H       1  UNL1        0.0655
@<TRIPOS>BOND
     1     1     2    1
     2     2     3    1
     3     3     4    1
     4     4     5   ar
     5     5     6   ar
     6     6     7   ar
     7     7     8    1
     8     7     9   ar
     9     9    10   ar
    10     4    10   ar
    11    10    11    1
    12     2    12    1
    13    12    13    2
    14    12    14   am
    15    14    15    1
    16    15    16   ar
    17    16    17   ar
    18    17    18   ar
    19    18    19   ar
    20    19    20    1
    21    20    21   ar
    22    21    22   ar
    23    22    23   ar
    24    23    24   ar
    25    24    25   ar
    26    20    25   ar
    27    19    26   ar
    28    26    27   ar
    29    17    27   ar
    30    27    28   ar
    31    28    29   ar
    32    15    29   ar
    33    29    30    1
    34     1    31    1
    35     1    32    1
    36     1    33    1
    37     2    34    1
    38     5    35    1
    39     6    36    1
    40     9    37    1
    41    14    38    1
    42    16    39    1
    43    21    40    1
    44    22    41    1
    45    23    42    1
    46    24    43    1
    47    25    44    1
    48    28    45    1
