@<TRIPOS>MOLECULE
*****
 53 54 0 0 0
SMALL
GASTEIGER

@<TRIPOS>ATOM
      1 C           0.7481   -0.0532    0.2563 C.3     1  UNL1       -0.0605
      2 C           2.2470   -0.0387    0.2541 C.3     1  UNL1       -0.0153
      3 C           2.8693    1.2999    0.5992 C.3     1  UNL1       -0.0318
      4 N           4.3694    1.2854    0.4778 N.4     1  UNL1        0.2389
      5 C           4.9795    1.0232   -0.8870 C.3     1  UNL1       -0.0231
      6 C           4.6569   -0.3539   -1.4532 C.3     1  UNL1        0.0644
      7 C           5.0552   -0.4440   -2.8785 C.2     1  UNL1        0.2223
      8 O           5.4346    0.5597   -3.4538 O.2     1  UNL1       -0.2753
      9 N           4.7519   -1.6726   -3.4644 N.am    1  UNL1       -0.2849
     10 C           5.1669   -1.9299   -4.7848 C.ar    1  UNL1        0.0427
     11 C           4.2665   -2.4744   -5.7180 C.ar    1  UNL1        0.0370
     12 C           4.7117   -2.7075   -7.0315 C.ar    1  UNL1        0.2749
     13 N           3.7982   -3.2473   -8.0508 N.pl3   1  UNL1        0.0797
     14 O           2.6266   -3.4681   -7.7132 O.2     1  UNL1        0.0414
     15 O           4.2554   -3.4522   -9.1842 O.co2   1  UNL1       -0.5760
     16 C           6.0334   -2.4288   -7.3953 C.ar    1  UNL1        0.0160
     17 C           6.9192   -1.9209   -6.4489 C.ar    1  UNL1       -0.0507
     18 C           6.5072   -1.6755   -5.1383 C.ar    1  UNL1       -0.0288
     19 C           7.5490   -1.2379   -4.1371 C.3     1  UNL1       -0.0379
     20 C           4.9693    2.5607    1.0798 C.3     1  UNL1       -0.0024
     21 C           5.9731    2.3483    2.1828 C.ar    1  UNL1        0.0384
     22 C           6.4739    3.4840    2.8475 C.ar    1  UNL1       -0.0500
     23 C           7.4239    3.3530    3.8603 C.ar    1  UNL1       -0.0611
     24 C           7.8872    2.0897    4.2204 C.ar    1  UNL1       -0.0583
     25 C           7.3988    0.9533    3.5802 C.ar    1  UNL1       -0.0197
     26 C           6.4504    1.0885    2.5721 C.ar    1  UNL1        0.1251
     27 O           5.9635   -0.0371    1.9544 O.3     1  UNL1       -0.5063
     28 H           0.4168   -1.0152   -0.1545 H       1  UNL1        0.0232
     29 H           0.3954    0.7250   -0.4315 H       1  UNL1        0.0232
     30 H           0.3433    0.0989    1.2500 H       1  UNL1        0.0232
     31 H           2.3441   -0.2246   -0.7916 H       1  UNL1        0.0314
     32 H           2.7044   -0.8707    0.8027 H       1  UNL1        0.0314
     33 H           2.6402    1.5347    1.6442 H       1  UNL1        0.0814
     34 H           2.5096    2.1016   -0.0514 H       1  UNL1        0.0814
     35 H           4.7233    0.5362    1.0972 H       1  UNL1        0.2037
     36 H           6.0678    1.1169   -0.7688 H       1  UNL1        0.0819
     37 H           4.6266    1.8342   -1.5313 H       1  UNL1        0.0819
     38 H           3.6200   -0.4535   -1.6794 H       1  UNL1        0.0411
     39 H           4.9707   -1.1856   -0.8171 H       1  UNL1        0.0411
     40 H           3.9805   -2.2211   -3.0964 H       1  UNL1        0.1548
     41 H           3.2275   -2.6671   -5.4546 H       1  UNL1        0.0704
     42 H           6.3989   -2.6105   -8.4037 H       1  UNL1        0.0685
     43 H           7.9518   -1.7335   -6.7314 H       1  UNL1        0.0623
     44 H           8.5461   -1.2140   -4.5766 H       1  UNL1        0.0278
     45 H           7.5599   -1.9244   -3.2832 H       1  UNL1        0.0278
     46 H           7.3949   -0.2226   -3.7753 H       1  UNL1        0.0278
     47 H           4.1399    3.1673    1.4647 H       1  UNL1        0.0868
     48 H           5.4356    3.1282    0.2643 H       1  UNL1        0.0868
     49 H           6.1342    4.4867    2.5851 H       1  UNL1        0.0623
     50 H           7.8080    4.2360    4.3690 H       1  UNL1        0.0618
     51 H           8.6333    1.9906    5.0056 H       1  UNL1        0.0619
     52 H           7.7683   -0.0223    3.8822 H       1  UNL1        0.0654
     53 H           6.4287   -0.8138    2.3259 H       1  UNL1        0.2921
@<TRIPOS>UNITY_ATOM_ATTR
4 1
charge 1
13 1
charge 1
15 1
charge -1
@<TRIPOS>BOND
     1     1     2    1
     2     2     3    1
     3     3     4    1
     4     4     5    1
     5     5     6    1
     6     6     7    1
     7     7     8    2
     8     7     9   am
     9     9    10    1
    10    10    11   ar
    11    11    12   ar
    12    12    13    1
    13    13    14    2
    14    13    15    1
    15    12    16   ar
    16    16    17   ar
    17    17    18   ar
    18    10    18   ar
    19    18    19    1
    20     4    20    1
    21    20    21    1
    22    21    22   ar
    23    22    23   ar
    24    23    24   ar
    25    24    25   ar
    26    25    26   ar
    27    21    26   ar
    28    26    27    1
    29     1    28    1
    30     1    29    1
    31     1    30    1
    32     2    31    1
    33     2    32    1
    34     3    33    1
    35     3    34    1
    36     4    35    1
    37     5    36    1
    38     5    37    1
    39     6    38    1
    40     6    39    1
    41     9    40    1
    42    11    41    1
    43    16    42    1
    44    17    43    1
    45    19    44    1
    46    19    45    1
    47    19    46    1
    48    20    47    1
    49    20    48    1
    50    22    49    1
    51    23    50    1
    52    24    51    1
    53    25    52    1
    54    27    53    1
