@<TRIPOS>MOLECULE
*****
 57 60 0 0 0
SMALL
GASTEIGER

@<TRIPOS>ATOM
      1 O         -13.2994  -14.1909   -1.5310 O.2     1  UNL1       -0.2726
      2 C         -14.4472  -14.3827   -1.9305 C.2     1  UNL1        0.2462
      3 N         -15.4101  -13.3842   -2.1545 N.am    1  UNL1       -0.2804
      4 C         -15.1062  -12.0072   -2.1408 C.ar    1  UNL1        0.0754
      5 C         -15.9649  -11.0847   -1.5231 C.ar    1  UNL1       -0.0366
      6 C         -15.6174   -9.7237   -1.4549 C.ar    1  UNL1       -0.0563
      7 C         -14.4295   -9.2665   -2.0383 C.ar    1  UNL1       -0.0395
      8 C         -14.0984   -7.7871   -2.0088 C.3     1  UNL1       -0.0022
      9 C         -12.8320   -7.4175   -2.7417 C.ar    1  UNL1       -0.0395
     10 C         -12.6449   -7.6454   -4.1128 C.ar    1  UNL1       -0.0563
     11 C         -11.3790   -7.4692   -4.7005 C.ar    1  UNL1       -0.0366
     12 C         -10.2931   -6.9758   -3.9441 C.ar    1  UNL1        0.0754
     13 N          -9.0429   -6.8002   -4.6145 N.am    1  UNL1       -0.2804
     14 C          -7.8625   -6.3304   -4.0692 C.2     1  UNL1        0.2462
     15 O          -7.7238   -5.9721   -2.8919 O.2     1  UNL1       -0.2726
     16 C          -6.6279   -6.1659   -4.9402 C.3     1  UNL1        0.1347
     17 C          -6.4562   -7.1938   -6.0259 C.3     1  UNL1       -0.0159
     18 C          -6.9947   -6.4675   -7.2332 C.3     1  UNL1       -0.0266
     19 C          -6.6552   -5.0187   -6.9560 C.3     1  UNL1        0.0487
     20 O          -6.6253   -4.8697   -5.5397 O.3     1  UNL1       -0.3673
     21 C         -10.5364   -6.7049   -2.5876 C.ar    1  UNL1        0.1382
     22 O          -9.6764   -6.2089   -1.6581 O.3     1  UNL1       -0.5049
     23 C         -11.7678   -6.9413   -1.9992 C.ar    1  UNL1       -0.0148
     24 C         -13.5917  -10.2070   -2.6603 C.ar    1  UNL1       -0.0148
     25 C         -13.9486  -11.5409   -2.7531 C.ar    1  UNL1        0.1382
     26 O         -13.2182  -12.3659   -3.5659 O.3     1  UNL1       -0.5049
     27 C         -15.0257  -15.8009   -2.0874 C.3     1  UNL1        0.1347
     28 C         -14.0952  -16.9785   -1.7978 C.3     1  UNL1       -0.0159
     29 C         -14.6456  -18.0525   -2.7094 C.3     1  UNL1       -0.0266
     30 C         -15.0870  -17.2559   -3.9129 C.3     1  UNL1        0.0487
     31 O         -15.5340  -15.9872   -3.4197 O.3     1  UNL1       -0.3673
     32 H         -16.3777  -13.6549   -2.2649 H       1  UNL1        0.1550
     33 H         -16.8814  -11.4067   -1.0374 H       1  UNL1        0.0637
     34 H         -16.2667   -9.0216   -0.9318 H       1  UNL1        0.0621
     35 H         -14.0096   -7.4830   -0.9546 H       1  UNL1        0.0361
     36 H         -14.9190   -7.1981   -2.4340 H       1  UNL1        0.0361
     37 H         -13.4657   -8.0637   -4.6972 H       1  UNL1        0.0621
     38 H         -11.2781   -7.7508   -5.7482 H       1  UNL1        0.0637
     39 H          -9.0494   -7.0565   -5.5939 H       1  UNL1        0.1550
     40 H          -5.7765   -6.2211   -4.2476 H       1  UNL1        0.0693
     41 H          -6.9573   -8.1421   -5.8124 H       1  UNL1        0.0296
     42 H          -5.3873   -7.4025   -6.1544 H       1  UNL1        0.0296
     43 H          -8.0824   -6.5740   -7.2842 H       1  UNL1        0.0288
     44 H          -6.5831   -6.8333   -8.1742 H       1  UNL1        0.0288
     45 H          -7.3987   -4.3284   -7.3632 H       1  UNL1        0.0560
     46 H          -5.6697   -4.7500   -7.3475 H       1  UNL1        0.0560
     47 H          -8.8414   -5.9709   -2.0994 H       1  UNL1        0.2922
     48 H         -11.8586   -6.7636   -0.9301 H       1  UNL1        0.0657
     49 H         -12.6557   -9.9134   -3.1186 H       1  UNL1        0.0657
     50 H         -12.3292  -11.9949   -3.6687 H       1  UNL1        0.2922
     51 H         -15.8764  -15.8653   -1.3999 H       1  UNL1        0.0693
     52 H         -14.1343  -17.2875   -0.7473 H       1  UNL1        0.0296
     53 H         -13.0460  -16.7700   -2.0384 H       1  UNL1        0.0296
     54 H         -15.5206  -18.5206   -2.2420 H       1  UNL1        0.0288
     55 H         -13.9332  -18.8457   -2.9542 H       1  UNL1        0.0288
     56 H         -15.9102  -17.7332   -4.4508 H       1  UNL1        0.0560
     57 H         -14.2579  -17.0973   -4.6118 H       1  UNL1        0.0560
@<TRIPOS>BOND
     1     1     2    2
     2     2     3   am
     3     3     4    1
     4     4     5   ar
     5     5     6   ar
     6     6     7   ar
     7     7     8    1
     8     8     9    1
     9     9    10   ar
    10    10    11   ar
    11    11    12   ar
    12    12    13    1
    13    13    14   am
    14    14    15    2
    15    16    17    1
    16    17    18    1
    17    18    19    1
    18    19    20    1
    19    16    20    1
    20    12    21   ar
    21    21    22    1
    22    21    23   ar
    23     9    23   ar
    24     7    24   ar
    25    24    25   ar
    26     4    25   ar
    27    25    26    1
    28     2    27    1
    29    27    28    1
    30    28    29    1
    31    29    30    1
    32    30    31    1
    33    27    31    1
    34    16    14    1
    35     3    32    1
    36     5    33    1
    37     6    34    1
    38     8    35    1
    39     8    36    1
    40    10    37    1
    41    11    38    1
    42    13    39    1
    43    16    40    1
    44    17    41    1
    45    17    42    1
    46    18    43    1
    47    18    44    1
    48    19    45    1
    49    19    46    1
    50    22    47    1
    51    23    48    1
    52    24    49    1
    53    26    50    1
    54    27    51    1
    55    28    52    1
    56    28    53    1
    57    29    54    1
    58    29    55    1
    59    30    56    1
    60    30    57    1
