@<TRIPOS>MOLECULE
*****
 58 59 0 0 0
SMALL
GASTEIGER

@<TRIPOS>ATOM
      1 O           1.0162    0.1567   -0.0838 O.2     1  UNL1       -0.1552
      2 S           2.4613    0.0221    0.0085 S.O2    1  UNL1        0.0431
      3 O           3.0843   -0.4474    1.2197 O.2     1  UNL1       -0.1552
      4 C           2.9788   -1.0195   -1.3556 C.3     1  UNL1        0.0848
      5 C           2.4776   -2.4434   -1.2286 C.3     1  UNL1       -0.0318
      6 C           3.0164   -3.2962   -2.3772 C.3     1  UNL1       -0.0515
      7 C           2.5344   -4.7320   -2.2281 C.3     1  UNL1       -0.0530
      8 C           3.0394   -5.6029   -3.3709 C.3     1  UNL1       -0.0530
      9 C           2.5343   -7.0361   -3.2104 C.3     1  UNL1       -0.0515
     10 C           3.0261   -7.9129   -4.3545 C.3     1  UNL1       -0.0318
     11 C           2.5291   -9.3592   -4.2369 C.3     1  UNL1        0.0848
     12 S           3.1693  -10.3130   -5.6204 S.O2    1  UNL1        0.0431
     13 O           2.5709   -9.7890   -6.8308 O.2     1  UNL1       -0.1552
     14 O           4.6067  -10.3405   -5.4489 O.2     1  UNL1       -0.1552
     15 N           2.5740  -11.8675   -5.3958 N.pl3   1  UNL1       -0.2205
     16 C           2.9548  -12.9241   -6.2953 C.ar    1  UNL1        0.0511
     17 C           4.2685  -13.0437   -6.7572 C.ar    1  UNL1       -0.0391
     18 C           4.6593  -14.1053   -7.5764 C.ar    1  UNL1       -0.0565
     19 C           3.7406  -15.0844   -7.9356 C.ar    1  UNL1       -0.0201
     20 C           2.4343  -14.9845   -7.4660 C.ar    1  UNL1        0.1187
     21 O           1.5051  -15.9363   -7.7802 O.3     1  UNL1       -0.5067
     22 C           2.0342  -13.9169   -6.6505 C.ar    1  UNL1        0.0022
     23 N           3.0678    1.5466   -0.3899 N.pl3   1  UNL1       -0.2205
     24 C           4.4607    1.8534   -0.2920 C.ar    1  UNL1        0.0511
     25 C           5.3690    1.1422   -1.0732 C.ar    1  UNL1       -0.0391
     26 C           6.7340    1.4020   -1.0422 C.ar    1  UNL1       -0.0565
     27 C           7.2112    2.4550   -0.2792 C.ar    1  UNL1       -0.0201
     28 C           6.3058    3.2244    0.4496 C.ar    1  UNL1        0.1187
     29 O           6.7371    4.3075    1.1617 O.3     1  UNL1       -0.5067
     30 C           4.9354    2.9275    0.4627 C.ar    1  UNL1        0.0022
     31 H           4.0618   -1.0999   -1.3186 H       1  UNL1        0.0518
     32 H           2.6532   -0.5543   -2.2909 H       1  UNL1        0.0518
     33 H           1.3840   -2.4649   -1.2152 H       1  UNL1        0.0281
     34 H           2.8255   -2.8634   -0.2767 H       1  UNL1        0.0281
     35 H           4.1147   -3.2757   -2.3846 H       1  UNL1        0.0266
     36 H           2.6840   -2.8851   -3.3384 H       1  UNL1        0.0266
     37 H           1.4383   -4.7475   -2.2077 H       1  UNL1        0.0265
     38 H           2.8839   -5.1392   -1.2714 H       1  UNL1        0.0265
     39 H           4.1364   -5.5911   -3.3891 H       1  UNL1        0.0265
     40 H           2.6967   -5.1903   -4.3280 H       1  UNL1        0.0265
     41 H           1.4383   -7.0374   -3.1875 H       1  UNL1        0.0266
     42 H           2.8830   -7.4420   -2.2534 H       1  UNL1        0.0266
     43 H           4.1237   -7.8944   -4.3742 H       1  UNL1        0.0281
     44 H           2.6947   -7.4840   -5.3085 H       1  UNL1        0.0281
     45 H           1.4373   -9.3991   -4.2592 H       1  UNL1        0.0518
     46 H           2.9019   -9.8129   -3.3130 H       1  UNL1        0.0518
     47 H           1.9697  -12.0917   -4.6096 H       1  UNL1        0.1733
     48 H           5.0322  -12.3263   -6.4799 H       1  UNL1        0.0636
     49 H           5.6899  -14.1581   -7.9176 H       1  UNL1        0.0619
     50 H           4.0647  -15.9051   -8.5681 H       1  UNL1        0.0654
     51 H           1.9247  -16.6192   -8.3315 H       1  UNL1        0.2921
     52 H           1.0008  -13.8756   -6.3209 H       1  UNL1        0.0673
     53 H           2.3916    2.2957   -0.2385 H       1  UNL1        0.1733
     54 H           5.0373    0.4095   -1.7887 H       1  UNL1        0.0636
     55 H           7.4005    0.7931   -1.6461 H       1  UNL1        0.0619
     56 H           8.2750    2.6676   -0.2905 H       1  UNL1        0.0654
     57 H           7.6996    4.3941    1.0508 H       1  UNL1        0.2921
     58 H           4.2704    3.5540    1.0495 H       1  UNL1        0.0673
@<TRIPOS>BOND
     1     1     2    2
     2     2     3    2
     3     2     4    1
     4     4     5    1
     5     5     6    1
     6     6     7    1
     7     7     8    1
     8     8     9    1
     9     9    10    1
    10    10    11    1
    11    11    12    1
    12    12    13    2
    13    12    14    2
    14    12    15    1
    15    15    16    1
    16    16    17   ar
    17    17    18   ar
    18    18    19   ar
    19    19    20   ar
    20    20    21    1
    21    20    22   ar
    22    16    22   ar
    23     2    23    1
    24    23    24    1
    25    24    25   ar
    26    25    26   ar
    27    26    27   ar
    28    27    28   ar
    29    28    29    1
    30    28    30   ar
    31    24    30   ar
    32     4    31    1
    33     4    32    1
    34     5    33    1
    35     5    34    1
    36     6    35    1
    37     6    36    1
    38     7    37    1
    39     7    38    1
    40     8    39    1
    41     8    40    1
    42     9    41    1
    43     9    42    1
    44    10    43    1
    45    10    44    1
    46    11    45    1
    47    11    46    1
    48    15    47    1
    49    17    48    1
    50    18    49    1
    51    19    50    1
    52    21    51    1
    53    22    52    1
    54    23    53    1
    55    25    54    1
    56    26    55    1
    57    27    56    1
    58    29    57    1
    59    30    58    1
