REMARK  7 active torsions:
REMARK  status: ('A' for Active; 'I' for Inactive)
REMARK    1  A    between atoms: C_4  and  C_5 
REMARK    2  A    between atoms: C_6  and  C_7 
REMARK       I    between atoms: C_7  and  N_9 
REMARK    3  A    between atoms: N_9  and  C_10 
REMARK    4  A    between atoms: C_11  and  C_10 
REMARK    5  A    between atoms: C_11  and  C_13 
REMARK    6  A    between atoms: C_11  and  O_12 
REMARK    7  A    between atoms: C_16  and  N_17 
ROOT
ATOM      1  C   UNL d   1       3.481   4.409   6.029  0.00  0.00     0.223 C 
ATOM      2  O   UNL d   1       4.401   5.098   6.444  0.00  0.00    -0.273 OA
ATOM      3  N   UNL d   1       2.850   4.668   4.847  0.00  0.00    -0.358 N 
ATOM      4  H   UNL d   1       2.037   4.151   4.599  0.00  0.00     0.162 HD
ENDROOT
BRANCH   3   5
ATOM      5  C   UNL d   1       3.328   5.652   3.899  0.00  0.00     0.159 C 
BRANCH   5   6
ATOM      6  C   UNL d   1       2.519   5.598   2.580  0.00  0.00     0.169 C 
BRANCH   6   7
ATOM      7  C   UNL d   1       1.745   6.886   2.398  0.00  0.00    -0.028 A 
ATOM      8  C   UNL d   1       2.274   7.953   1.658  0.00  0.00     0.012 A 
ATOM      9  C   UNL d   1       1.645   9.194   1.658  0.00  0.00     0.037 A 
ATOM     10  C   UNL d   1       0.421   9.345   2.315  0.00  0.00     0.102 A 
ATOM     11  C   UNL d   1      -0.135   8.289   3.046  0.00  0.00     0.037 A 
ATOM     12  C   UNL d   1       0.534   7.065   3.091  0.00  0.00     0.012 A 
BRANCH  10  13
ATOM     13  N   UNL d   1      -0.317  10.603   2.171  0.00  0.00    -0.116 N 
ATOM     14  O   UNL d   1       0.201  11.499   1.488  0.00  0.00    -0.532 OA
ATOM     15  O   UNL d   1      -1.427  10.686   2.715  0.00  0.00    -0.532 OA
ENDBRANCH  10  13
ENDBRANCH   6   7
BRANCH   6  16
ATOM     16  O   UNL d   1       3.374   5.331   1.472  0.00  0.00    -0.389 OA
ATOM     17  H   UNL d   1       4.086   5.991   1.485  0.00  0.00     0.210 HD
ENDBRANCH   6  16
ENDBRANCH   5   6
ENDBRANCH   3   5
BRANCH   1  18
ATOM     18  C   UNL d   1       2.989   3.271   6.856  0.00  0.00     0.094 A 
ATOM     19  C   UNL d   1       3.180   1.813   6.490  0.00  0.00     0.030 A 
ATOM     20  C   UNL d   1       1.778   2.353   6.682  0.00  0.00    -0.027 A 
ATOM     21  C   UNL d   1       0.808   2.450   5.535  0.00  0.00     0.016 C 
ATOM     22  C   UNL d   1       1.080   1.914   7.957  0.00  0.00     0.016 C 
BRANCH  19  23
ATOM     23  C   UNL d   1       3.668   1.322   5.187  0.00  0.00    -0.019 C 
ATOM     24  C   UNL d   1       4.544   0.305   5.024  0.00  0.00    -0.091 C 
ATOM     25  C   UNL d   1       4.994  -0.143   3.659  0.00  0.00     0.042 C 
ATOM     26  C   UNL d   1       5.131  -0.422   6.205  0.00  0.00     0.042 C 
ENDBRANCH  19  23
ENDBRANCH   1  18
TORSDOF 7
