@<TRIPOS>MOLECULE
*****
 67 70 0 0 0
SMALL
GASTEIGER

@<TRIPOS>ATOM
      1 C           0.7478    0.4525   -0.0069 C.3     1  UNL1       -0.0307
      2 C           2.2484    0.5786    0.0524 C.3     1  UNL1        0.0870
      3 O           2.8757    1.0429   -1.1399 O.3     1  UNL1       -0.4886
      4 C           4.2574    0.9631   -1.2275 C.ar    1  UNL1        0.1624
      5 C           4.8319    2.2075   -1.5537 C.ar    1  UNL1       -0.0091
      6 C           6.2040    2.2933   -1.8156 C.ar    1  UNL1       -0.0204
      7 C           6.8087    3.4190   -2.5027 C.2     1  UNL1       -0.0344
      8 C           8.0134    3.4889   -3.1194 C.2     1  UNL1        0.1318
      9 C           8.1647    4.8058   -3.7326 C.2     1  UNL1        0.3489
     10 N           7.3383    5.7997   -3.8743 N.2     1  UNL1       -0.0968
     11 N           9.4049    5.0885   -4.1534 N.pl3   1  UNL1       -0.0340
     12 N           9.5870    6.4104   -4.2012 N.2     1  UNL1       -0.0795
     13 C          10.4196    6.6611   -5.1393 C.2     1  UNL1        0.1272
     14 C          10.3027    8.0806   -5.7459 C.3     1  UNL1        0.0058
     15 C          10.5038    7.9474   -7.2335 C.3     1  UNL1       -0.0566
     16 C           9.0248    9.0436   -5.6217 C.3     1  UNL1       -0.0566
     17 S          11.6196    5.2760   -5.2547 S.3     1  UNL1       -0.0094
     18 C          10.4481    4.2536   -4.3055 C.2     1  UNL1        0.2752
     19 N          10.4693    3.0322   -3.8526 N.am    1  UNL1       -0.1303
     20 C           9.2239    2.5094   -3.3801 C.2     1  UNL1        0.2789
     21 O           9.0442    1.2953   -3.3329 O.2     1  UNL1       -0.2676
     22 C           7.0105    1.2273   -1.5045 C.ar    1  UNL1       -0.0509
     23 C           6.4781   -0.0237   -1.4005 C.ar    1  UNL1       -0.0157
     24 C           5.1122   -0.1859   -1.2492 C.ar    1  UNL1        0.1620
     25 O           4.9011   -1.5501   -1.1258 O.3     1  UNL1       -0.4860
     26 C           3.6636   -1.7707   -0.5563 C.3     1  UNL1        0.1130
     27 C           3.1880   -3.1218   -0.1295 C.3     1  UNL1        0.0819
     28 O           1.7896   -3.0170    0.2375 O.3     1  UNL1       -0.3731
     29 C           1.3445   -4.2988    0.6712 C.3     1  UNL1        0.0819
     30 C          -0.1300   -4.3471    1.0612 C.3     1  UNL1        0.1128
     31 O          -0.3853   -5.6752    1.5373 O.3     1  UNL1       -0.4897
     32 C          -1.6864   -5.9896    1.8092 C.ar    1  UNL1        0.1206
     33 C          -1.8940   -6.8843    2.8631 C.ar    1  UNL1       -0.0199
     34 C          -3.1742   -7.3747    3.1322 C.ar    1  UNL1       -0.0583
     35 C          -4.2617   -6.9225    2.3886 C.ar    1  UNL1       -0.0615
     36 C          -4.0598   -6.0225    1.3443 C.ar    1  UNL1       -0.0583
     37 C          -2.7728   -5.5679    1.0454 C.ar    1  UNL1       -0.0199
     38 H           0.4346   -0.2419    0.7915 H       1  UNL1        0.0262
     39 H           0.4641   -0.0294   -0.9533 H       1  UNL1        0.0262
     40 H           0.2414    1.4011    0.1034 H       1  UNL1        0.0262
     41 H           2.3126   -0.4694    0.0865 H       1  UNL1        0.0694
     42 H           2.7180    0.9144    0.9824 H       1  UNL1        0.0694
     43 H           4.2020    3.0967   -1.6178 H       1  UNL1        0.0661
     44 H           6.0998    4.2431   -2.5686 H       1  UNL1        0.0634
     45 H           6.4430    5.7754   -3.4334 H       1  UNL1        0.3634
     46 H          11.0933    8.6243   -5.2307 H       1  UNL1        0.0365
     47 H           9.5838    7.5781   -7.7077 H       1  UNL1        0.0236
     48 H          11.2963    7.2347   -7.4367 H       1  UNL1        0.0236
     49 H          10.7548    8.9128   -7.6805 H       1  UNL1        0.0236
     50 H           8.1309    8.6941   -6.1640 H       1  UNL1        0.0236
     51 H           9.2539   10.0232   -6.0921 H       1  UNL1        0.0236
     52 H           8.7031    9.2927   -4.6025 H       1  UNL1        0.0236
     53 H           8.0799    1.3224   -1.4264 H       1  UNL1        0.0625
     54 H           7.1473   -0.8775   -1.4370 H       1  UNL1        0.0655
     55 H           2.9474   -1.4343   -1.3163 H       1  UNL1        0.0720
     56 H           3.7436   -1.2530    0.4109 H       1  UNL1        0.0720
     57 H           3.7540   -3.4245    0.7549 H       1  UNL1        0.0594
     58 H           3.3075   -3.8250   -0.9495 H       1  UNL1        0.0594
     59 H           1.9533   -4.6050    1.5274 H       1  UNL1        0.0594
     60 H           1.5178   -5.0091   -0.1440 H       1  UNL1        0.0594
     61 H          -0.7313   -4.0850    0.1850 H       1  UNL1        0.0720
     62 H          -0.3442   -3.6308    1.8620 H       1  UNL1        0.0720
     63 H          -1.0572   -7.2045    3.4790 H       1  UNL1        0.0654
     64 H          -3.3214   -8.1186    3.9109 H       1  UNL1        0.0619
     65 H          -5.2638   -7.2765    2.6162 H       1  UNL1        0.0618
     66 H          -4.9013   -5.6925    0.7412 H       1  UNL1        0.0619
     67 H          -2.6475   -4.9127    0.1916 H       1  UNL1        0.0654
@<TRIPOS>BOND
     1     1     2    1
     2     2     3    1
     3     3     4    1
     4     4     5   ar
     5     5     6   ar
     6     6     7    1
     7     7     8    2
     8     8     9    1
     9     9    10    2
    10     9    11    1
    11    11    12    1
    12    12    13    2
    13    13    14    1
    14    14    15    1
    15    14    16    1
    16    13    17    1
    17    17    18    1
    18    11    18    1
    19    18    19    2
    20    19    20    1
    21     8    20    1
    22    20    21    2
    23     6    22   ar
    24    22    23   ar
    25    23    24   ar
    26     4    24   ar
    27    24    25    1
    28    25    26    1
    29    26    27    1
    30    27    28    1
    31    28    29    1
    32    29    30    1
    33    30    31    1
    34    31    32    1
    35    32    33   ar
    36    33    34   ar
    37    34    35   ar
    38    35    36   ar
    39    36    37   ar
    40    32    37   ar
    41     1    38    1
    42     1    39    1
    43     1    40    1
    44     2    41    1
    45     2    42    1
    46     5    43    1
    47     7    44    1
    48    10    45    1
    49    14    46    1
    50    15    47    1
    51    15    48    1
    52    15    49    1
    53    16    50    1
    54    16    51    1
    55    16    52    1
    56    22    53    1
    57    23    54    1
    58    26    55    1
    59    26    56    1
    60    27    57    1
    61    27    58    1
    62    29    59    1
    63    29    60    1
    64    30    61    1
    65    30    62    1
    66    33    63    1
    67    34    64    1
    68    35    65    1
    69    36    66    1
    70    37    67    1
