REMARK  9 active torsions:
REMARK  status: ('A' for Active; 'I' for Inactive)
REMARK    1  A    between atoms: O_2  and  C_3 
REMARK    2  A    between atoms: C_5  and  C_6 
REMARK    3  A    between atoms: N_7  and  N_8 
REMARK       I    between atoms: N_8  and  C_9 
REMARK    4  A    between atoms: C_9  and  C_11 
REMARK    5  A    between atoms: C_13  and  C_14 
REMARK    6  A    between atoms: C_17  and  O_18 
REMARK    7  A    between atoms: O_18  and  C_19 
REMARK    8  A    between atoms: C_19  and  C_20 
REMARK    9  A    between atoms: C_33  and  O_34 
ROOT
ATOM      1  C   UNL d   1      11.092   4.363  -0.078  0.00  0.00     0.121 A 
ATOM      2  C   UNL d   1      11.902   3.553  -0.852  0.00  0.00     0.071 A 
ATOM      3  C   UNL d   1      13.247   3.881  -0.515  0.00  0.00     0.089 A 
ATOM      4  N   UNL d   1      13.274   4.829   0.431  0.00  0.00    -0.174 NA
ATOM      5  N   UNL d   1      11.976   5.147   0.623  0.00  0.00    -0.272 N 
ATOM      6  H   UNL d   1      11.756   5.901   1.270  0.00  0.00     0.189 HD
ENDROOT
BRANCH   1   7
ATOM      7  C   UNL d   1       9.654   4.531  -0.020  0.00  0.00     0.289 C 
ATOM      8  N   UNL d   1       8.889   3.358  -0.061  0.00  0.00    -0.242 N 
ATOM      9  H   UNL d   1       9.341   2.451  -0.040  0.00  0.00     0.192 HD
ATOM     10  O   UNL d   1       9.162   5.660   0.088  0.00  0.00    -0.264 OA
BRANCH   8  11
ATOM     11  N   UNL d   1       7.507   3.438  -0.016  0.00  0.00    -0.183 NA
ATOM     12  C   UNL d   1       6.805   2.343   0.012  0.00  0.00     0.150 C 
BRANCH  12  13
ATOM     13  C   UNL d   1       5.302   2.380   0.039  0.00  0.00    -0.014 A 
ATOM     14  C   UNL d   1       4.530   1.205   0.060  0.00  0.00     0.052 A 
ATOM     15  C   UNL d   1       3.114   1.260   0.076  0.00  0.00     0.102 A 
ATOM     16  C   UNL d   1       2.482   2.512   0.087  0.00  0.00     0.099 A 
ATOM     17  C   UNL d   1       3.244   3.680   0.064  0.00  0.00     0.040 A 
ATOM     18  C   UNL d   1       4.643   3.614   0.037  0.00  0.00     0.016 A 
BRANCH  15  19
ATOM     19  O   UNL d   1       2.499   0.030   0.080  0.00  0.00    -0.353 OA
ATOM     20  C   UNL d   1       1.071   0.007   0.066  0.00  0.00     0.210 C 
ENDBRANCH  15  19
BRANCH  16  21
ATOM     21  O   UNL d   1       1.119   2.627   0.120  0.00  0.00    -0.358 OA
ATOM     22  H   UNL d   1       0.853   3.560   0.146  0.00  0.00     0.217 HD
ENDBRANCH  16  21
ENDBRANCH  12  13
ENDBRANCH   8  11
ENDBRANCH   1   7
BRANCH   3  23
ATOM     23  C   UNL d   1      14.458   3.311  -1.105  0.00  0.00    -0.005 A 
ATOM     24  C   UNL d   1      14.658   3.389  -2.488  0.00  0.00     0.016 A 
ATOM     25  C   UNL d   1      15.781   2.805  -3.086  0.00  0.00     0.037 A 
ATOM     26  C   UNL d   1      16.722   2.130  -2.309  0.00  0.00     0.069 A 
ATOM     27  C   UNL d   1      16.526   2.046  -0.927  0.00  0.00     0.037 A 
ATOM     28  C   UNL d   1      15.406   2.639  -0.325  0.00  0.00     0.016 A 
BRANCH  26  29
ATOM     29  O   UNL d   1      17.852   1.523  -2.787  0.00  0.00    -0.347 OA
BRANCH  29  30
ATOM     30  C   UNL d   1      18.096   1.637  -4.193  0.00  0.00     0.216 C 
BRANCH  30  31
ATOM     31  C   UNL d   1      19.424   0.987  -4.486  0.00  0.00    -0.012 A 
ATOM     32  C   UNL d   1      19.495  -0.418  -4.531  0.00  0.00     0.011 A 
ATOM     33  C   UNL d   1      20.725  -1.067  -4.648  0.00  0.00     0.001 A 
ATOM     34  C   UNL d   1      21.892  -0.323  -4.792  0.00  0.00     0.002 A 
ATOM     35  C   UNL d   1      21.834   1.070  -4.788  0.00  0.00     0.024 A 
ATOM     36  C   UNL d   1      20.609   1.723  -4.628  0.00  0.00     0.042 A 
ATOM     37 CL   UNL d   1      20.630   3.452  -4.625  0.00  0.00    -0.084 Cl
ENDBRANCH  30  31
ENDBRANCH  29  30
ENDBRANCH  26  29
ENDBRANCH   3  23
TORSDOF 9
