@<TRIPOS>MOLECULE
*****
 79 80 0 0 0
SMALL
GASTEIGER

@<TRIPOS>ATOM
      1 C           1.0232    0.4034   -0.0748 C.3     1  UNL1        0.0004
      2 N           2.4893    0.5203   -0.1048 N.pl3   1  UNL1       -0.3360
      3 C           3.1982   -0.1716   -1.1692 C.3     1  UNL1        0.0004
      4 C           3.2359    1.0322    0.9455 C.ar    1  UNL1        0.0292
      5 C           4.5885    1.3898    0.8705 C.ar    1  UNL1       -0.0403
      6 C           5.4218    1.4115    2.0180 C.ar    1  UNL1       -0.0546
      7 C           4.8568    1.2158    3.2842 C.ar    1  UNL1       -0.0181
      8 C           5.5151    1.1943    4.6652 C.3     1  UNL1        0.1282
      9 C           5.5320    2.7148    4.9209 C.2     1  UNL1        0.2385
     10 O           4.7602    3.2052    5.7135 O.2     1  UNL1       -0.2734
     11 N           6.3076    3.5047    4.0657 N.am    1  UNL1       -0.3085
     12 C           6.2533    4.9579    4.2258 C.3     1  UNL1        0.0295
     13 C           4.7783    5.4218    4.2786 C.3     1  UNL1       -0.0440
     14 C           7.0083    5.1851    5.5398 C.3     1  UNL1       -0.0440
     15 C           6.9650    5.6595    3.0086 C.3     1  UNL1       -0.0272
     16 C           7.0989    7.2247    3.0376 C.3     1  UNL1       -0.0358
     17 C           5.7451    7.9519    3.0442 C.3     1  UNL1       -0.0600
     18 C           7.9495    7.7134    4.2172 C.3     1  UNL1       -0.0600
     19 C           7.8189    7.7117    1.7701 C.3     1  UNL1       -0.0600
     20 N           4.7512    0.4586    5.9107 N.am    1  UNL1       -0.2767
     21 C           3.5809   -0.4236    5.8562 C.2     1  UNL1        0.2550
     22 O           2.8445   -0.6492    6.8237 O.2     1  UNL1       -0.2697
     23 C           2.9927   -1.0818    4.6557 C.ar    1  UNL1        0.1195
     24 C           1.5924   -0.9155    4.3846 C.ar    1  UNL1        0.1325
     25 O           0.7768   -0.0295    5.0732 O.3     1  UNL1       -0.5059
     26 C           1.0283   -1.3589    3.1799 C.ar    1  UNL1       -0.0192
     27 C           1.8726   -1.8769    2.1941 C.ar    1  UNL1       -0.0548
     28 C           3.2504   -1.9435    2.4094 C.ar    1  UNL1       -0.0192
     29 C           3.7978   -1.6279    3.6554 C.ar    1  UNL1        0.1325
     30 O           5.1627   -1.6087    3.7648 O.3     1  UNL1       -0.5059
     31 C           5.3649    0.6892    7.3365 C.3     1  UNL1        0.0304
     32 C           6.7912    0.1131    7.3611 C.3     1  UNL1       -0.0440
     33 C           5.4942    2.1515    7.8301 C.3     1  UNL1       -0.0440
     34 C           4.5768    0.0272    8.4894 C.3     1  UNL1       -0.0440
     35 C           3.4886    1.3144    3.3229 C.ar    1  UNL1       -0.0546
     36 C           2.7008    1.1425    2.2037 C.ar    1  UNL1       -0.0403
     37 H           0.6444    0.0192   -1.0279 H       1  UNL1        0.0428
     38 H           0.5709    1.3795    0.1069 H       1  UNL1        0.0428
     39 H           0.5986   -0.2713    0.6733 H       1  UNL1        0.0428
     40 H           2.5113   -0.5214   -1.9446 H       1  UNL1        0.0428
     41 H           3.7518   -1.0492   -0.8086 H       1  UNL1        0.0428
     42 H           3.8953    0.5186   -1.6467 H       1  UNL1        0.0428
     43 H           5.0095    1.6496   -0.0960 H       1  UNL1        0.0636
     44 H           6.4828    1.6106    1.8746 H       1  UNL1        0.0622
     45 H           6.5357    0.7983    4.6495 H       1  UNL1        0.0648
     46 H           6.7072    3.1293    3.2231 H       1  UNL1        0.1493
     47 H           4.1125    4.9106    4.9635 H       1  UNL1        0.0250
     48 H           4.2970    5.3366    3.2974 H       1  UNL1        0.0250
     49 H           4.6888    6.4131    4.6900 H       1  UNL1        0.0250
     50 H           6.6532    4.5453    6.3453 H       1  UNL1        0.0250
     51 H           6.8671    6.1703    5.9550 H       1  UNL1        0.0250
     52 H           8.0748    4.9535    5.4128 H       1  UNL1        0.0250
     53 H           6.4372    5.3711    2.0822 H       1  UNL1        0.0291
     54 H           7.9678    5.2200    2.8778 H       1  UNL1        0.0291
     55 H           5.2499    7.9150    4.0080 H       1  UNL1        0.0235
     56 H           5.0771    7.5559    2.2698 H       1  UNL1        0.0235
     57 H           5.8618    9.0263    2.8894 H       1  UNL1        0.0235
     58 H           7.4226    7.6589    5.1631 H       1  UNL1        0.0235
     59 H           8.1832    8.7764    4.1336 H       1  UNL1        0.0235
     60 H           8.8872    7.1500    4.2880 H       1  UNL1        0.0235
     61 H           7.2570    7.4603    0.8660 H       1  UNL1        0.0235
     62 H           8.8264    7.2940    1.6939 H       1  UNL1        0.0235
     63 H           7.9160    8.8051    1.8045 H       1  UNL1        0.0235
     64 H           1.2665    0.3646    5.8230 H       1  UNL1        0.2922
     65 H           0.0185   -1.0386    2.9059 H       1  UNL1        0.0654
     66 H           1.5198   -1.9988    1.1721 H       1  UNL1        0.0620
     67 H           3.8972   -2.0233    1.5365 H       1  UNL1        0.0654
     68 H           5.4913   -1.2724    2.9103 H       1  UNL1        0.2922
     69 H           7.4490    0.6370    6.6597 H       1  UNL1        0.0250
     70 H           6.7919   -0.9488    7.1050 H       1  UNL1        0.0250
     71 H           7.2409    0.2305    8.3551 H       1  UNL1        0.0250
     72 H           6.2620    2.6912    7.2740 H       1  UNL1        0.0250
     73 H           5.8405    2.2252    8.8676 H       1  UNL1        0.0250
     74 H           4.5286    2.6703    7.8080 H       1  UNL1        0.0250
     75 H           4.5080   -1.0548    8.3500 H       1  UNL1        0.0250
     76 H           3.5759    0.4731    8.5702 H       1  UNL1        0.0250
     77 H           5.0453    0.1908    9.4651 H       1  UNL1        0.0250
     78 H           3.0182    1.2830    4.2932 H       1  UNL1        0.0622
     79 H           1.6846    0.8488    2.4055 H       1  UNL1        0.0636
@<TRIPOS>BOND
     1     1     2    1
     2     2     3    1
     3     2     4    1
     4     4     5   ar
     5     5     6   ar
     6     6     7   ar
     7     7     8    1
     8     8     9    1
     9     9    10    2
    10     9    11   am
    11    11    12    1
    12    12    13    1
    13    12    14    1
    14    12    15    1
    15    15    16    1
    16    16    17    1
    17    16    18    1
    18    16    19    1
    19     8    20    1
    20    20    21   am
    21    21    22    2
    22    21    23    1
    23    23    24   ar
    24    24    25    1
    25    24    26   ar
    26    26    27   ar
    27    27    28   ar
    28    28    29   ar
    29    23    29   ar
    30    29    30    1
    31    20    31    1
    32    31    32    1
    33    31    33    1
    34    31    34    1
    35     7    35   ar
    36    35    36   ar
    37     4    36   ar
    38     1    37    1
    39     1    38    1
    40     1    39    1
    41     3    40    1
    42     3    41    1
    43     3    42    1
    44     5    43    1
    45     6    44    1
    46     8    45    1
    47    11    46    1
    48    13    47    1
    49    13    48    1
    50    13    49    1
    51    14    50    1
    52    14    51    1
    53    14    52    1
    54    15    53    1
    55    15    54    1
    56    17    55    1
    57    17    56    1
    58    17    57    1
    59    18    58    1
    60    18    59    1
    61    18    60    1
    62    19    61    1
    63    19    62    1
    64    19    63    1
    65    25    64    1
    66    26    65    1
    67    27    66    1
    68    28    67    1
    69    30    68    1
    70    32    69    1
    71    32    70    1
    72    32    71    1
    73    33    72    1
    74    33    73    1
    75    33    74    1
    76    34    75    1
    77    34    76    1
    78    34    77    1
    79    35    78    1
    80    36    79    1
