REMARK  3 active torsions:
REMARK  status: ('A' for Active; 'I' for Inactive)
REMARK       I    between atoms: C_2  and  N_4 
REMARK    1  A    between atoms: N_4  and  C_5 
REMARK    2  A    between atoms: C_7  and  C_8 
REMARK       I    between atoms: C_8  and  N_10 
REMARK    3  A    between atoms: N_10  and  C_11 
ROOT
ATOM      1  C   UNL d   1       7.517   1.611  -3.896  0.00  0.00     0.055 A 
ATOM      2  C   UNL d   1       7.047   2.624  -4.750  0.00  0.00     0.031 A 
ATOM      3  C   UNL d   1       7.691   2.881  -5.967  0.00  0.00     0.002 A 
ATOM      4  C   UNL d   1       8.780   2.105  -6.356  0.00  0.00     0.002 A 
ATOM      5  C   UNL d   1       9.227   1.072  -5.532  0.00  0.00     0.025 A 
ATOM      6  C   UNL d   1       8.608   0.817  -4.300  0.00  0.00     0.071 A 
ATOM      7  C   UNL d   1       9.050  -0.320  -3.542  0.00  0.00     0.102 C 
ATOM      8  N   UNL d   1       9.389  -1.260  -2.940  0.00  0.00    -0.191 NA
ENDROOT
BRANCH   1   9
ATOM      9  N   UNL d   1       6.847   1.408  -2.663  0.00  0.00    -0.322 N 
ATOM     10  C   UNL d   1       7.534   1.198  -1.466  0.00  0.00     0.256 C 
ATOM     11  O   UNL d   1       8.753   1.312  -1.362  0.00  0.00    -0.267 OA
ATOM     12  H   UNL d   1       5.853   1.589  -2.656  0.00  0.00     0.169 HD
BRANCH  10  13
ATOM     13  C   UNL d   1       6.754   0.901  -0.230  0.00  0.00     0.034 A 
ATOM     14  C   UNL d   1       5.360   0.867  -0.213  0.00  0.00     0.047 A 
ATOM     15  C   UNL d   1       4.647   0.616   0.967  0.00  0.00     0.041 A 
ATOM     16  C   UNL d   1       5.346   0.403   2.169  0.00  0.00    -0.035 A 
ATOM     17  C   UNL d   1       6.753   0.412   2.150  0.00  0.00     0.010 A 
ATOM     18  C   UNL d   1       4.640   0.061   3.449  0.00  0.00     0.050 C 
ATOM     19  C   UNL d   1       7.449   0.660   0.963  0.00  0.00     0.018 A 
BRANCH  15  20
ATOM     20  N   UNL d   1       3.228   0.594   0.913  0.00  0.00    -0.327 N 
ATOM     21  C   UNL d   1       2.550  -0.053  -0.115  0.00  0.00     0.218 C 
ATOM     22  C   UNL d   1       1.045  -0.025  -0.025  0.00  0.00     0.117 C 
ATOM     23  O   UNL d   1       3.094  -0.642  -1.047  0.00  0.00    -0.274 OA
ATOM     24  H   UNL d   1       2.719   0.859   1.747  0.00  0.00     0.169 HD
ENDBRANCH  15  20
ENDBRANCH  10  13
ENDBRANCH   1   9
TORSDOF 3
