@<TRIPOS>MOLECULE
*****
 36 36 0 0 0
SMALL
GASTEIGER

@<TRIPOS>ATOM
      1 C           3.0404   -0.3874    3.9510 C.3     1  UNL1       -0.0636
      2 C           2.4896   -0.5125    2.5398 C.3     1  UNL1       -0.0376
      3 C           3.0761    0.4745    1.4995 C.3     1  UNL1        0.0200
      4 C           2.5525    0.0625    0.1163 C.3     1  UNL1       -0.0466
      5 N           4.5433    0.5160    1.5257 N.am    1  UNL1       -0.3127
      6 C           5.2256    1.1365    2.5533 C.2     1  UNL1        0.2135
      7 O           4.6585    1.8097    3.4180 O.2     1  UNL1       -0.2758
      8 C           6.7215    0.9327    2.5816 C.3     1  UNL1        0.0279
      9 C           7.2586    1.3459    3.9610 C.3     1  UNL1       -0.0194
     10 C           8.7606    1.3517    4.0097 C.ar    1  UNL1       -0.0452
     11 C           9.4603    2.5627    4.0186 C.ar    1  UNL1       -0.0584
     12 C          10.8514    2.5615    4.0104 C.ar    1  UNL1       -0.0598
     13 C          11.5472    1.3503    3.9924 C.ar    1  UNL1       -0.0410
     14 C          10.8676    0.1301    4.0256 C.ar    1  UNL1        0.0248
     15 N          11.5550   -1.0673    3.8593 N.pl3   1  UNL1       -0.3580
     16 C           9.4720    0.1437    4.0167 C.ar    1  UNL1       -0.0379
     17 H           2.5619   -1.0897    4.6355 H       1  UNL1        0.0230
     18 H           2.8700    0.6195    4.3428 H       1  UNL1        0.0230
     19 H           4.1090   -0.6241    3.9709 H       1  UNL1        0.0230
     20 H           1.4021   -0.3697    2.5841 H       1  UNL1        0.0280
     21 H           2.6618   -1.5417    2.2039 H       1  UNL1        0.0280
     22 H           2.7151    1.4880    1.7184 H       1  UNL1        0.0495
     23 H           2.8865   -0.9483   -0.1468 H       1  UNL1        0.0247
     24 H           2.8995    0.7408   -0.6691 H       1  UNL1        0.0247
     25 H           1.4554    0.0610    0.0991 H       1  UNL1        0.0247
     26 H           5.0617    0.1793    0.7233 H       1  UNL1        0.1490
     27 H           7.1574    1.5574    1.7954 H       1  UNL1        0.0361
     28 H           6.9724   -0.1149    2.3717 H       1  UNL1        0.0361
     29 H           6.8769    0.6746    4.7434 H       1  UNL1        0.0318
     30 H           6.8906    2.3444    4.2309 H       1  UNL1        0.0318
     31 H           8.9250    3.5101    4.0229 H       1  UNL1        0.0620
     32 H          11.3944    3.5026    4.0044 H       1  UNL1        0.0618
     33 H          12.6323    1.3692    3.9555 H       1  UNL1        0.0636
     34 H          12.5505   -1.0697    4.0445 H       1  UNL1        0.1423
     35 H          11.0613   -1.9282    4.0627 H       1  UNL1        0.1423
     36 H           8.9250   -0.7957    4.0121 H       1  UNL1        0.0639
@<TRIPOS>BOND
     1     1     2    1
     2     3     5    1
     3     5     6   am
     4     6     7    2
     5     6     8    1
     6     8     9    1
     7     9    10    1
     8    10    11   ar
     9    11    12   ar
    10    12    13   ar
    11    13    14   ar
    12    14    15    1
    13    14    16   ar
    14    10    16   ar
    15     3     4    1
    16     3     2    1
    17     1    17    1
    18     1    18    1
    19     1    19    1
    20     2    20    1
    21     2    21    1
    22     3    22    1
    23     4    23    1
    24     4    24    1
    25     4    25    1
    26     5    26    1
    27     8    27    1
    28     8    28    1
    29     9    29    1
    30     9    30    1
    31    11    31    1
    32    12    32    1
    33    13    33    1
    34    15    34    1
    35    15    35    1
    36    16    36    1
