@<TRIPOS>MOLECULE
*****
 60 62 0 0 0
SMALL
GASTEIGER

@<TRIPOS>ATOM
      1 C          17.3939    6.4701   15.3163 C.3     1  UNL1       -0.0653
      2 C          16.5621    5.7564   14.2593 C.3     1  UNL1       -0.0552
      3 C          17.2630    4.4861   13.7724 C.3     1  UNL1       -0.0438
      4 C          16.4418    3.7428   12.7117 C.3     1  UNL1        0.0011
      5 S          17.3439    2.2256   12.2382 S.3     1  UNL1       -0.0860
      6 C          16.2600    1.5456   11.0191 C.ar    1  UNL1        0.1896
      7 N          15.3173    0.6641   11.3851 N.ar    1  UNL1       -0.2295
      8 C          14.5998    0.0624   10.3967 C.ar    1  UNL1        0.0455
      9 C          14.7876    0.3009    9.0524 C.ar    1  UNL1        0.0916
     10 C          13.9413   -0.3868    8.0369 C.2     1  UNL1        0.2487
     11 O          13.0666   -1.1769    8.3889 O.2     1  UNL1       -0.2700
     12 N          14.1659   -0.1056    6.7025 N.am    1  UNL1       -0.3055
     13 C          13.3764   -0.6884    5.6260 C.3     1  UNL1        0.0592
     14 C          13.8012   -0.2464    4.1846 C.3     1  UNL1        0.0208
     15 C          13.2323   -1.2015    3.1615 C.ar    1  UNL1        0.0019
     16 C          13.6220   -2.5563    3.1359 C.ar    1  UNL1       -0.0498
     17 C          13.3996   -3.3189    1.9905 C.ar    1  UNL1       -0.0195
     18 C          12.6723   -2.7893    0.9238 C.ar    1  UNL1        0.1201
     19 O          12.4500   -3.6464   -0.1167 O.3     1  UNL1       -0.4951
     20 C          11.5544   -3.1808   -1.1234 C.3     1  UNL1        0.0788
     21 C          12.2306   -1.4668    0.9791 C.ar    1  UNL1       -0.0195
     22 C          12.5073   -0.6746    2.0882 C.ar    1  UNL1       -0.0498
     23 N          15.3533   -0.0810    4.0277 N.4     1  UNL1        0.2418
     24 C          15.8616    1.3476    4.1509 C.3     1  UNL1       -0.0311
     25 C          15.8755    1.8740    2.7402 C.3     1  UNL1       -0.0077
     26 C          16.3456    0.7019    1.9178 C.3     1  UNL1       -0.0077
     27 C          15.9736   -0.5457    2.6965 C.3     1  UNL1       -0.0311
     28 C          15.8038    1.2044    8.8205 C.ar    1  UNL1        0.1456
     29 CL         16.3618    1.6902    7.2737 Cl      1  UNL1       -0.0611
     30 N          16.5386    1.8361    9.7519 N.ar    1  UNL1       -0.2095
     31 H          16.8832    7.3755   15.6588 H       1  UNL1        0.0230
     32 H          18.3701    6.7617   14.9155 H       1  UNL1        0.0230
     33 H          17.5600    5.8248   16.1853 H       1  UNL1        0.0230
     34 H          16.3902    6.4369   13.4175 H       1  UNL1        0.0263
     35 H          15.5830    5.5049   14.6827 H       1  UNL1        0.0263
     36 H          17.4410    3.8305   14.6347 H       1  UNL1        0.0273
     37 H          18.2452    4.7599   13.3648 H       1  UNL1        0.0273
     38 H          16.2875    4.3882   11.8391 H       1  UNL1        0.0381
     39 H          15.4627    3.4696   13.1178 H       1  UNL1        0.0381
     40 H          13.8532   -0.6455   10.7549 H       1  UNL1        0.0839
     41 H          14.8109    0.6382    6.4869 H       1  UNL1        0.1492
     42 H          12.3203   -0.4237    5.7850 H       1  UNL1        0.0522
     43 H          13.4273   -1.7763    5.7497 H       1  UNL1        0.0522
     44 H          13.3986    0.7613    4.0175 H       1  UNL1        0.0920
     45 H          14.1921   -3.0030    3.9497 H       1  UNL1        0.0623
     46 H          13.8218   -4.3203    1.9152 H       1  UNL1        0.0654
     47 H          11.3612   -4.0021   -1.8175 H       1  UNL1        0.0660
     48 H          12.0136   -2.3615   -1.6863 H       1  UNL1        0.0660
     49 H          10.5920   -2.8720   -0.6976 H       1  UNL1        0.0660
     50 H          11.6955   -1.0095    0.1532 H       1  UNL1        0.0654
     51 H          12.1905    0.3667    2.0764 H       1  UNL1        0.0623
     52 H          15.7605   -0.6617    4.7738 H       1  UNL1        0.2040
     53 H          16.8802    1.2901    4.5525 H       1  UNL1        0.0815
     54 H          15.2111    1.9375    4.7990 H       1  UNL1        0.0815
     55 H          16.5332    2.7404    2.6213 H       1  UNL1        0.0319
     56 H          14.8645    2.1757    2.4467 H       1  UNL1        0.0319
     57 H          17.4281    0.7280    1.7592 H       1  UNL1        0.0319
     58 H          15.8685    0.7126    0.9318 H       1  UNL1        0.0319
     59 H          16.8439   -1.1612    2.9449 H       1  UNL1        0.0815
     60 H          15.3037   -1.1471    2.0943 H       1  UNL1        0.0815
@<TRIPOS>UNITY_ATOM_ATTR
23 1
charge 1
@<TRIPOS>BOND
     1     1     2    1
     2     2     3    1
     3     3     4    1
     4     4     5    1
     5     5     6    1
     6     6     7   ar
     7     7     8   ar
     8     8     9   ar
     9     9    10    1
    10    10    11    2
    11    10    12   am
    12    12    13    1
    13    15    16   ar
    14    16    17   ar
    15    17    18   ar
    16    18    19    1
    17    19    20    1
    18    18    21   ar
    19    21    22   ar
    20    15    22   ar
    21    14    23    1
    22    23    24    1
    23    24    25    1
    24    25    26    1
    25    26    27    1
    26    23    27    1
    27     9    28   ar
    28    28    29    1
    29    28    30   ar
    30     6    30   ar
    31    14    15    1
    32    14    13    1
    33     1    31    1
    34     1    32    1
    35     1    33    1
    36     2    34    1
    37     2    35    1
    38     3    36    1
    39     3    37    1
    40     4    38    1
    41     4    39    1
    42     8    40    1
    43    12    41    1
    44    13    42    1
    45    13    43    1
    46    14    44    1
    47    16    45    1
    48    17    46    1
    49    20    47    1
    50    20    48    1
    51    20    49    1
    52    21    50    1
    53    22    51    1
    54    23    52    1
    55    24    53    1
    56    24    54    1
    57    25    55    1
    58    25    56    1
    59    26    57    1
    60    26    58    1
    61    27    59    1
    62    27    60    1
