@<TRIPOS>MOLECULE
*****
 34 35 0 0 0
SMALL
GASTEIGER

@<TRIPOS>ATOM
      1 O           1.0558   -0.0547   -0.1846 O.2     1  UNL1       -0.2742
      2 C           2.2864   -0.0617   -0.0868 C.2     1  UNL1        0.2308
      3 C           3.0406   -0.1114    1.2211 C.3     1  UNL1        0.0503
      4 C           2.1334   -0.1804    2.4216 C.ar    1  UNL1       -0.0386
      5 C           1.6460    0.9917    3.0129 C.ar    1  UNL1       -0.0581
      6 C           0.8686    0.9201    4.1670 C.ar    1  UNL1       -0.0615
      7 C           0.4986   -0.3213    4.6824 C.ar    1  UNL1       -0.0617
      8 C           0.9301   -1.4930    4.0632 C.ar    1  UNL1       -0.0615
      9 C           1.7486   -1.4239    2.9386 C.ar    1  UNL1       -0.0581
     10 N           3.0243   -0.0410   -1.2403 N.am    1  UNL1       -0.2504
     11 N           4.4312   -0.0208   -1.3182 N.3     1  UNL1       -0.2376
     12 C           4.8856    0.0459   -2.7150 C.3     1  UNL1        0.0251
     13 C           4.3568   -1.0841   -3.6020 C.3     1  UNL1       -0.0360
     14 C           4.5630   -0.5696   -5.0185 C.3     1  UNL1       -0.0515
     15 C           4.5021    0.9557   -4.9310 C.3     1  UNL1       -0.0515
     16 C           4.4469    1.3147   -3.4485 C.3     1  UNL1       -0.0360
     17 H           3.6873    0.7707    1.3028 H       1  UNL1        0.0407
     18 H           3.6964   -0.9911    1.2211 H       1  UNL1        0.0407
     19 H           1.8651    1.9628    2.5742 H       1  UNL1        0.0620
     20 H           0.5523    1.8328    4.6639 H       1  UNL1        0.0618
     21 H          -0.1378   -0.3751    5.5607 H       1  UNL1        0.0618
     22 H           0.6365   -2.4609    4.4590 H       1  UNL1        0.0618
     23 H           2.0774   -2.3429    2.4594 H       1  UNL1        0.0620
     24 H           2.4502    0.0454   -2.0749 H       1  UNL1        0.1690
     25 H           4.7926   -0.8884   -0.9097 H       1  UNL1        0.1445
     26 H           5.9841    0.0092   -2.7129 H       1  UNL1        0.0477
     27 H           3.2856   -1.2588   -3.4536 H       1  UNL1        0.0281
     28 H           4.8667   -2.0353   -3.4201 H       1  UNL1        0.0281
     29 H           3.7966   -0.9640   -5.6942 H       1  UNL1        0.0266
     30 H           5.5379   -0.8874   -5.4031 H       1  UNL1        0.0266
     31 H           3.6156    1.3433   -5.4453 H       1  UNL1        0.0266
     32 H           5.3785    1.4017   -5.4125 H       1  UNL1        0.0266
     33 H           3.4183    1.5974   -3.1983 H       1  UNL1        0.0281
     34 H           5.0800    2.1743   -3.2050 H       1  UNL1        0.0281
@<TRIPOS>BOND
     1     1     2    2
     2     2     3    1
     3     3     4    1
     4     4     5   ar
     5     5     6   ar
     6     6     7   ar
     7     7     8   ar
     8     8     9   ar
     9     4     9   ar
    10     2    10   am
    11    10    11    1
    12    11    12    1
    13    12    13    1
    14    13    14    1
    15    14    15    1
    16    15    16    1
    17    12    16    1
    18     3    17    1
    19     3    18    1
    20     5    19    1
    21     6    20    1
    22     7    21    1
    23     8    22    1
    24     9    23    1
    25    10    24    1
    26    11    25    1
    27    12    26    1
    28    13    27    1
    29    13    28    1
    30    14    29    1
    31    14    30    1
    32    15    31    1
    33    15    32    1
    34    16    33    1
    35    16    34    1
