@<TRIPOS>MOLECULE
*****
 57 61 0 0 0
SMALL
GASTEIGER

@<TRIPOS>ATOM
      1 O           1.0631   -0.0783   -0.0656 O.2     1  UNL1       -0.2668
      2 C           2.2900   -0.0454   -0.0114 C.2     1  UNL1        0.2810
      3 N           3.0148    1.1157   -0.2725 N.am    1  UNL1       -0.2017
      4 N           2.3710    2.2861   -0.6566 N.2     1  UNL1       -0.1874
      5 C           3.0685    3.3478   -0.9576 C.2     1  UNL1        0.0529
      6 C           4.5369    3.4418   -1.0354 C.ar    1  UNL1       -0.0020
      7 C           5.2240    2.4175   -1.6880 C.ar    1  UNL1       -0.0529
      8 C           6.6105    2.3860   -1.6709 C.ar    1  UNL1       -0.0577
      9 C           7.3206    3.4291   -1.0751 C.ar    1  UNL1       -0.0201
     10 C           6.6258    4.4908   -0.4918 C.ar    1  UNL1        0.1175
     11 O           7.2709    5.5497    0.0788 O.3     1  UNL1       -0.5067
     12 C           5.2317    4.5046   -0.4576 C.ar    1  UNL1       -0.0115
     13 C           3.0587   -1.2543    0.2597 C.ar    1  UNL1        0.1224
     14 C           2.7656   -2.5370   -0.1657 C.ar    1  UNL1       -0.0040
     15 C           3.7192   -3.4191    0.3940 C.ar    1  UNL1        0.0967
     16 C           3.7951   -4.8751    0.1737 C.ar    1  UNL1        0.0438
     17 C           3.6018   -5.7589    1.2448 C.ar    1  UNL1       -0.0490
     18 C           3.6222   -7.1451    1.0429 C.ar    1  UNL1       -0.0609
     19 C           3.8480   -7.6669   -0.2277 C.ar    1  UNL1       -0.0583
     20 C           4.0359   -6.8045   -1.3062 C.ar    1  UNL1       -0.0193
     21 C           3.9960   -5.4142   -1.1168 C.ar    1  UNL1        0.1302
     22 O           4.1504   -4.5065   -2.1254 O.3     1  UNL1       -0.4867
     23 C           4.2773   -4.9805   -3.4586 C.3     1  UNL1        0.1152
     24 C           4.3063   -3.7532   -4.3454 C.ar    1  UNL1       -0.0027
     25 C           5.3605   -3.7038   -5.3155 C.ar    1  UNL1       -0.0548
     26 C           5.5751   -2.5598   -6.0552 C.ar    1  UNL1       -0.0608
     27 C           4.7019   -1.4930   -5.9054 C.ar    1  UNL1       -0.0540
     28 C           3.6616   -1.5508   -4.9517 C.ar    1  UNL1       -0.0175
     29 C           2.9132   -0.4026   -4.7788 C.ar    1  UNL1       -0.0540
     30 C           1.9155   -0.3657   -3.7860 C.ar    1  UNL1       -0.0612
     31 C           1.0894   -1.3460   -3.3009 C.ar    1  UNL1       -0.0612
     32 C           1.9454   -2.4651   -3.4460 C.ar    1  UNL1       -0.0537
     33 C           3.3151   -2.6461   -4.2066 C.ar    1  UNL1       -0.0115
     34 N           4.5416   -2.7296    1.2030 N.ar    1  UNL1       -0.1731
     35 N           4.1343   -1.4401    1.0863 N.ar    1  UNL1       -0.2719
     36 H           4.0217    1.0885   -0.2624 H       1  UNL1        0.1776
     37 H           2.5181    4.2833   -1.1848 H       1  UNL1        0.0851
     38 H           4.6734    1.6213   -2.1857 H       1  UNL1        0.0624
     39 H           7.1201    1.5428   -2.1291 H       1  UNL1        0.0619
     40 H           8.4056    3.3921   -1.0889 H       1  UNL1        0.0654
     41 H           8.2323    5.4535   -0.0259 H       1  UNL1        0.2921
     42 H           4.7199    5.3245    0.0391 H       1  UNL1        0.0660
     43 H           1.9434   -2.8097   -0.8013 H       1  UNL1        0.0662
     44 H           3.4181   -5.3705    2.2430 H       1  UNL1        0.0625
     45 H           3.4645   -7.8199    1.8806 H       1  UNL1        0.0618
     46 H           3.8794   -8.7439   -0.3796 H       1  UNL1        0.0619
     47 H           4.2154   -7.2488   -2.2803 H       1  UNL1        0.0654
     48 H           3.4434   -5.6211   -3.7612 H       1  UNL1        0.0748
     49 H           5.2195   -5.5524   -3.5330 H       1  UNL1        0.0748
     50 H           6.0133   -4.5620   -5.5082 H       1  UNL1        0.0622
     51 H           6.4219   -2.4541   -6.7306 H       1  UNL1        0.0618
     52 H           4.8034   -0.6291   -6.5477 H       1  UNL1        0.0624
     53 H           3.0127    0.4665   -5.3993 H       1  UNL1        0.0624
     54 H           2.4159   -0.2703   -2.7900 H       1  UNL1        0.0618
     55 H           0.4548   -0.4172   -3.2137 H       1  UNL1        0.0618
     56 H           1.7163   -3.3318   -2.8252 H       1  UNL1        0.0624
     57 H           4.6074   -0.7519    1.6608 H       1  UNL1        0.1891
@<TRIPOS>BOND
     1     1     2    2
     2     2     3   am
     3     3     4    1
     4     4     5    2
     5     5     6    1
     6     6     7   ar
     7     7     8   ar
     8     8     9   ar
     9     9    10   ar
    10    10    11    1
    11    10    12   ar
    12     6    12   ar
    13     2    13    1
    14    13    14   ar
    15    14    15   ar
    16    15    16    1
    17    16    17   ar
    18    17    18   ar
    19    18    19   ar
    20    19    20   ar
    21    20    21   ar
    22    16    21   ar
    23    21    22    1
    24    22    23    1
    25    23    24    1
    26    24    25   ar
    27    25    26   ar
    28    26    27   ar
    29    27    28   ar
    30    28    29   ar
    31    29    30   ar
    32    30    31   ar
    33    31    32   ar
    34    32    33   ar
    35    24    33   ar
    36    28    33   ar
    37    15    34   ar
    38    34    35   ar
    39    13    35   ar
    40     3    36    1
    41     5    37    1
    42     7    38    1
    43     8    39    1
    44     9    40    1
    45    11    41    1
    46    12    42    1
    47    14    43    1
    48    17    44    1
    49    18    45    1
    50    19    46    1
    51    20    47    1
    52    23    48    1
    53    23    49    1
    54    25    50    1
    55    26    51    1
    56    27    52    1
    57    29    53    1
    58    30    54    1
    59    31    55    1
    60    32    56    1
    61    35    57    1
