REMARK  14 active torsions:
REMARK  status: ('A' for Active; 'I' for Inactive)
REMARK    1  A    between atoms: C_2  and  C_3 
REMARK    2  A    between atoms: C_3  and  C_4 
REMARK    3  A    between atoms: C_4  and  C_5 
REMARK    4  A    between atoms: C_5  and  C_6 
REMARK    5  A    between atoms: C_6  and  O_7 
REMARK    6  A    between atoms: O_7  and  C_8 
REMARK    7  A    between atoms: C_13  and  C_14 
REMARK       I    between atoms: C_14  and  N_16 
REMARK    8  A    between atoms: N_16  and  C_17 
REMARK    9  A    between atoms: C_17  and  N_19 
REMARK   10  A    between atoms: C_25  and  C_26 
REMARK   11  A    between atoms: C_26  and  C_27 
REMARK   12  A    between atoms: C_27  and  O_29 
REMARK   13  A    between atoms: C_30  and  O_29 
REMARK   14  A    between atoms: C_30  and  C_32 
ROOT
ATOM      1  C   UNL d   1       2.950   1.211   3.290  0.00  0.00     0.177 C 
ATOM      2  S   UNL d   1       2.960   2.900   3.221  0.00  0.00    -0.041 SA
ENDROOT
BRANCH   1   3
ATOM      3  N   UNL d   1       3.594   0.493   4.330  0.00  0.00    -0.299 N 
ATOM      4  C   UNL d   1       4.559   0.982   5.249  0.00  0.00     0.260 C 
ATOM      5  O   UNL d   1       4.649   2.167   5.560  0.00  0.00    -0.267 OA
ATOM      6  H   UNL d   1       3.562  -0.502   4.314  0.00  0.00     0.171 HD
BRANCH   4   7
ATOM      7  C   UNL d   1       5.486   0.042   5.993  0.00  0.00     0.065 C 
ATOM      8  C   UNL d   1       6.046   0.561   7.200  0.00  0.00     0.020 C 
ATOM      9  C   UNL d   1       6.836  -0.204   8.079  0.00  0.00     0.001 C 
ATOM     10  C   UNL d   1       7.008  -1.550   7.837  0.00  0.00     0.003 C 
ATOM     11  C   UNL d   1       6.560  -2.045   6.622  0.00  0.00     0.038 C 
ATOM     12  C   UNL d   1       5.898  -1.240   5.643  0.00  0.00     0.084 C 
BRANCH  12  13
ATOM     13  O   UNL d   1       5.771  -1.968   4.502  0.00  0.00    -0.350 OA
BRANCH  13  14
ATOM     14  C   UNL d   1       5.549  -1.583   3.162  0.00  0.00     0.175 C 
BRANCH  14  15
ATOM     15  C   UNL d   1       4.781  -2.675   2.320  0.00  0.00     0.027 C 
BRANCH  15  16
ATOM     16  C   UNL d   1       4.450  -2.090   0.981  0.00  0.00     0.002 C 
BRANCH  16  17
ATOM     17  C   UNL d   1       3.618  -2.988   0.049  0.00  0.00    -0.000 C 
BRANCH  17  18
ATOM     18  C   UNL d   1       3.426  -2.498  -1.422  0.00  0.00    -0.005 C 
ATOM     19  C   UNL d   1       2.280  -3.211  -2.139  0.00  0.00     0.005 C 
ENDBRANCH  17  18
ENDBRANCH  16  17
ENDBRANCH  15  16
ENDBRANCH  14  15
ENDBRANCH  13  14
ENDBRANCH  12  13
ENDBRANCH   4   7
ENDBRANCH   1   3
BRANCH   1  20
ATOM     20  N   UNL d   1       2.419   0.457   2.201  0.00  0.00    -0.343 N 
ATOM     21  C   UNL d   1       2.450   1.146   0.843  0.00  0.00     0.146 C 
ATOM     22  C   UNL d   1       2.783   0.190  -0.241  0.00  0.00     0.142 C 
ATOM     23  N   UNL d   1       1.691  -0.776  -0.201  0.00  0.00    -0.358 N 
ATOM     24  C   UNL d   1       1.180  -1.386   0.900  0.00  0.00     0.241 C 
ATOM     25  H   UNL d   1       1.415  -1.289  -1.023  0.00  0.00     0.162 HD
ATOM     26  O   UNL d   1       0.492  -2.377   0.667  0.00  0.00    -0.271 OA
ATOM     27  C   UNL d   1       1.379  -0.725   2.284  0.00  0.00     0.188 C 
BRANCH  27  28
ATOM     28  C   UNL d   1       1.671  -1.726   3.423  0.00  0.00     0.146 C 
BRANCH  28  29
ATOM     29  C   UNL d   1       1.194  -3.185   3.460  0.00  0.00     0.261 C 
ATOM     30  O   UNL d   1       0.239  -3.593   2.771  0.00  0.00    -0.265 OA
BRANCH  29  31
ATOM     31  O   UNL d   1       1.774  -4.110   4.275  0.00  0.00    -0.316 OA
BRANCH  31  32
ATOM     32  C   UNL d   1       2.631  -3.937   5.424  0.00  0.00     0.127 C 
ATOM     33  C   UNL d   1       3.893  -3.356   5.012  0.00  0.00     0.040 C 
BRANCH  32  34
ATOM     34  C   UNL d   1       3.212  -5.239   5.970  0.00  0.00     0.027 C 
ATOM     35  C   UNL d   1       2.139  -6.002   6.645  0.00  0.00     0.007 C 
ENDBRANCH  32  34
ENDBRANCH  31  32
ENDBRANCH  29  31
ENDBRANCH  28  29
ENDBRANCH  27  28
ENDBRANCH   1  20
TORSDOF 14
