REMARK  5 active torsions:
REMARK  status: ('A' for Active; 'I' for Inactive)
REMARK    1  A    between atoms: C_8  and  C_9 
REMARK    2  A    between atoms: C_9  and  C_10 
REMARK    3  A    between atoms: C_10  and  N_11 
REMARK    4  A    between atoms: C_16  and  C_15 
REMARK    5  A    between atoms: C_25  and  N_26 
ROOT
ATOM      1  N   UNL d   1       4.359 -11.199   1.533  0.00  0.00    -0.359 N 
ATOM      2  C   UNL d   1       5.346 -12.246   1.438  0.00  0.00     0.208 C 
ATOM      3  C   UNL d   1       6.329 -11.562   0.493  0.00  0.00     0.179 C 
ATOM      4  O   UNL d   1       7.509 -11.651   0.699  0.00  0.00    -0.291 OA
ATOM      5  C   UNL d   1       5.622 -10.587  -0.466  0.00  0.00     0.076 C 
ATOM      6  C   UNL d   1       4.567 -10.292   0.422  0.00  0.00     0.110 C 
ENDROOT
BRANCH   1   7
ATOM      7  C   UNL d   1       3.471 -11.214   2.746  0.00  0.00     0.129 C 
BRANCH   7   8
ATOM      8  C   UNL d   1       2.837 -12.630   3.034  0.00  0.00     0.056 C 
BRANCH   8   9
ATOM      9  C   UNL d   1       1.842 -12.791   4.174  0.00  0.00    -0.048 A 
ATOM     10  C   UNL d   1       1.188 -13.919   4.510  0.00  0.00    -0.005 A 
ATOM     11  C   UNL d   1       0.330 -13.569   5.661  0.00  0.00     0.038 A 
ATOM     12  C   UNL d   1       1.183 -15.248   3.992  0.00  0.00     0.020 A 
ATOM     13  C   UNL d   1      -0.529 -14.621   6.245  0.00  0.00     0.030 A 
ATOM     14  N   UNL d   1       0.465 -12.343   5.992  0.00  0.00    -0.385 N 
ATOM     15  C   UNL d   1      -0.473 -15.849   5.689  0.00  0.00     0.009 A 
ATOM     16  C   UNL d   1       0.388 -16.181   4.552  0.00  0.00    -0.061 A 
ATOM     17  C   UNL d   1       0.377 -17.582   4.006  0.00  0.00     0.048 C 
ATOM     18  C   UNL d   1       1.445 -11.678   5.101  0.00  0.00     0.155 A 
ATOM     19  H   UNL d   1      -0.045 -11.909   6.761  0.00  0.00     0.160 HD
ENDBRANCH   8   9
ENDBRANCH   7   8
ENDBRANCH   1   7
BRANCH   6  20
ATOM     20  N   UNL d   1       3.731  -9.231   0.350  0.00  0.00    -0.385 N 
ATOM     21  H   UNL d   1       3.845  -8.496  -0.331  0.00  0.00     0.157 HD
ATOM     22  H   UNL d   1       2.986  -9.153   1.028  0.00  0.00     0.157 HD
ENDBRANCH   6  20
BRANCH   5  23
ATOM     23  C   UNL d   1       6.359  -9.863  -1.827  0.00  0.00     0.329 C 
ATOM     24  N   UNL d   1       6.244 -10.395  -3.405  0.00  0.00     0.124 N 
ATOM     25  C   UNL d   1       7.592 -11.158  -3.805  0.00  0.00     0.254 C 
ATOM     26  H   UNL d   1       6.469  -9.565  -3.995  0.00  0.00     0.319 HD
ATOM     27  C   UNL d   1       7.536 -12.320  -4.641  0.00  0.00     0.023 C 
ATOM     28  C   UNL d   1       8.316 -11.201  -2.640  0.00  0.00     0.026 C 
ATOM     29  C   UNL d   1       7.628 -13.570  -4.029  0.00  0.00    -0.001 C 
ATOM     30  C   UNL d   1       7.791 -13.589  -2.659  0.00  0.00     0.001 C 
ATOM     31  C   UNL d   1       8.230 -12.429  -2.018  0.00  0.00     0.017 C 
ATOM     32  S   UNL d   1       8.161  -9.712  -1.657  0.00  0.00    -0.090 SA
ENDBRANCH   5  23
TORSDOF 5
