@<TRIPOS>MOLECULE
*****
 42 42 0 0 0
SMALL
GASTEIGER

@<TRIPOS>ATOM
      1 C           0.9142    0.0126   -0.0505 C.3     1  UNL1       -0.0424
      2 C           2.4496    0.0375   -0.1245 C.3     1  UNL1        0.0460
      3 N           2.9083    0.7761   -1.3000 N.am    1  UNL1       -0.3010
      4 C           2.5839    0.4088   -2.5941 C.2     1  UNL1        0.2994
      5 O           1.9105   -0.5660   -2.9127 O.2     1  UNL1       -0.2652
      6 C           3.1228    1.3475   -3.7074 C.2     1  UNL1        0.2990
      7 O           3.8086    2.3197   -3.4092 O.2     1  UNL1       -0.2652
      8 N           2.7609    0.9874   -4.9952 N.am    1  UNL1       -0.3076
      9 C           3.2026    1.7410   -6.1516 C.3     1  UNL1        0.0120
     10 C           2.7034    1.1650   -7.4769 C.3     1  UNL1       -0.0373
     11 C           3.2035    1.9953   -8.6633 C.3     1  UNL1       -0.0496
     12 C           2.7106    1.4277   -9.9925 C.3     1  UNL1       -0.0297
     13 C           3.2131    2.2574  -11.1666 C.3     1  UNL1        0.0442
     14 O           2.7289    1.7136  -12.3860 O.3     1  UNL1       -0.3950
     15 C           2.9430    0.6357    1.1920 C.ar    1  UNL1       -0.0275
     16 C           3.2640   -0.1902    2.2859 C.ar    1  UNL1       -0.0568
     17 C           3.4313    0.3567    3.5646 C.ar    1  UNL1       -0.0614
     18 C           3.3664    1.7362    3.7513 C.ar    1  UNL1       -0.0617
     19 C           3.1018    2.5690    2.6687 C.ar    1  UNL1       -0.0614
     20 C           2.8814    2.0229    1.4044 C.ar    1  UNL1       -0.0568
     21 H           0.4662   -0.4266   -0.9445 H       1  UNL1        0.0251
     22 H           0.5080    1.0270    0.0475 H       1  UNL1        0.0251
     23 H           0.5648   -0.5695    0.8098 H       1  UNL1        0.0251
     24 H           2.8250   -0.9887   -0.2288 H       1  UNL1        0.0545
     25 H           3.5208    1.5793   -1.1891 H       1  UNL1        0.1497
     26 H           2.1766    0.1604   -5.0982 H       1  UNL1        0.1491
     27 H           4.2984    1.7596   -6.1377 H       1  UNL1        0.0462
     28 H           2.8546    2.7734   -6.0325 H       1  UNL1        0.0462
     29 H           1.6068    1.1396   -7.4840 H       1  UNL1        0.0280
     30 H           3.0452    0.1284   -7.5860 H       1  UNL1        0.0280
     31 H           4.3004    2.0189   -8.6624 H       1  UNL1        0.0266
     32 H           2.8601    3.0322   -8.5604 H       1  UNL1        0.0266
     33 H           1.6141    1.3966  -10.0114 H       1  UNL1        0.0287
     34 H           3.0435    0.3889  -10.1092 H       1  UNL1        0.0287
     35 H           4.3073    2.2735  -11.2015 H       1  UNL1        0.0557
     36 H           2.8573    3.2897  -11.0917 H       1  UNL1        0.0557
     37 H           3.0674    0.8049  -12.4577 H       1  UNL1        0.2094
     38 H           3.3414   -1.2697    2.1680 H       1  UNL1        0.0621
     39 H           3.5817   -0.2935    4.4241 H       1  UNL1        0.0618
     40 H           3.5113    2.1628    4.7406 H       1  UNL1        0.0618
     41 H           3.0235    3.6434    2.8109 H       1  UNL1        0.0618
     42 H           2.6066    2.6891    0.5907 H       1  UNL1        0.0621
@<TRIPOS>BOND
     1     1     2    1
     2     2     3    1
     3     3     4   am
     4     4     5    2
     5     4     6    1
     6     6     7    2
     7     6     8   am
     8     8     9    1
     9     9    10    1
    10    10    11    1
    11    11    12    1
    12    12    13    1
    13    13    14    1
    14     2    15    1
    15    15    16   ar
    16    16    17   ar
    17    17    18   ar
    18    18    19   ar
    19    19    20   ar
    20    15    20   ar
    21     1    21    1
    22     1    22    1
    23     1    23    1
    24     2    24    1
    25     3    25    1
    26     8    26    1
    27     9    27    1
    28     9    28    1
    29    10    29    1
    30    10    30    1
    31    11    31    1
    32    11    32    1
    33    12    33    1
    34    12    34    1
    35    13    35    1
    36    13    36    1
    37    14    37    1
    38    16    38    1
    39    17    39    1
    40    18    40    1
    41    19    41    1
    42    20    42    1
