@<TRIPOS>MOLECULE
*****
 46 47 0 0 0
SMALL
GASTEIGER

@<TRIPOS>ATOM
      1 C           0.8854    0.0377    0.0942 C.3     1  UNL1       -0.0612
      2 C           2.3885   -0.0182   -0.0031 C.3     1  UNL1       -0.0287
      3 C           3.0160   -1.2401   -0.5888 C.ar    1  UNL1       -0.0206
      4 C           2.3946   -2.4723   -0.3282 C.ar    1  UNL1       -0.0503
      5 C           2.8854   -3.6623   -0.8389 C.ar    1  UNL1        0.0160
      6 C           3.9788   -3.6334   -1.6995 C.ar    1  UNL1        0.2750
      7 N           4.3553   -4.8850   -2.3708 N.pl3   1  UNL1        0.0797
      8 O           3.6929   -5.8998   -2.1030 O.2     1  UNL1        0.0414
      9 O           5.2916   -4.8500   -3.1779 O.co2   1  UNL1       -0.5760
     10 C           4.6525   -2.4256   -1.9547 C.ar    1  UNL1        0.0424
     11 C           4.1941   -1.2209   -1.3584 C.ar    1  UNL1        0.1180
     12 S           5.1019    0.2729   -1.8170 S.O2    1  UNL1        0.0728
     13 O           6.4691    0.0683   -1.3571 O.2     1  UNL1       -0.1500
     14 O           4.8099    0.4019   -3.2192 O.2     1  UNL1       -0.1500
     15 N           4.5361    1.6343   -0.9669 N.pl3   1  UNL1       -0.2162
     16 C           4.9532    2.9756   -1.2104 C.ar    1  UNL1        0.0500
     17 C           4.8898    3.9554   -0.2378 C.ar    1  UNL1       -0.0358
     18 C           5.1765    5.2826   -0.5998 C.ar    1  UNL1       -0.0163
     19 C           5.5014    5.6425   -1.9362 C.ar    1  UNL1        0.1413
     20 O           5.8725    6.9599   -2.0448 O.3     1  UNL1       -0.4933
     21 C           6.4056    7.4118   -3.2797 C.3     1  UNL1        0.0789
     22 C           5.4584    4.6516   -2.9327 C.ar    1  UNL1        0.0774
     23 N           5.6056    4.8597   -4.3238 N.am    1  UNL1       -0.2828
     24 C           5.4884    4.0742   -5.4314 C.2     1  UNL1        0.2142
     25 C           5.0707    2.6312   -5.4365 C.3     1  UNL1        0.0125
     26 O           5.7449    4.6190   -6.5133 O.2     1  UNL1       -0.2758
     27 C           5.2715    3.3552   -2.4899 C.ar    1  UNL1       -0.0145
     28 H           0.6007    1.0079    0.5113 H       1  UNL1        0.0233
     29 H           0.4582   -0.7504    0.7105 H       1  UNL1        0.0233
     30 H           0.4802   -0.0300   -0.9212 H       1  UNL1        0.0233
     31 H           2.8701    0.1935    0.9615 H       1  UNL1        0.0311
     32 H           2.5271    0.7774   -0.7231 H       1  UNL1        0.0311
     33 H           1.4847   -2.5233    0.2632 H       1  UNL1        0.0623
     34 H           2.3784   -4.5873   -0.5732 H       1  UNL1        0.0685
     35 H           5.5103   -2.4105   -2.6302 H       1  UNL1        0.0705
     36 H           3.9637    1.5517   -0.1449 H       1  UNL1        0.1737
     37 H           4.6797    3.7002    0.7974 H       1  UNL1        0.0638
     38 H           5.1531    6.0497    0.1749 H       1  UNL1        0.0655
     39 H           6.8185    8.4161   -3.1648 H       1  UNL1        0.0660
     40 H           5.5903    7.4990   -4.0043 H       1  UNL1        0.0660
     41 H           7.2254    6.7720   -3.6318 H       1  UNL1        0.0660
     42 H           5.8102    5.7830   -4.6578 H       1  UNL1        0.1549
     43 H           4.5491    2.2961   -4.5594 H       1  UNL1        0.0323
     44 H           5.9444    2.0002   -5.6289 H       1  UNL1        0.0323
     45 H           4.2903    2.4801   -6.1803 H       1  UNL1        0.0323
     46 H           5.4510    2.5449   -3.1454 H       1  UNL1        0.0656
@<TRIPOS>UNITY_ATOM_ATTR
7 1
charge 1
9 1
charge -1
@<TRIPOS>BOND
     1     1     2    1
     2     2     3    1
     3     3     4   ar
     4     4     5   ar
     5     5     6   ar
     6     6     7    1
     7     7     8    2
     8     7     9    1
     9     6    10   ar
    10    10    11   ar
    11     3    11   ar
    12    11    12    1
    13    12    13    2
    14    12    14    2
    15    12    15    1
    16    15    16    1
    17    16    17   ar
    18    17    18   ar
    19    18    19   ar
    20    19    20    1
    21    20    21    1
    22    19    22   ar
    23    22    23    1
    24    23    24   am
    25    24    25    1
    26    24    26    2
    27    22    27   ar
    28    16    27   ar
    29     1    28    1
    30     1    29    1
    31     1    30    1
    32     2    31    1
    33     2    32    1
    34     4    33    1
    35     5    34    1
    36    10    35    1
    37    15    36    1
    38    17    37    1
    39    18    38    1
    40    21    39    1
    41    21    40    1
    42    21    41    1
    43    23    42    1
    44    25    43    1
    45    25    44    1
    46    25    45    1
    47    27    46    1
