@<TRIPOS>MOLECULE
*****
 57 60 0 0 0
SMALL
GASTEIGER

@<TRIPOS>ATOM
      1 C           1.0967   -0.0569   -0.0422 C.3     1  UNL1        0.0788
      2 O           2.5192    0.0531   -0.0533 O.3     1  UNL1       -0.4950
      3 C           3.1784   -0.8693    0.7142 C.ar    1  UNL1        0.1221
      4 C           2.7973   -2.1974    0.7927 C.ar    1  UNL1       -0.0193
      5 C           3.5545   -3.0979    1.5352 C.ar    1  UNL1       -0.0489
      6 C           4.7032   -2.6847    2.2447 C.ar    1  UNL1        0.0031
      7 C           5.6537   -3.3387    3.1083 C.ar    1  UNL1       -0.0209
      8 C           5.6924   -4.7865    3.5373 C.3     1  UNL1       -0.0101
      9 C           4.5900   -5.6388    2.9173 C.3     1  UNL1        0.0157
     10 N           4.5597   -7.0458    3.2638 N.am    1  UNL1       -0.3143
     11 C           3.5555   -7.8190    2.7076 C.2     1  UNL1        0.2230
     12 O           2.7207   -7.3176    1.9451 O.2     1  UNL1       -0.2749
     13 C           3.5562   -9.3074    3.0927 C.3     1  UNL1        0.0733
     14 S           2.2693  -10.1564    2.0981 S.3     1  UNL1       -0.1079
     15 C           2.1912  -11.8332    2.7231 C.3     1  UNL1        0.1757
     16 N           3.2856  -12.6447    2.1463 N.3     1  UNL1       -0.2341
     17 N           2.7413  -13.9904    2.0966 N.4     1  UNL1        0.4192
     18 N           1.3100  -13.8646    1.9523 N.3     1  UNL1       -0.1797
     19 N           0.9555  -12.5979    2.4648 N.pl3   1  UNL1       -0.2016
     20 C          -0.3575  -12.1336    2.3546 C.ar    1  UNL1        0.0517
     21 C          -0.7321  -11.0201    1.5842 C.ar    1  UNL1       -0.0391
     22 C          -2.0375  -10.5108    1.5766 C.ar    1  UNL1       -0.0597
     23 C          -3.0292  -11.1287    2.3204 C.ar    1  UNL1       -0.0587
     24 C          -2.7222  -12.2688    3.0631 C.ar    1  UNL1       -0.0487
     25 C          -3.7965  -12.9245    3.8833 C.3     1  UNL1       -0.0397
     26 C          -1.3990  -12.7689    3.0612 C.ar    1  UNL1       -0.0362
     27 C           6.5451   -2.3587    3.5112 C.ar    1  UNL1        0.0060
     28 N           6.2051   -1.1766    2.9011 N.ar    1  UNL1       -0.3603
     29 C           5.0699   -1.3427    2.1410 C.ar    1  UNL1        0.0502
     30 C           4.3367   -0.4229    1.3686 C.ar    1  UNL1        0.0040
     31 H           0.7048    0.7084   -0.7180 H       1  UNL1        0.0660
     32 H           0.7071    0.1415    0.9617 H       1  UNL1        0.0660
     33 H           0.7323   -1.0206   -0.4126 H       1  UNL1        0.0660
     34 H           1.9342   -2.5931    0.2697 H       1  UNL1        0.0654
     35 H           3.2048   -4.1220    1.5283 H       1  UNL1        0.0625
     36 H           5.6099   -4.8334    4.6297 H       1  UNL1        0.0329
     37 H           6.6675   -5.2113    3.2703 H       1  UNL1        0.0329
     38 H           4.6755   -5.5999    1.8233 H       1  UNL1        0.0465
     39 H           3.6145   -5.2365    3.2185 H       1  UNL1        0.0465
     40 H           5.2342   -7.4103    3.9204 H       1  UNL1        0.1487
     41 H           3.3684   -9.3916    4.1682 H       1  UNL1        0.0472
     42 H           4.5309   -9.7333    2.8417 H       1  UNL1        0.0472
     43 H           2.3142  -11.8291    3.8131 H       1  UNL1        0.0851
     44 H           4.1538  -12.5190    2.6625 H       1  UNL1        0.1771
     45 H           2.9663  -14.5220    2.9593 H       1  UNL1        0.2445
     46 H           3.1374  -14.5263    1.2977 H       1  UNL1        0.2445
     47 H           0.7694  -14.6224    2.3921 H       1  UNL1        0.1991
     48 H          -0.0269  -10.5008    0.9432 H       1  UNL1        0.0636
     49 H          -2.2729   -9.6229    0.9922 H       1  UNL1        0.0618
     50 H          -4.0369  -10.7158    2.3137 H       1  UNL1        0.0620
     51 H          -4.7595  -12.4139    3.7636 H       1  UNL1        0.0278
     52 H          -3.5344  -12.8880    4.9451 H       1  UNL1        0.0278
     53 H          -3.9311  -13.9638    3.5712 H       1  UNL1        0.0278
     54 H          -1.1866  -13.6426    3.6719 H       1  UNL1        0.0639
     55 H           7.3966   -2.3999    4.1795 H       1  UNL1        0.0810
     56 H           6.7012   -0.3016    3.0099 H       1  UNL1        0.1653
     57 H           4.6401    0.6155    1.2850 H       1  UNL1        0.0675
@<TRIPOS>UNITY_ATOM_ATTR
17 1
charge 1
@<TRIPOS>BOND
     1     1     2    1
     2     2     3    1
     3     3     4   ar
     4     4     5   ar
     5     5     6   ar
     6     6     7   ar
     7     7     8    1
     8     8     9    1
     9     9    10    1
    10    10    11   am
    11    11    12    2
    12    11    13    1
    13    13    14    1
    14    14    15    1
    15    15    16    1
    16    16    17    1
    17    17    18    1
    18    18    19    1
    19    15    19    1
    20    19    20    1
    21    20    21   ar
    22    21    22   ar
    23    22    23   ar
    24    23    24   ar
    25    24    25    1
    26    24    26   ar
    27    20    26   ar
    28     7    27   ar
    29    27    28   ar
    30    28    29   ar
    31     6    29   ar
    32    29    30   ar
    33     3    30   ar
    34     1    31    1
    35     1    32    1
    36     1    33    1
    37     4    34    1
    38     5    35    1
    39     8    36    1
    40     8    37    1
    41     9    38    1
    42     9    39    1
    43    10    40    1
    44    13    41    1
    45    13    42    1
    46    15    43    1
    47    16    44    1
    48    17    45    1
    49    17    46    1
    50    18    47    1
    51    21    48    1
    52    22    49    1
    53    23    50    1
    54    25    51    1
    55    25    52    1
    56    25    53    1
    57    26    54    1
    58    27    55    1
    59    28    56    1
    60    30    57    1
