@<TRIPOS>MOLECULE
*****
 46 48 0 0 0
SMALL
GASTEIGER

@<TRIPOS>ATOM
      1 C           1.0320    0.0469    0.1164 C.3     1  UNL1        0.0820
      2 O           2.4673    0.0283    0.1354 O.3     1  UNL1       -0.4644
      3 C           3.0394    0.8883    1.0182 C.2     1  UNL1        0.3425
      4 O           2.4348    1.6010    1.8110 O.2     1  UNL1       -0.2448
      5 C           4.5293    0.8391    0.9736 C.ar    1  UNL1        0.1021
      6 C           5.2587    0.8485    2.1845 C.ar    1  UNL1       -0.0175
      7 C           6.6733    0.8790    2.1798 C.ar    1  UNL1        0.1095
      8 S           7.5293    0.8320    3.7649 S.O2    1  UNL1        0.0724
      9 O           7.1920    2.0714    4.4336 O.2     1  UNL1       -0.1500
     10 O           7.1874   -0.4542    4.3329 O.2     1  UNL1       -0.1500
     11 N           9.1990    0.8479    3.4701 N.pl3   1  UNL1       -0.2162
     12 C          10.1326    0.8460    4.5638 C.ar    1  UNL1        0.0484
     13 C          10.0021   -0.0455    5.6185 C.ar    1  UNL1       -0.0376
     14 C          10.9342   -0.0622    6.6652 C.ar    1  UNL1       -0.0386
     15 C          12.0515    0.7857    6.6952 C.ar    1  UNL1        0.0328
     16 C          12.2127    1.6535    5.5963 C.ar    1  UNL1       -0.0245
     17 C          11.2607    1.6757    4.5403 C.ar    1  UNL1       -0.0344
     18 C          13.4446    2.5246    5.5059 C.3     1  UNL1       -0.0245
     19 C          14.0611    2.8017    6.8702 C.3     1  UNL1       -0.0332
     20 C          14.2052    1.5141    7.6610 C.3     1  UNL1        0.0122
     21 N          12.9312    0.8090    7.7745 N.pl3   1  UNL1       -0.3327
     22 C          12.8344   -0.1962    8.8259 C.3     1  UNL1        0.0007
     23 C           7.3525    0.9179    0.9628 C.ar    1  UNL1       -0.0316
     24 C           6.6290    0.9238   -0.2410 C.ar    1  UNL1       -0.0175
     25 C           5.2288    0.8829   -0.2370 C.ar    1  UNL1        0.1309
     26 O           4.5463    0.9345   -1.4202 O.3     1  UNL1       -0.5059
     27 H           0.6831   -0.6695   -0.6356 H       1  UNL1        0.0661
     28 H           0.6549    1.0371   -0.1627 H       1  UNL1        0.0661
     29 H           0.6279   -0.2580    1.0870 H       1  UNL1        0.0661
     30 H           4.7181    0.8351    3.1315 H       1  UNL1        0.0646
     31 H           9.5709    0.9825    2.5402 H       1  UNL1        0.1737
     32 H           9.1857   -0.7590    5.6565 H       1  UNL1        0.0637
     33 H          10.7517   -0.7719    7.4663 H       1  UNL1        0.0637
     34 H          11.4105    2.3698    3.7171 H       1  UNL1        0.0640
     35 H          13.2023    3.4813    5.0300 H       1  UNL1        0.0314
     36 H          14.1801    2.0124    4.8728 H       1  UNL1        0.0314
     37 H          13.4332    3.5079    7.4279 H       1  UNL1        0.0283
     38 H          15.0440    3.2731    6.7488 H       1  UNL1        0.0283
     39 H          14.5710    1.7720    8.6638 H       1  UNL1        0.0464
     40 H          14.9566    0.8573    7.2065 H       1  UNL1        0.0464
     41 H          13.6068   -0.0511    9.5891 H       1  UNL1        0.0428
     42 H          12.9608   -1.2056    8.4194 H       1  UNL1        0.0428
     43 H          11.8702   -0.1247    9.3408 H       1  UNL1        0.0428
     44 H           8.4328    0.9493    0.9064 H       1  UNL1        0.0638
     45 H           7.1796    0.9777   -1.1772 H       1  UNL1        0.0655
     46 H           5.1561    0.9012   -2.1743 H       1  UNL1        0.2922
@<TRIPOS>BOND
     1     1     2    1
     2     2     3    1
     3     3     4    2
     4     3     5    1
     5     5     6   ar
     6     6     7   ar
     7     7     8    1
     8     8     9    2
     9     8    10    2
    10     8    11    1
    11    11    12    1
    12    12    13   ar
    13    13    14   ar
    14    14    15   ar
    15    15    16   ar
    16    16    17   ar
    17    12    17   ar
    18    16    18    1
    19    18    19    1
    20    19    20    1
    21    20    21    1
    22    15    21    1
    23    21    22    1
    24     7    23   ar
    25    23    24   ar
    26    24    25   ar
    27     5    25   ar
    28    25    26    1
    29     1    27    1
    30     1    28    1
    31     1    29    1
    32     6    30    1
    33    11    31    1
    34    13    32    1
    35    14    33    1
    36    17    34    1
    37    18    35    1
    38    18    36    1
    39    19    37    1
    40    19    38    1
    41    20    39    1
    42    20    40    1
    43    22    41    1
    44    22    42    1
    45    22    43    1
    46    23    44    1
    47    24    45    1
    48    26    46    1
