@<TRIPOS>MOLECULE
*****
 48 48 0 0 0
SMALL
GASTEIGER

@<TRIPOS>ATOM
      1 C           1.0855   -0.0585   -0.0343 C.3     1  UNL1       -0.0652
      2 C           2.6099   -0.0410   -0.0566 C.3     1  UNL1       -0.0545
      3 C           3.1522    0.8465   -1.1900 C.3     1  UNL1       -0.0376
      4 C           4.6886    0.8740   -1.2258 C.3     1  UNL1        0.0131
      5 N           5.2519    1.7082   -2.2945 N.am    1  UNL1       -0.2982
      6 C           6.6169    1.8457   -2.4616 C.2     1  UNL1        0.3160
      7 O           7.4424    1.2797   -1.7399 O.2     1  UNL1       -0.2513
      8 N           7.0021    2.6742   -3.5056 N.am    1  UNL1       -0.2181
      9 N           8.3993    2.9093   -3.7412 N.am    1  UNL1       -0.2301
     10 C           8.8135    3.7195   -4.8058 C.2     1  UNL1        0.2696
     11 O           7.9841    4.2872   -5.5209 O.2     1  UNL1       -0.2702
     12 C          10.3771    3.8520   -5.0222 C.3     1  UNL1        0.1741
     13 C          10.9203    2.4323   -5.1965 C.3     1  UNL1       -0.0190
     14 O          10.6666    4.7573   -6.1267 O.3     1  UNL1       -0.4798
     15 C          11.9570    5.0202   -6.5218 C.ar    1  UNL1        0.1218
     16 C          12.3054    6.3252   -6.8935 C.ar    1  UNL1       -0.0165
     17 C          13.5793    6.6072   -7.4472 C.ar    1  UNL1       -0.0165
     18 C          14.5523    5.6090   -7.5505 C.ar    1  UNL1        0.1207
     19 O          15.7946    5.9609   -8.0111 O.3     1  UNL1       -0.4922
     20 C          16.7822    4.9181   -7.9756 C.3     1  UNL1        0.0868
     21 C          18.1230    5.4766   -8.4053 C.3     1  UNL1       -0.0307
     22 C          14.1938    4.3175   -7.2080 C.ar    1  UNL1       -0.0165
     23 C          12.9023    4.0328   -6.7681 C.ar    1  UNL1       -0.0165
     24 H           0.7176   -0.6949    0.7781 H       1  UNL1        0.0230
     25 H           0.6841   -0.4488   -0.9750 H       1  UNL1        0.0230
     26 H           0.6841    0.9483    0.1194 H       1  UNL1        0.0230
     27 H           2.9732   -1.0690   -0.1745 H       1  UNL1        0.0263
     28 H           2.9732    0.3197    0.9132 H       1  UNL1        0.0263
     29 H           2.7658    1.8650   -1.0623 H       1  UNL1        0.0280
     30 H           2.7655    0.4788   -2.1481 H       1  UNL1        0.0280
     31 H           5.0728   -0.1443   -1.3572 H       1  UNL1        0.0462
     32 H           5.0731    1.2472   -0.2692 H       1  UNL1        0.0462
     33 H           4.6212    2.1983   -2.9121 H       1  UNL1        0.1503
     34 H           6.3559    3.1536   -4.1254 H       1  UNL1        0.1744
     35 H           9.0306    2.3979   -3.1262 H       1  UNL1        0.1729
     36 H          10.7918    4.3040   -4.1126 H       1  UNL1        0.0829
     37 H          10.6487    2.0354   -6.1819 H       1  UNL1        0.0270
     38 H          10.5706    1.7371   -4.4332 H       1  UNL1        0.0270
     39 H          12.0048    2.4020   -5.0781 H       1  UNL1        0.0270
     40 H          11.5896    7.1380   -6.7851 H       1  UNL1        0.0655
     41 H          13.8019    7.6086   -7.8117 H       1  UNL1        0.0655
     42 H          16.5044    4.1131   -8.6678 H       1  UNL1        0.0694
     43 H          16.8838    4.5151   -6.9590 H       1  UNL1        0.0694
     44 H          18.0524    5.9114   -9.4063 H       1  UNL1        0.0262
     45 H          18.8840    4.6894   -8.4138 H       1  UNL1        0.0262
     46 H          18.4447    6.2691   -7.7233 H       1  UNL1        0.0262
     47 H          14.8689    3.4764   -7.3144 H       1  UNL1        0.0655
     48 H          12.6805    2.9821   -6.7139 H       1  UNL1        0.0655
@<TRIPOS>BOND
     1     1     2    1
     2     2     3    1
     3     3     4    1
     4     4     5    1
     5     5     6   am
     6     6     7    2
     7     6     8   am
     8     8     9    1
     9     9    10   am
    10    10    11    2
    11    10    12    1
    12    12    13    1
    13    12    14    1
    14    14    15    1
    15    15    16   ar
    16    16    17   ar
    17    17    18   ar
    18    18    19    1
    19    19    20    1
    20    20    21    1
    21    18    22   ar
    22    22    23   ar
    23    15    23   ar
    24     1    24    1
    25     1    25    1
    26     1    26    1
    27     2    27    1
    28     2    28    1
    29     3    29    1
    30     3    30    1
    31     4    31    1
    32     4    32    1
    33     5    33    1
    34     8    34    1
    35     9    35    1
    36    12    36    1
    37    13    37    1
    38    13    38    1
    39    13    39    1
    40    16    40    1
    41    17    41    1
    42    20    42    1
    43    20    43    1
    44    21    44    1
    45    21    45    1
    46    21    46    1
    47    22    47    1
    48    23    48    1
