@<TRIPOS>MOLECULE
*****
 56 60 0 0 0
SMALL
GASTEIGER

@<TRIPOS>ATOM
      1 O           1.0587   -0.2077    0.0283 O.2     1  UNL1       -0.2693
      2 C           2.2802   -0.0843   -0.0572 C.2     1  UNL1        0.2549
      3 N           2.9658   -0.2842   -1.2585 N.am    1  UNL1       -0.2808
      4 C           2.2677   -0.6007   -2.4498 C.ar    1  UNL1        0.0391
      5 C           2.6655   -1.6765   -3.2704 C.ar    1  UNL1       -0.0401
      6 C           1.9391   -2.0281   -4.4360 C.ar    1  UNL1       -0.0593
      7 C           0.8527   -1.2693   -4.8397 C.ar    1  UNL1       -0.0492
      8 C           0.5469   -0.1761   -4.0578 C.ar    1  UNL1        0.0433
      9 C           1.1904    0.1558   -2.8700 C.ar    1  UNL1        0.0032
     10 C           0.5983    1.4130   -2.3233 C.3     1  UNL1        0.0428
     11 N          -0.4323    1.7333   -3.2935 N.am    1  UNL1       -0.2888
     12 C          -1.3146    2.8712   -3.0741 C.3     1  UNL1        0.0404
     13 C          -2.3885    3.0183   -4.1102 C.ar    1  UNL1       -0.0298
     14 C          -2.4924    4.1185   -4.9489 C.ar    1  UNL1       -0.0571
     15 C          -3.5202    4.1666   -5.8899 C.ar    1  UNL1       -0.0611
     16 C          -4.3658    3.0656   -6.0809 C.ar    1  UNL1       -0.0571
     17 C          -4.2514    1.9282   -5.2719 C.ar    1  UNL1       -0.0301
     18 C          -5.1506    0.7360   -5.4927 C.3     1  UNL1        0.0344
     19 N          -4.9196   -0.3537   -4.5474 N.pl3   1  UNL1       -0.3394
     20 C          -5.6077   -1.5347   -4.5331 C.ar    1  UNL1        0.0386
     21 C          -6.0022   -2.1754   -5.6986 C.ar    1  UNL1        0.0229
     22 C          -6.7542   -3.3330   -5.6148 C.ar    1  UNL1        0.1712
     23 N          -7.1104   -3.8175   -4.4159 N.ar    1  UNL1       -0.2171
     24 C          -6.7386   -3.2325   -3.2677 C.ar    1  UNL1        0.1712
     25 C          -5.9672   -2.0838   -3.3019 C.ar    1  UNL1        0.0229
     26 C          -3.2859    1.9579   -4.2676 C.ar    1  UNL1       -0.0524
     27 C          -0.4310    0.8471   -4.3531 C.2     1  UNL1        0.2476
     28 O          -1.0750    0.8037   -5.3903 O.2     1  UNL1       -0.2700
     29 C           3.0605    0.1400    1.1462 C.ar    1  UNL1        0.0755
     30 C           2.7214   -0.3429    2.4003 C.ar    1  UNL1       -0.0411
     31 C           3.6477    0.0386    3.4075 C.ar    1  UNL1       -0.0355
     32 C           4.5982    0.8812    2.8944 C.ar    1  UNL1        0.0787
     33 CL          5.8671    1.6233    3.7824 Cl      1  UNL1       -0.0758
     34 S           4.4360    1.1522    1.2237 S.2     1  UNL1       -0.0722
     35 H           3.9467   -0.5294   -1.1972 H       1  UNL1        0.1552
     36 H           3.5121   -2.3029   -3.0020 H       1  UNL1        0.0636
     37 H           2.2294   -2.8871   -5.0374 H       1  UNL1        0.0618
     38 H           0.2786   -1.4851   -5.7365 H       1  UNL1        0.0625
     39 H           1.3356    2.2208   -2.3018 H       1  UNL1        0.0515
     40 H           0.1181    1.2952   -1.3520 H       1  UNL1        0.0515
     41 H          -0.7038    3.7744   -2.9922 H       1  UNL1        0.0514
     42 H          -1.8083    2.7256   -2.1014 H       1  UNL1        0.0514
     43 H          -1.7676    4.9249   -4.8890 H       1  UNL1        0.0621
     44 H          -3.6556    5.0649   -6.4852 H       1  UNL1        0.0618
     45 H          -5.1040    3.1059   -6.8785 H       1  UNL1        0.0621
     46 H          -5.0410    0.3865   -6.5256 H       1  UNL1        0.0511
     47 H          -6.1800    1.0845   -5.3490 H       1  UNL1        0.0511
     48 H          -4.1407   -0.2900   -3.9095 H       1  UNL1        0.1464
     49 H          -5.6887   -1.7978   -6.6682 H       1  UNL1        0.0695
     50 H          -7.0797   -3.8801   -6.4917 H       1  UNL1        0.1376
     51 H          -7.6837   -4.6598   -4.3766 H       1  UNL1        0.4522
     52 H          -7.0754   -3.6889   -2.3435 H       1  UNL1        0.1376
     53 H          -5.6794   -1.5916   -2.3739 H       1  UNL1        0.0695
     54 H          -3.0897    1.0986   -3.6397 H       1  UNL1        0.0624
     55 H           1.8492   -0.9651    2.5689 H       1  UNL1        0.0631
     56 H           3.5978   -0.2728    4.4440 H       1  UNL1        0.0638
@<TRIPOS>UNITY_ATOM_ATTR
23 1
charge 1
@<TRIPOS>BOND
     1     1     2    2
     2     2     3   am
     3     3     4    1
     4     4     5   ar
     5     5     6   ar
     6     6     7   ar
     7     7     8   ar
     8     8     9   ar
     9     4     9   ar
    10     9    10    1
    11    10    11    1
    12    11    12    1
    13    12    13    1
    14    13    14   ar
    15    14    15   ar
    16    15    16   ar
    17    16    17   ar
    18    17    18    1
    19    18    19    1
    20    19    20    1
    21    20    21   ar
    22    21    22   ar
    23    22    23   ar
    24    23    24   ar
    25    24    25   ar
    26    20    25   ar
    27    17    26   ar
    28    13    26   ar
    29    11    27   am
    30     8    27    1
    31    27    28    2
    32     2    29    1
    33    29    30   ar
    34    30    31   ar
    35    31    32   ar
    36    32    33    1
    37    32    34   ar
    38    29    34   ar
    39     3    35    1
    40     5    36    1
    41     6    37    1
    42     7    38    1
    43    10    39    1
    44    10    40    1
    45    12    41    1
    46    12    42    1
    47    14    43    1
    48    15    44    1
    49    16    45    1
    50    18    46    1
    51    18    47    1
    52    19    48    1
    53    21    49    1
    54    22    50    1
    55    23    51    1
    56    24    52    1
    57    25    53    1
    58    26    54    1
    59    30    55    1
    60    31    56    1
