REMARK  4 active torsions:
REMARK  status: ('A' for Active; 'I' for Inactive)
REMARK       I    between atoms: C_2  and  N_3 
REMARK    1  A    between atoms: C_2  and  C_17 
REMARK    2  A    between atoms: N_3  and  N_4 
REMARK       I    between atoms: N_4  and  C_5 
REMARK    3  A    between atoms: C_5  and  C_7 
REMARK    4  A    between atoms: C_22  and  O_23 
ROOT
ATOM      1  N   UNL d   1       2.326  -2.517   0.149  0.00  0.00    -0.262 N 
ATOM      2  C   UNL d   1       3.076  -3.677   0.202  0.00  0.00     0.278 C 
ATOM      3  O   UNL d   1       4.312  -3.629   0.241  0.00  0.00    -0.265 OA
ATOM      4  H   UNL d   1       1.308  -2.497   0.167  0.00  0.00     0.190 HD
ENDROOT
BRANCH   1   5
ATOM      5  N   UNL d   1       2.991  -1.278   0.173  0.00  0.00    -0.263 N 
ATOM      6  C   UNL d   1       2.258  -0.109   0.135  0.00  0.00     0.272 C 
ATOM      7  O   UNL d   1       1.029  -0.089   0.186  0.00  0.00    -0.266 OA
ATOM      8  H   UNL d   1       4.006  -1.294   0.062  0.00  0.00     0.190 HD
BRANCH   6   9
ATOM      9  C   UNL d   1       3.027   1.167   0.045  0.00  0.00     0.066 A 
ATOM     10  C   UNL d   1       2.572   2.280   0.771  0.00  0.00     0.020 A 
ATOM     11  C   UNL d   1       3.146   3.540   0.571  0.00  0.00     0.001 A 
ATOM     12  C   UNL d   1       4.237   3.680  -0.284  0.00  0.00     0.003 A 
ATOM     13  C   UNL d   1       4.765   2.558  -0.929  0.00  0.00     0.037 A 
ATOM     14  C   UNL d   1       4.131   1.317  -0.802  0.00  0.00     0.081 A 
BRANCH  14  15
ATOM     15  O   UNL d   1       4.576   0.252  -1.535  0.00  0.00    -0.360 OA
ATOM     16  H   UNL d   1       5.236   0.555  -2.183  0.00  0.00     0.217 HD
ENDBRANCH  14  15
ENDBRANCH   6   9
ENDBRANCH   1   5
BRANCH   2  17
ATOM     17  C   UNL d   1       2.329  -4.915   0.261  0.00  0.00     0.097 A 
ATOM     18  S   UNL d   1       2.875  -6.093   1.368  0.00  0.00    -0.082 SA
ATOM     19  C   UNL d   1       1.649  -7.204   0.926  0.00  0.00     0.017 A 
ATOM     20  C   UNL d   1       1.466  -8.484   1.477  0.00  0.00     0.020 A 
ATOM     21  C   UNL d   1       0.823  -6.696  -0.080  0.00  0.00     0.004 A 
ATOM     22  C   UNL d   1       0.428  -9.281   1.002  0.00  0.00     0.001 A 
ATOM     23  C   UNL d   1      -0.407  -8.817  -0.004  0.00  0.00     0.001 A 
ATOM     24  C   UNL d   1      -0.222  -7.539  -0.549  0.00  0.00     0.014 A 
ATOM     25  C   UNL d   1       1.231  -5.359  -0.450  0.00  0.00     0.068 A 
ATOM     26 CL   UNL d   1       0.434  -4.470  -1.687  0.00  0.00    -0.082 Cl
ENDBRANCH   2  17
TORSDOF 4
