REMARK  10 active torsions:
REMARK  status: ('A' for Active; 'I' for Inactive)
REMARK    1  A    between atoms: O_2  and  C_3 
REMARK    2  A    between atoms: C_6  and  C_7 
REMARK    3  A    between atoms: C_7  and  C_8 
REMARK    4  A    between atoms: C_7  and  N_28 
REMARK    5  A    between atoms: C_8  and  N_9 
REMARK       I    between atoms: N_9  and  C_10 
REMARK    6  A    between atoms: C_10  and  C_12 
REMARK    7  A    between atoms: C_15  and  S_16 
REMARK    8  A    between atoms: S_16  and  C_17 
REMARK    9  A    between atoms: C_17  and  C_18 
REMARK   10  A    between atoms: C_32  and  O_33 
ROOT
ATOM      1  N   UNL d   1       6.367   4.391   2.317  0.00  0.00    -0.354 N 
ATOM      2  C   UNL d   1       6.579   5.641   1.784  0.00  0.00     0.256 C 
ATOM      3  O   UNL d   1       6.241   6.673   2.369  0.00  0.00    -0.268 OA
ATOM      4  H   UNL d   1       6.792   3.610   1.837  0.00  0.00     0.162 HD
ENDROOT
BRANCH   1   5
ATOM      5  C   UNL d   1       5.597   4.158   3.542  0.00  0.00     0.161 C 
BRANCH   5   6
ATOM      6  C   UNL d   1       5.384   2.644   3.930  0.00  0.00     0.237 C 
BRANCH   6   7
ATOM      7  C   UNL d   1       4.543   1.952   2.860  0.00  0.00    -0.023 C 
ATOM      8  C   UNL d   1       5.011   1.758   1.568  0.00  0.00     0.012 C 
ATOM      9  C   UNL d   1       4.166   1.281   0.556  0.00  0.00     0.040 C 
ATOM     10  C   UNL d   1       2.904   0.741   0.832  0.00  0.00     0.101 C 
ATOM     11  C   UNL d   1       2.471   0.810   2.158  0.00  0.00     0.102 C 
ATOM     12  C   UNL d   1       3.249   1.492   3.103  0.00  0.00     0.049 C 
BRANCH  10  13
ATOM     13  O   UNL d   1       2.427   0.005  -0.219  0.00  0.00    -0.353 OA
ATOM     14  C   UNL d   1       1.099   0.154  -0.704  0.00  0.00     0.210 C 
ENDBRANCH  10  13
BRANCH  11  15
ATOM     15  O   UNL d   1       1.413   0.259   2.834  0.00  0.00    -0.353 OA
ATOM     16  C   UNL d   1       0.439  -0.298   2.007  0.00  0.00     0.210 C 
ENDBRANCH  11  15
ENDBRANCH   6   7
BRANCH   6  17
ATOM     17  N   UNL d   1       4.763   2.506   5.341  0.00  0.00    -0.069 N 
ATOM     18  C   UNL d   1       4.652   1.055   5.798  0.00  0.00     0.270 C 
ATOM     19  C   UNL d   1       5.482   3.266   6.419  0.00  0.00     0.270 C 
ATOM     20  H   UNL d   1       3.818   2.911   5.277  0.00  0.00     0.279 HD
ENDBRANCH   6  17
ENDBRANCH   5   6
ENDBRANCH   1   5
BRANCH   2  21
ATOM     21  C   UNL d   1       7.292   5.710   0.494  0.00  0.00     0.090 A 
ATOM     22  C   UNL d   1       8.315   6.606   0.283  0.00  0.00     0.139 A 
ATOM     23  N   UNL d   1       8.995   6.729  -0.892  0.00  0.00    -0.234 NA
ATOM     24  C   UNL d   1       8.615   5.923  -1.896  0.00  0.00     0.189 A 
ATOM     25  N   UNL d   1       7.642   5.019  -1.787  0.00  0.00    -0.210 NA
ATOM     26  C   UNL d   1       6.991   4.964  -0.618  0.00  0.00     0.146 A 
ATOM     27 CL   UNL d   1       5.652   3.917  -0.746  0.00  0.00    -0.061 Cl
BRANCH  24  28
ATOM     28  S   UNL d   1       9.304   6.005  -3.515  0.00  0.00    -0.086 SA
BRANCH  28  29
ATOM     29  C   UNL d   1      10.600   7.267  -3.366  0.00  0.00     0.121 C 
BRANCH  29  30
ATOM     30  C   UNL d   1      11.351   7.431  -4.678  0.00  0.00    -0.048 A 
ATOM     31  C   UNL d   1      11.882   6.317  -5.358  0.00  0.00     0.011 A 
ATOM     32  C   UNL d   1      12.659   6.481  -6.505  0.00  0.00     0.043 A 
ATOM     33  C   UNL d   1      12.856   7.755  -7.018  0.00  0.00     0.116 A 
ATOM     34  F   UNL d   1      13.548   7.907  -8.154  0.00  0.00    -0.206 F 
ATOM     35  C   UNL d   1      12.333   8.871  -6.375  0.00  0.00     0.043 A 
ATOM     36  C   UNL d   1      11.591   8.712  -5.202  0.00  0.00     0.011 A 
ENDBRANCH  29  30
ENDBRANCH  28  29
ENDBRANCH  24  28
ENDBRANCH   2  21
TORSDOF 10
