@<TRIPOS>MOLECULE
*****
 58 60 0 0 0
SMALL
GASTEIGER

@<TRIPOS>ATOM
      1 O           1.2171    0.2602    0.1226 O.2     1  UNL1       -0.2754
      2 C           2.4309    0.0688    0.0661 C.2     1  UNL1        0.2186
      3 C           3.0271   -1.2756   -0.3011 C.3     1  UNL1        0.0274
      4 C           2.0720   -2.4106   -0.6084 C.3     1  UNL1       -0.0104
      5 C           2.8616   -3.6851   -0.9410 C.3     1  UNL1        0.0901
      6 O           1.9126   -4.7215   -1.1942 O.3     1  UNL1       -0.4905
      7 C           2.4449   -5.9128   -1.6111 C.ar    1  UNL1        0.1388
      8 C           3.4670   -6.5600   -0.9103 C.ar    1  UNL1       -0.0171
      9 C           3.9117   -7.8197   -1.3255 C.ar    1  UNL1       -0.0398
     10 C           3.3309   -8.4340   -2.4343 C.ar    1  UNL1        0.0426
     11 CL          3.8865   -9.9831   -2.9372 Cl      1  UNL1       -0.0835
     12 C           2.3023   -7.8069   -3.1314 C.ar    1  UNL1       -0.0215
     13 C           1.8551   -6.5518   -2.7122 C.ar    1  UNL1        0.0839
     14 CL          0.5702   -5.8047   -3.5939 Cl      1  UNL1       -0.0797
     15 N           3.3295    1.1159    0.3518 N.am    1  UNL1       -0.2667
     16 C           4.7359    1.1924    0.3749 C.2     1  UNL1        0.1530
     17 S           5.8211   -0.0619    0.0279 S.2     1  UNL1       -0.0170
     18 N           5.2602    2.4377    0.7293 N.am    1  UNL1       -0.2455
     19 N           6.6872    2.5419    0.7910 N.am    1  UNL1       -0.2349
     20 C           7.3291    3.7247    1.0616 C.2     1  UNL1        0.2341
     21 O           6.6971    4.7342    1.3636 O.2     1  UNL1       -0.2739
     22 C           8.8726    3.6532    1.0613 C.3     1  UNL1        0.0609
     23 C           9.4540    5.0627    1.0153 C.3     1  UNL1        0.0367
     24 C           9.4328    5.3371   -0.4542 C.2     1  UNL1        0.2166
     25 O           9.3541    6.4717   -0.9057 O.2     1  UNL1       -0.2756
     26 N           9.5643    4.1183   -1.1156 N.am    1  UNL1       -0.2964
     27 C           9.7660    3.9024   -2.5496 C.3     1  UNL1        0.0397
     28 C           9.9451    5.1597   -3.3560 C.ar    1  UNL1       -0.0301
     29 C           9.0372    5.5355   -4.3520 C.ar    1  UNL1       -0.0571
     30 C           9.2343    6.7238   -5.0589 C.ar    1  UNL1       -0.0615
     31 C          10.2636    7.5951   -4.6984 C.ar    1  UNL1       -0.0617
     32 C          11.1484    7.2477   -3.6843 C.ar    1  UNL1       -0.0615
     33 C          11.0187    6.0156   -3.0548 C.ar    1  UNL1       -0.0571
     34 C           9.4801    3.0158   -0.1871 C.3     1  UNL1        0.0266
     35 H           3.6333   -1.5982    0.5515 H       1  UNL1        0.0359
     36 H           3.6332   -1.1228   -1.1994 H       1  UNL1        0.0359
     37 H           1.4202   -2.1457   -1.4480 H       1  UNL1        0.0302
     38 H           1.4155   -2.5980    0.2483 H       1  UNL1        0.0302
     39 H           3.5054   -3.9458   -0.0925 H       1  UNL1        0.0696
     40 H           3.4917   -3.5215   -1.8263 H       1  UNL1        0.0696
     41 H           3.9050   -6.1203   -0.0196 H       1  UNL1        0.0655
     42 H           4.7007   -8.3234   -0.7719 H       1  UNL1        0.0633
     43 H           1.8469   -8.2919   -3.9902 H       1  UNL1        0.0648
     44 H           2.8103    1.9567    0.5826 H       1  UNL1        0.1565
     45 H           4.7389    3.2889    0.9460 H       1  UNL1        0.1718
     46 H           7.1805    1.6846    0.5468 H       1  UNL1        0.1728
     47 H           9.1870    3.1366    1.9748 H       1  UNL1        0.0415
     48 H          10.4995    5.1026    1.3459 H       1  UNL1        0.0366
     49 H           8.8736    5.8242    1.5382 H       1  UNL1        0.0366
     50 H           8.9263    3.3029   -2.9219 H       1  UNL1        0.0514
     51 H          10.6694    3.2898   -2.6766 H       1  UNL1        0.0514
     52 H           8.1593    4.9302   -4.5652 H       1  UNL1        0.0621
     53 H           8.5712    6.9857   -5.8782 H       1  UNL1        0.0618
     54 H          10.3620    8.5577   -5.1904 H       1  UNL1        0.0618
     55 H          11.9187    7.9384   -3.3553 H       1  UNL1        0.0618
     56 H          11.6810    5.7750   -2.2257 H       1  UNL1        0.0621
     57 H          10.4969    2.6438   -0.0012 H       1  UNL1        0.0472
     58 H           8.8858    2.2052   -0.6150 H       1  UNL1        0.0472
@<TRIPOS>BOND
     1     1     2    2
     2     2     3    1
     3     3     4    1
     4     4     5    1
     5     5     6    1
     6     6     7    1
     7     7     8   ar
     8     8     9   ar
     9     9    10   ar
    10    10    11    1
    11    10    12   ar
    12    12    13   ar
    13     7    13   ar
    14    13    14    1
    15     2    15   am
    16    15    16    1
    17    16    17    2
    18    16    18    1
    19    18    19    1
    20    19    20   am
    21    20    21    2
    22    20    22    1
    23    22    23    1
    24    23    24    1
    25    24    25    2
    26    24    26   am
    27    26    27    1
    28    27    28    1
    29    28    29   ar
    30    29    30   ar
    31    30    31   ar
    32    31    32   ar
    33    32    33   ar
    34    28    33   ar
    35    26    34    1
    36    22    34    1
    37     3    35    1
    38     3    36    1
    39     4    37    1
    40     4    38    1
    41     5    39    1
    42     5    40    1
    43     8    41    1
    44     9    42    1
    45    12    43    1
    46    15    44    1
    47    18    45    1
    48    19    46    1
    49    22    47    1
    50    23    48    1
    51    23    49    1
    52    27    50    1
    53    27    51    1
    54    29    52    1
    55    30    53    1
    56    31    54    1
    57    32    55    1
    58    33    56    1
    59    34    57    1
    60    34    58    1
