REMARK  8 active torsions:
REMARK  status: ('A' for Active; 'I' for Inactive)
REMARK    1  A    between atoms: C_2  and  O_3 
REMARK    2  A    between atoms: O_3  and  C_4 
REMARK    3  A    between atoms: C_7  and  C_8 
REMARK       I    between atoms: C_8  and  N_10 
REMARK    4  A    between atoms: N_10  and  N_11 
REMARK       I    between atoms: N_11  and  C_12 
REMARK    5  A    between atoms: C_12  and  C_14 
REMARK    6  A    between atoms: C_14  and  C_15 
REMARK    7  A    between atoms: C_15  and  N_16 
REMARK    8  A    between atoms: N_16  and  C_17 
ROOT
ATOM      1  N   UNL d   1      10.913  -0.484   2.227  0.00  0.00    -0.267 N 
ATOM      2  C   UNL d   1      11.690   0.664   2.139  0.00  0.00     0.237 C 
ATOM      3  O   UNL d   1      11.178   1.764   1.919  0.00  0.00    -0.272 OA
ATOM      4  H   UNL d   1      11.270  -1.422   2.404  0.00  0.00     0.190 HD
ENDROOT
BRANCH   1   5
ATOM      5  N   UNL d   1       9.501  -0.359   2.062  0.00  0.00    -0.263 N 
ATOM      6  C   UNL d   1       8.673  -1.475   2.140  0.00  0.00     0.270 C 
ATOM      7  O   UNL d   1       9.128  -2.600   2.373  0.00  0.00    -0.266 OA
ATOM      8  H   UNL d   1       9.182   0.582   1.846  0.00  0.00     0.190 HD
BRANCH   6   9
ATOM      9  C   UNL d   1       7.189  -1.293   1.894  0.00  0.00     0.033 A 
ATOM     10  C   UNL d   1       6.338  -2.415   1.902  0.00  0.00     0.020 A 
ATOM     11  C   UNL d   1       4.976  -2.301   1.555  0.00  0.00     0.038 A 
ATOM     12  C   UNL d   1       4.419  -1.057   1.254  0.00  0.00     0.068 A 
ATOM     13  C   UNL d   1       5.241   0.067   1.300  0.00  0.00     0.038 A 
ATOM     14  C   UNL d   1       6.610  -0.049   1.611  0.00  0.00     0.020 A 
BRANCH  12  15
ATOM     15  O   UNL d   1       3.066  -1.023   1.038  0.00  0.00    -0.352 OA
BRANCH  15  16
ATOM     16  C   UNL d   1       2.600  -0.071   0.076  0.00  0.00     0.171 C 
ATOM     17  C   UNL d   1       1.077  -0.062   0.081  0.00  0.00     0.034 C 
ENDBRANCH  15  16
ENDBRANCH  12  15
ENDBRANCH   6   9
ENDBRANCH   1   5
BRANCH   2  18
ATOM     18  C   UNL d   1      13.197   0.479   2.336  0.00  0.00     0.124 C 
BRANCH  18  19
ATOM     19  C   UNL d   1      13.931   1.828   2.220  0.00  0.00     0.129 C 
BRANCH  19  20
ATOM     20  N   UNL d   1      15.385   1.687   2.278  0.00  0.00    -0.389 N 
ATOM     21  H   UNL d   1      15.794   0.799   2.551  0.00  0.00     0.159 HD
BRANCH  20  22
ATOM     22  C   UNL d   1      16.235   2.787   2.352  0.00  0.00     0.027 A 
ATOM     23  C   UNL d   1      17.492   2.717   1.734  0.00  0.00     0.029 A 
ATOM     24  C   UNL d   1      18.404   3.779   1.804  0.00  0.00     0.002 A 
ATOM     25  C   UNL d   1      18.050   4.959   2.450  0.00  0.00     0.000 A 
ATOM     26  C   UNL d   1      16.799   5.060   3.049  0.00  0.00     0.002 A 
ATOM     27  C   UNL d   1      15.901   3.984   2.996  0.00  0.00     0.029 A 
ENDBRANCH  20  22
ENDBRANCH  19  20
ENDBRANCH  18  19
ENDBRANCH   2  18
TORSDOF 8
