@<TRIPOS>MOLECULE
*****
 70 72 0 0 0
SMALL
GASTEIGER

@<TRIPOS>ATOM
      1 C           0.9531   -0.0929   -0.0438 C.3     1  UNL1       -0.0653
      2 C           2.4709   -0.0725   -0.0425 C.3     1  UNL1       -0.0559
      3 C           2.9906    1.3617    0.0632 C.3     1  UNL1       -0.0529
      4 C           4.5113    1.3861    0.0646 C.3     1  UNL1       -0.0448
      5 C           5.0829    2.8068    0.1729 C.3     1  UNL1        0.0243
      6 C           6.6011    2.7270    0.1710 C.2     1  UNL1        0.2172
      7 O           7.1696    1.6480    0.0610 O.2     1  UNL1       -0.2755
      8 N           7.2567    3.9443    0.3293 N.am    1  UNL1       -0.2854
      9 C           8.6669    4.0359    0.2774 C.ar    1  UNL1        0.0351
     10 C           9.3751    4.9187    1.0857 C.ar    1  UNL1       -0.0404
     11 C          10.7685    5.0052    0.9595 C.ar    1  UNL1       -0.0583
     12 C          11.4521    4.2006    0.0390 C.ar    1  UNL1       -0.0407
     13 C          10.7516    3.3328   -0.7953 C.ar    1  UNL1        0.0293
     14 N          11.4015    2.5525   -1.7249 N.pl3   1  UNL1       -0.3353
     15 C          10.6566    1.7333   -2.6782 C.3     1  UNL1        0.0861
     16 C          11.6120    1.1528   -3.7001 C.2     1  UNL1        0.2343
     17 O          12.8113    1.3352   -3.5999 O.2     1  UNL1       -0.2738
     18 N          10.9661    0.4816   -4.7561 N.am    1  UNL1       -0.2842
     19 C          11.7256   -0.2042   -5.7102 C.ar    1  UNL1        0.0335
     20 C          11.4019   -0.4084   -7.0537 C.ar    1  UNL1       -0.0398
     21 C          12.2882   -1.1478   -7.9142 C.ar    1  UNL1       -0.0479
     22 C          13.4394   -1.7830   -7.4207 C.ar    1  UNL1        0.0373
     23 C          14.5056   -2.4288   -8.3755 C.2     1  UNL1        0.2508
     24 O          14.1362   -2.4335   -9.5617 O.2     1  UNL1       -0.2696
     25 N          15.8173   -2.9750   -8.0348 N.am    1  UNL1       -0.2677
     26 C          16.6133   -3.0047   -6.7541 C.3     1  UNL1        0.0173
     27 C          15.8927   -2.4743   -5.6105 C.3     1  UNL1       -0.0489
     28 C          16.6680   -3.5286   -9.0758 C.ar    1  UNL1        0.0366
     29 C          17.3909   -4.7127   -8.8093 C.ar    1  UNL1       -0.0403
     30 C          18.3822   -5.1816   -9.6655 C.ar    1  UNL1       -0.0600
     31 C          18.6221   -4.5090  -10.8532 C.ar    1  UNL1       -0.0616
     32 C          17.9158   -3.3389  -11.1441 C.ar    1  UNL1       -0.0600
     33 C          16.9496   -2.8414  -10.2560 C.ar    1  UNL1       -0.0403
     34 C          13.4208   -1.7732   -6.0387 C.ar    1  UNL1       -0.0479
     35 C          12.7931   -0.8728   -5.2198 C.ar    1  UNL1       -0.0398
     36 C           9.3673    3.2604   -0.6421 C.ar    1  UNL1       -0.0196
     37 H           0.5841   -1.1198   -0.1197 H       1  UNL1        0.0230
     38 H           0.5596    0.4771   -0.8914 H       1  UNL1        0.0230
     39 H           0.5597    0.3463    0.8783 H       1  UNL1        0.0230
     40 H           2.8422   -0.5419   -0.9616 H       1  UNL1        0.0263
     41 H           2.8424   -0.6716    0.7979 H       1  UNL1        0.0263
     42 H           2.6149    1.8224    0.9839 H       1  UNL1        0.0265
     43 H           2.6141    1.9528   -0.7794 H       1  UNL1        0.0265
     44 H           4.8815    0.9089   -0.8530 H       1  UNL1        0.0270
     45 H           4.8818    0.7786    0.9013 H       1  UNL1        0.0270
     46 H           4.7433    3.2802    1.0998 H       1  UNL1        0.0358
     47 H           4.7496    3.4115   -0.6777 H       1  UNL1        0.0358
     48 H           6.7411    4.7690    0.6027 H       1  UNL1        0.1548
     49 H           8.8777    5.4906    1.8618 H       1  UNL1        0.0636
     50 H          11.3319    5.6986    1.5793 H       1  UNL1        0.0619
     51 H          12.5365    4.2617   -0.0230 H       1  UNL1        0.0636
     52 H          12.3978    2.6634   -1.9025 H       1  UNL1        0.1466
     53 H           9.9348    2.3376   -3.2379 H       1  UNL1        0.0557
     54 H          10.1545    0.9124   -2.1563 H       1  UNL1        0.0557
     55 H           9.9670    0.3301   -4.7538 H       1  UNL1        0.1549
     56 H          10.5186    0.0570   -7.4747 H       1  UNL1        0.0636
     57 H          12.0292   -1.2574   -8.9675 H       1  UNL1        0.0626
     58 H          17.5527   -2.4599   -6.8718 H       1  UNL1        0.0466
     59 H          16.8130   -4.0464   -6.4805 H       1  UNL1        0.0466
     60 H          15.6432   -1.4401   -5.8722 H       1  UNL1        0.0245
     61 H          16.2608   -2.4793   -4.5928 H       1  UNL1        0.0245
     62 H          15.1460   -3.2708   -5.6094 H       1  UNL1        0.0245
     63 H          17.1807   -5.3095   -7.9262 H       1  UNL1        0.0636
     64 H          18.9526   -6.0673   -9.3987 H       1  UNL1        0.0618
     65 H          19.3541   -4.9011  -11.5533 H       1  UNL1        0.0618
     66 H          18.1328   -2.7994  -12.0622 H       1  UNL1        0.0618
     67 H          16.4657   -1.8946  -10.4764 H       1  UNL1        0.0636
     68 H          13.7905   -2.5048   -5.3668 H       1  UNL1        0.0626
     69 H          13.0723   -0.8824   -4.1662 H       1  UNL1        0.0636
     70 H           8.8003    2.6006   -1.2881 H       1  UNL1        0.0655
@<TRIPOS>BOND
     1     1     2    1
     2     2     3    1
     3     3     4    1
     4     4     5    1
     5     5     6    1
     6     6     7    2
     7     6     8   am
     8     8     9    1
     9     9    10   ar
    10    10    11   ar
    11    11    12   ar
    12    12    13   ar
    13    13    14    1
    14    14    15    1
    15    15    16    1
    16    16    17    2
    17    16    18   am
    18    18    19    1
    19    19    20   ar
    20    20    21   ar
    21    21    22   ar
    22    22    23    1
    23    23    24    2
    24    23    25   am
    25    25    26    1
    26    26    27    1
    27    25    28    1
    28    28    29   ar
    29    29    30   ar
    30    30    31   ar
    31    31    32   ar
    32    32    33   ar
    33    28    33   ar
    34    22    34   ar
    35    34    35   ar
    36    19    35   ar
    37    13    36   ar
    38     9    36   ar
    39     1    37    1
    40     1    38    1
    41     1    39    1
    42     2    40    1
    43     2    41    1
    44     3    42    1
    45     3    43    1
    46     4    44    1
    47     4    45    1
    48     5    46    1
    49     5    47    1
    50     8    48    1
    51    10    49    1
    52    11    50    1
    53    12    51    1
    54    14    52    1
    55    15    53    1
    56    15    54    1
    57    18    55    1
    58    20    56    1
    59    21    57    1
    60    26    58    1
    61    26    59    1
    62    27    60    1
    63    27    61    1
    64    27    62    1
    65    29    63    1
    66    30    64    1
    67    31    65    1
    68    32    66    1
    69    33    67    1
    70    34    68    1
    71    35    69    1
    72    36    70    1
