REMARK  7 active torsions:
REMARK  status: ('A' for Active; 'I' for Inactive)
REMARK    1  A    between atoms: C_5  and  C_4 
REMARK    2  A    between atoms: C_6  and  C_7 
REMARK       I    between atoms: C_7  and  N_9 
REMARK    3  A    between atoms: N_9  and  C_10 
REMARK    4  A    between atoms: C_11  and  C_10 
REMARK    5  A    between atoms: C_11  and  C_13 
REMARK    6  A    between atoms: C_11  and  O_12 
REMARK    7  A    between atoms: C_16  and  N_17 
ROOT
ATOM      1  C   UNL d   1       8.900  -4.002   4.599  0.00  0.00     0.223 C 
ATOM      2  O   UNL d   1       8.341  -2.965   4.253  0.00  0.00    -0.273 OA
ATOM      3  N   UNL d   1       8.218  -5.253   4.574  0.00  0.00    -0.358 N 
ATOM      4  H   UNL d   1       8.727  -6.118   4.694  0.00  0.00     0.162 HD
ENDROOT
BRANCH   3   5
ATOM      5  C   UNL d   1       6.960  -5.183   3.831  0.00  0.00     0.159 C 
BRANCH   5   6
ATOM      6  C   UNL d   1       5.576  -5.889   4.011  0.00  0.00     0.169 C 
BRANCH   6   7
ATOM      7  C   UNL d   1       4.422  -4.889   4.331  0.00  0.00    -0.028 C 
ATOM      8  C   UNL d   1       4.640  -3.502   4.528  0.00  0.00     0.012 C 
ATOM      9  C   UNL d   1       3.678  -2.649   5.045  0.00  0.00     0.037 C 
ATOM     10  C   UNL d   1       2.386  -3.121   5.203  0.00  0.00     0.102 C 
ATOM     11  C   UNL d   1       2.086  -4.462   4.925  0.00  0.00     0.037 C 
ATOM     12  C   UNL d   1       3.103  -5.343   4.504  0.00  0.00     0.012 C 
BRANCH  10  13
ATOM     13  N   UNL d   1       1.347  -2.161   5.577  0.00  0.00    -0.116 N 
ATOM     14  O   UNL d   1       1.684  -0.991   5.782  0.00  0.00    -0.532 OA
ATOM     15  O   UNL d   1       0.177  -2.580   5.637  0.00  0.00    -0.532 OA
ENDBRANCH  10  13
ENDBRANCH   6   7
BRANCH   6  16
ATOM     16  O   UNL d   1       5.239  -6.536   2.770  0.00  0.00    -0.389 OA
ATOM     17  H   UNL d   1       5.077  -5.834   2.112  0.00  0.00     0.210 HD
ENDBRANCH   6  16
ENDBRANCH   5   6
ENDBRANCH   3   5
BRANCH   1  18
ATOM     18  C   UNL d   1      10.335  -3.846   4.970  0.00  0.00     0.094 A 
ATOM     19  C   UNL d   1      11.312  -4.926   5.327  0.00  0.00     0.030 A 
ATOM     20  C   UNL d   1      10.827  -3.953   6.408  0.00  0.00    -0.027 A 
ATOM     21  C   UNL d   1       9.962  -4.544   7.492  0.00  0.00     0.016 C 
ATOM     22  C   UNL d   1      11.658  -2.787   6.917  0.00  0.00     0.016 C 
BRANCH  19  23
ATOM     23  C   UNL d   1      12.705  -4.938   4.816  0.00  0.00    -0.019 C 
ATOM     24  C   UNL d   1      13.817  -5.205   5.539  0.00  0.00    -0.091 C 
ATOM     25  C   UNL d   1      13.776  -5.325   7.033  0.00  0.00     0.042 C 
ATOM     26  C   UNL d   1      15.161  -5.460   4.907  0.00  0.00     0.042 C 
ENDBRANCH  19  23
ENDBRANCH   1  18
TORSDOF 7
