REMARK  7 active torsions:
REMARK  status: ('A' for Active; 'I' for Inactive)
REMARK    1  A    between atoms: C_2  and  C_4 
REMARK    2  A    between atoms: C_2  and  O_3 
REMARK    3  A    between atoms: C_4  and  N_5 
REMARK       I    between atoms: N_5  and  C_6 
REMARK    4  A    between atoms: C_6  and  C_8 
REMARK       I    between atoms: C_8  and  N_10 
REMARK    5  A    between atoms: N_10  and  C_11 
REMARK    6  A    between atoms: C_15  and  C_16 
REMARK       I    between atoms: C_16  and  N_18 
REMARK    7  A    between atoms: N_18  and  C_19 
ROOT
ATOM      1  C   UNL d   1       8.920   2.192  -3.199  0.00  0.00     0.036 A 
ATOM      2  C   UNL d   1       9.629   3.332  -3.589  0.00  0.00     0.029 A 
ATOM      3  C   UNL d   1      11.022   3.278  -3.737  0.00  0.00     0.003 A 
ATOM      4  C   UNL d   1      11.708   2.090  -3.482  0.00  0.00     0.017 A 
ATOM      5  C   UNL d   1      11.002   0.936  -3.117  0.00  0.00     0.034 A 
ATOM      6  C   UNL d   1       9.616   1.004  -2.968  0.00  0.00     0.046 A 
ENDROOT
BRANCH   1   7
ATOM      7  N   UNL d   1       7.511   2.204  -3.094  0.00  0.00    -0.319 N 
ATOM      8  C   UNL d   1       6.809   1.473  -2.139  0.00  0.00     0.313 C 
ATOM      9  O   UNL d   1       7.290   0.812  -1.222  0.00  0.00    -0.262 OA
ATOM     10  H   UNL d   1       6.977   2.819  -3.703  0.00  0.00     0.169 HD
BRANCH   8  11
ATOM     11  C   UNL d   1       5.266   1.552  -2.236  0.00  0.00     0.309 C 
ATOM     12  N   UNL d   1       4.601   0.896  -1.216  0.00  0.00    -0.350 N 
ATOM     13  H   UNL d   1       5.182   0.454  -0.505  0.00  0.00     0.162 HD
ATOM     14  O   UNL d   1       4.736   2.150  -3.166  0.00  0.00    -0.262 OA
BRANCH  12  15
ATOM     15  C   UNL d   1       3.151   0.830  -1.135  0.00  0.00     0.154 C 
BRANCH  15  16
ATOM     16  C   UNL d   1       2.614   0.018   0.058  0.00  0.00     0.132 C 
ATOM     17  C   UNL d   1       3.078  -1.433   0.010  0.00  0.00     0.041 C 
BRANCH  16  18
ATOM     18  O   UNL d   1       1.185   0.043   0.074  0.00  0.00    -0.394 OA
ATOM     19  H   UNL d   1       0.857  -0.395  -0.731  0.00  0.00     0.210 HD
ENDBRANCH  16  18
ENDBRANCH  15  16
ENDBRANCH  12  15
ENDBRANCH   8  11
ENDBRANCH   1   7
BRANCH   5  20
ATOM     20  C   UNL d   1      11.756  -0.336  -2.957  0.00  0.00     0.252 C 
ATOM     21  O   UNL d   1      12.975  -0.310  -3.108  0.00  0.00    -0.268 OA
ATOM     22  N   UNL d   1      11.046  -1.493  -2.668  0.00  0.00    -0.349 N 
ATOM     23  H   UNL d   1      10.046  -1.467  -2.546  0.00  0.00     0.163 HD
BRANCH  22  24
ATOM     24  C   UNL d   1      11.690  -2.800  -2.498  0.00  0.00     0.022 C 
ATOM     25  C   UNL d   1      12.395  -3.214  -3.798  0.00  0.00     0.037 C 
ATOM     26  C   UNL d   1      12.682  -2.745  -1.329  0.00  0.00     0.037 C 
ATOM     27  C   UNL d   1      10.628  -3.870  -2.173  0.00  0.00     0.037 C 
ENDBRANCH  22  24
ENDBRANCH   5  20
TORSDOF 7
