@<TRIPOS>MOLECULE
*****
 70 74 0 0 0
SMALL
GASTEIGER

@<TRIPOS>ATOM
      1 CD1        -3.2641    1.2492   -1.1313 C.3     1  LEU1       -0.0626
      2 CG         -3.7184   -0.1954   -1.3102 C.3     1  LEU1       -0.0446
      3 CD2        -5.0491   -0.1506   -2.0710 C.3     1  LEU1       -0.0626
      4 CB         -2.7079   -1.1152   -2.0469 C.3     1  LEU1       -0.0236
      5 CA         -1.3205   -1.2767   -1.3762 C.3     1  LEU1        0.0996
      6 N          -0.5020   -0.0341   -1.2069 N.am    1  LEU1       -0.3025
      7 C           0.3601    0.4696   -2.1754 C.2     0  UNK0        0.2345
      8 O           0.6131   -0.0442   -3.2723 O.2     0  UNK0       -0.2737
      9 C           0.8633    1.8938   -2.0684 C.3     0  UNK0        0.1075
     10 C           0.8856    2.7452   -0.7906 C.3     0  UNK0        0.0019
     11 C           1.0939    4.1934   -1.1817 C.ar    0  UNK0       -0.0147
     12 C           0.9100    4.6542   -2.4754 C.ar    0  UNK0        0.0456
     13 N           1.1578    5.9949   -2.5005 N.ar    0  UNK0       -0.3560
     14 C           1.5054    6.4263   -1.2460 C.ar    0  UNK0        0.0470
     15 C           1.8282    7.7108   -0.8027 C.ar    0  UNK0       -0.0378
     16 C           2.1660    7.8492    0.5447 C.ar    0  UNK0       -0.0598
     17 C           2.1783    6.7504    1.4035 C.ar    0  UNK0       -0.0611
     18 C           1.8452    5.4750    0.9419 C.ar    0  UNK0       -0.0523
     19 C           1.4943    5.3095   -0.4053 C.ar    0  UNK0        0.0032
     20 C           0.5426    3.8578   -3.6673 C.3     0  UNK0        0.0934
     21 C          -0.6789    4.3193   -4.3980 C.ar    0  UNK0       -0.0091
     22 C          -0.9816    5.5106   -5.0161 C.ar    0  UNK0       -0.0557
     23 C          -2.2435    5.6493   -5.6088 C.ar    0  UNK0       -0.0614
     24 C          -3.1864    4.6048   -5.5927 C.ar    0  UNK0       -0.0610
     25 C          -2.8757    3.3982   -4.9906 C.ar    0  UNK0       -0.0493
     26 C          -1.6186    3.3000   -4.4293 C.ar    0  UNK0        0.0423
     27 C          -1.0694    2.1729   -3.7310 C.2     0  UNK0        0.2484
     28 O          -1.7041    1.1318   -3.6960 O.2     0  UNK0       -0.2699
     29 N           0.1355    2.5616   -3.1839 N.am    0  UNK0       -0.2731
     30 C          -0.4383   -2.3388   -2.0552 C.2     1  LEU1        0.2339
     31 O           0.7199   -2.0876   -2.3487 O.2     1  LEU1       -0.2738
     32 N          -0.8926   -3.6000   -2.2883 N.am    2  THR2       -0.3033
     33 CA          0.0720   -4.5453   -2.9549 C.3     2  THR2        0.0882
     34 C           1.4771   -4.7799   -2.1930 C.2     2  THR2        0.0644
     35 O           1.6302   -5.9284   -1.6813 O.co2   2  THR2       -0.5478
     36 OXT         2.3379   -3.8571   -2.1788 O.co2   2  THR2       -0.5478
     37 CB         -0.6258   -5.9044   -3.1761 C.3     2  THR2        0.0759
     38 CG2        -1.9626   -5.7680   -3.9013 C.3     2  THR2       -0.0368
     39 OG1         0.1022   -6.8216   -4.0016 O.3     2  THR2       -0.3899
     40 HD11       -4.0242    1.8591   -0.6392 H       1  LEU1        0.0232
     41 HD12       -3.0848    1.7184   -2.0938 H       1  LEU1        0.0232
     42 HD13       -2.3775    1.3383   -0.5139 H       1  LEU1        0.0232
     43 HG         -3.9068   -0.6200   -0.3160 H       1  LEU1        0.0296
     44 HD21       -4.9059    0.2479   -3.0821 H       1  LEU1        0.0232
     45 HD22       -5.7611    0.5046   -1.5551 H       1  LEU1        0.0232
     46 HD23       -5.5025   -1.1422   -2.1518 H       1  LEU1        0.0232
     47 HB1        -2.6036   -0.8203   -3.0934 H       1  LEU1        0.0290
     48 HB2        -3.1805   -2.1084   -2.1110 H       1  LEU1        0.0290
     49 HA         -1.5037   -1.6385   -0.3548 H       1  LEU1        0.0594
     50 H          -0.7059    0.5315   -0.4040 H       1  LEU1        0.1495
     51 H           1.9202    1.8168   -2.3718 H       0  UNK0        0.0600
     52 H           1.7126    2.4283   -0.1392 H       0  UNK0        0.0337
     53 H          -0.0365    2.6611   -0.2077 H       0  UNK0        0.0337
     54 H           1.0856    6.5914   -3.3118 H       0  UNK0        0.1657
     55 H           1.8193    8.5648   -1.4720 H       0  UNK0        0.0638
     56 H           2.4273    8.8311    0.9288 H       0  UNK0        0.0618
     57 H           2.4476    6.8794    2.4471 H       0  UNK0        0.0618
     58 H           1.8578    4.6192    1.6084 H       0  UNK0        0.0624
     59 H           1.3881    3.7113   -4.3484 H       0  UNK0        0.0616
     60 H          -0.2672    6.3210   -5.0491 H       0  UNK0        0.0621
     61 H          -2.4992    6.5849   -6.0956 H       0  UNK0        0.0618
     62 H          -4.1577    4.7346   -6.0588 H       0  UNK0        0.0618
     63 H          -3.5703    2.5641   -4.9463 H       0  UNK0        0.0625
     64 H          -1.7443   -3.9371   -1.8688 H       2  THR2        0.1495
     65 HA          0.3003   -4.0965   -3.9358 H       2  THR2        0.0586
     66 HB         -0.8038   -6.3719   -2.2004 H       2  THR2        0.0613
     67 HG21       -1.8081   -5.3762   -4.9132 H       2  THR2        0.0255
     68 HG22       -2.6764   -5.1279   -3.3801 H       2  THR2        0.0255
     69 HG23       -2.4155   -6.7592   -4.0132 H       2  THR2        0.0255
     70 HG1         0.5247   -6.3038   -4.7050 H       2  THR2        0.2099
@<TRIPOS>UNITY_ATOM_ATTR
36 1
charge -1
@<TRIPOS>BOND
     1     1     2    1
     2     2     3    1
     3     2     4    1
     4     6     7   am
     5     7     8    2
     6     9    10    1
     7    10    11    1
     8    11    12   ar
     9    12    13   ar
    10    13    14   ar
    11    14    15   ar
    12    15    16   ar
    13    16    17   ar
    14    17    18   ar
    15    18    19   ar
    16    11    19   ar
    17    14    19   ar
    18    12    20    1
    19    20    21    1
    20    21    22   ar
    21    22    23   ar
    22    23    24   ar
    23    24    25   ar
    24    25    26   ar
    25    21    26   ar
    26    26    27    1
    27    27    28    2
    28    27    29   am
    29    20    29    1
    30     9    29    1
    31     5    30    1
    32    30    31    2
    33    30    32   am
    34    32    33    1
    35    33    34    1
    36    34    35   ar
    37    34    36   ar
    38    33    37    1
    39    37    38    1
    40    37    39    1
    41     5     6    1
    42     5     4    1
    43     9     7    1
    44     1    40    1
    45     1    41    1
    46     1    42    1
    47     2    43    1
    48     3    44    1
    49     3    45    1
    50     3    46    1
    51     4    47    1
    52     4    48    1
    53     5    49    1
    54     6    50    1
    55     9    51    1
    56    10    52    1
    57    10    53    1
    58    13    54    1
    59    15    55    1
    60    16    56    1
    61    17    57    1
    62    18    58    1
    63    20    59    1
    64    22    60    1
    65    23    61    1
    66    24    62    1
    67    25    63    1
    68    32    64    1
    69    33    65    1
    70    37    66    1
    71    38    67    1
    72    38    68    1
    73    38    69    1
    74    39    70    1
