@<TRIPOS>MOLECULE
*****
 57 61 0 0 0
SMALL
GASTEIGER

@<TRIPOS>ATOM
      1 C           0.8062   -0.2408   -0.3460 C.3     1  UNL1       -0.0307
      2 C           2.3110   -0.2800   -0.5065 C.3     1  UNL1        0.0869
      3 O           2.7786   -1.1875    0.4884 O.3     1  UNL1       -0.4902
      4 C           4.1170   -1.1627    0.7288 C.ar    1  UNL1        0.1443
      5 C           4.7225   -2.4341    0.6310 C.ar    1  UNL1       -0.0179
      6 C           6.0844   -2.6127    0.8607 C.ar    1  UNL1       -0.0582
      7 C           6.8569   -1.5093    1.1962 C.ar    1  UNL1       -0.0596
      8 C           6.2662   -0.2315    1.2783 C.ar    1  UNL1       -0.0342
      9 C           4.8780   -0.0384    1.0575 C.ar    1  UNL1        0.0913
     10 N           4.3251    1.2812    1.2287 N.ar    1  UNL1       -0.2767
     11 C           4.8837    2.4968    0.7542 C.ar    1  UNL1        0.1169
     12 N           5.8108    2.5263   -0.2229 N.pl3   1  UNL1       -0.3435
     13 C           4.1867    3.5468    1.3631 C.ar    1  UNL1        0.1036
     14 C           4.0385    4.9303    0.9257 C.2     1  UNL1        0.2496
     15 O           4.7267    5.4068    0.0171 O.2     1  UNL1       -0.2700
     16 N           2.9892    5.6338    1.5061 N.am    1  UNL1       -0.3087
     17 C           2.6848    7.0369    1.2167 C.3     1  UNL1        0.0382
     18 C           1.5063    7.6106    2.0376 C.3     1  UNL1        0.0742
     19 C           0.1395    7.0435    1.6759 C.3     1  UNL1       -0.0231
     20 C          -0.8022    8.1778    2.0087 C.3     1  UNL1       -0.0271
     21 C           0.0256    9.4001    1.6847 C.3     1  UNL1        0.0482
     22 O           1.4044    9.0391    1.8563 O.3     1  UNL1       -0.3750
     23 C           3.5669    2.8826    2.4525 C.ar    1  UNL1        0.1226
     24 N           3.0293    3.2273    3.6437 N.ar    1  UNL1       -0.2412
     25 C           2.0800    2.2727    3.9645 C.ar    1  UNL1        0.0900
     26 C           2.2668    1.0454    4.7243 C.ar    1  UNL1       -0.0342
     27 C           1.1268    0.2143    4.9021 C.ar    1  UNL1       -0.0596
     28 C          -0.0800    0.7788    4.5518 C.ar    1  UNL1       -0.0596
     29 C          -0.0193    1.8266    3.6472 C.ar    1  UNL1       -0.0342
     30 C           1.2573    2.0162    3.0979 C.ar    1  UNL1        0.0916
     31 N           1.8547    1.2684    2.0407 N.ar    1  UNL1       -0.2255
     32 C           3.1394    1.7211    1.8381 C.ar    1  UNL1        0.1666
     33 H           0.3898    0.6686   -0.7843 H       1  UNL1        0.0262
     34 H           0.5159   -0.2911    0.7093 H       1  UNL1        0.0262
     35 H           0.3632   -1.1156   -0.8240 H       1  UNL1        0.0262
     36 H           2.6979    0.7328   -0.4057 H       1  UNL1        0.0694
     37 H           2.6012   -0.6208   -1.5045 H       1  UNL1        0.0694
     38 H           4.1173   -3.2967    0.3572 H       1  UNL1        0.0655
     39 H           6.5290   -3.6040    0.7824 H       1  UNL1        0.0619
     40 H           7.9165   -1.6501    1.4075 H       1  UNL1        0.0618
     41 H           6.9116    0.5955    1.5725 H       1  UNL1        0.0639
     42 H           6.2189    1.6977   -0.6527 H       1  UNL1        0.1437
     43 H           6.0125    3.4061   -0.7099 H       1  UNL1        0.1437
     44 H           2.4576    5.1659    2.2301 H       1  UNL1        0.1491
     45 H           2.4999    7.1602    0.1411 H       1  UNL1        0.0487
     46 H           3.5899    7.6190    1.4287 H       1  UNL1        0.0487
     47 H           1.6991    7.4467    3.1052 H       1  UNL1        0.0611
     48 H          -0.0955    6.1299    2.2296 H       1  UNL1        0.0291
     49 H           0.0763    6.8204    0.6052 H       1  UNL1        0.0291
     50 H          -1.0539    8.1661    3.0758 H       1  UNL1        0.0288
     51 H          -1.7404    8.1459    1.4455 H       1  UNL1        0.0288
     52 H          -0.2230   10.2518    2.3269 H       1  UNL1        0.0560
     53 H          -0.1121    9.7071    0.6427 H       1  UNL1        0.0560
     54 H           3.2571    0.6792    4.9318 H       1  UNL1        0.0639
     55 H           1.1985   -0.7612    5.3700 H       1  UNL1        0.0618
     56 H          -1.0106    0.5201    5.0646 H       1  UNL1        0.0618
     57 H          -0.5962    2.7273    3.9551 H       1  UNL1        0.0639
@<TRIPOS>BOND
     1     1     2    1
     2     2     3    1
     3     3     4    1
     4     4     5   ar
     5     5     6   ar
     6     6     7   ar
     7     7     8   ar
     8     8     9   ar
     9     4     9   ar
    10     9    10    1
    11    10    11   ar
    12    11    12    1
    13    11    13   ar
    14    13    14    1
    15    14    15    2
    16    14    16   am
    17    16    17    1
    18    17    18    1
    19    18    19    1
    20    19    20    1
    21    20    21    1
    22    21    22    1
    23    18    22    1
    24    13    23   ar
    25    23    24   ar
    26    24    25   ar
    27    25    26   ar
    28    26    27   ar
    29    27    28   ar
    30    28    29   ar
    31    29    30   ar
    32    25    30   ar
    33    30    31   ar
    34    31    32   ar
    35    23    32   ar
    36    10    32   ar
    37     1    33    1
    38     1    34    1
    39     1    35    1
    40     2    36    1
    41     2    37    1
    42     5    38    1
    43     6    39    1
    44     7    40    1
    45     8    41    1
    46    12    42    1
    47    12    43    1
    48    16    44    1
    49    17    45    1
    50    17    46    1
    51    18    47    1
    52    19    48    1
    53    19    49    1
    54    20    50    1
    55    20    51    1
    56    21    52    1
    57    21    53    1
    58    26    54    1
    59    27    55    1
    60    28    56    1
    61    29    57    1
