@<TRIPOS>MOLECULE
*****
 62 64 0 0 0
SMALL
GASTEIGER

@<TRIPOS>ATOM
      1 C          13.4439   -2.9547   -6.9162 C.3     1  UNL1        0.0788
      2 O          13.3918   -4.3704   -6.7620 O.3     1  UNL1       -0.4950
      3 C          12.1738   -4.8378   -6.3526 C.ar    1  UNL1        0.1243
      4 C          12.1865   -5.9356   -5.4589 C.ar    1  UNL1        0.0218
      5 C          11.0129   -6.5732   -5.0742 C.ar    1  UNL1        0.1243
      6 O          11.0788   -7.7140   -4.3222 O.3     1  UNL1       -0.4950
      7 C           9.8499   -8.4384   -4.1371 C.3     1  UNL1        0.0788
      8 C           9.8439   -6.0105   -5.5137 C.ar    1  UNL1       -0.0061
      9 C           9.8295   -4.9187   -6.4314 C.ar    1  UNL1        0.0630
     10 C           8.5333   -4.5197   -6.9432 C.2     1  UNL1        0.3408
     11 O           7.7329   -5.2727   -6.3922 O.2     1  UNL1       -0.2483
     12 N           8.3213   -3.5510   -7.9095 N.am    1  UNL1        0.0006
     13 C           7.1276   -3.2247   -8.3579 C.2     1  UNL1        0.3842
     14 N           5.8820   -3.6922   -7.9703 N.pl3   1  UNL1       -0.2745
     15 C           5.6624   -4.7927   -7.0711 C.3     1  UNL1        0.0906
     16 C           4.3007   -5.3435   -6.7791 C.3     1  UNL1        0.0891
     17 C           3.5840   -5.6816   -8.0558 C.3     1  UNL1       -0.0215
     18 C           3.9851   -7.1132   -8.3129 C.3     1  UNL1       -0.0270
     19 C           4.1381   -7.6869   -6.9245 C.3     1  UNL1        0.0482
     20 O           4.4862   -6.5970   -6.0625 O.3     1  UNL1       -0.3734
     21 N           7.0346   -2.2975   -9.4086 N.pl3   1  UNL1       -0.2450
     22 C           5.8848   -1.6538   -9.9356 C.ar    1  UNL1        0.1001
     23 C           5.6964   -1.4145  -11.2993 C.ar    1  UNL1       -0.0232
     24 C           4.4750   -0.8962  -11.7736 C.ar    1  UNL1       -0.0582
     25 C           3.4055   -0.6773  -10.9006 C.ar    1  UNL1       -0.0581
     26 C           3.5754   -0.8831   -9.5312 C.ar    1  UNL1       -0.0415
     27 C           2.4488   -0.6498   -8.5386 C.3     1  UNL1       -0.0214
     28 C           1.2330   -1.5243   -8.8589 C.3     1  UNL1       -0.0586
     29 C           2.8739   -0.9158   -7.0844 C.3     1  UNL1       -0.0586
     30 C           4.8358   -1.3039   -9.0877 C.ar    1  UNL1       -0.0198
     31 C          10.9875   -4.3390   -6.8698 C.ar    1  UNL1       -0.0061
     32 H          14.4422   -2.7088   -7.2819 H       1  UNL1        0.0660
     33 H          13.2923   -2.4687   -5.9474 H       1  UNL1        0.0660
     34 H          12.7332   -2.5661   -7.6536 H       1  UNL1        0.0660
     35 H          13.1325   -6.2940   -5.0695 H       1  UNL1        0.0691
     36 H          10.0768   -9.3876   -3.6415 H       1  UNL1        0.0660
     37 H           9.3570   -8.6833   -5.0885 H       1  UNL1        0.0660
     38 H           9.1659   -7.8836   -3.4840 H       1  UNL1        0.0660
     39 H           8.9023   -6.4405   -5.1735 H       1  UNL1        0.0662
     40 H           5.1131   -3.4988   -8.5914 H       1  UNL1        0.2578
     41 H           5.9924   -4.4440   -6.0859 H       1  UNL1        0.0681
     42 H           6.1889   -5.6465   -7.5162 H       1  UNL1        0.0681
     43 H           3.7682   -4.6570   -6.1175 H       1  UNL1        0.0627
     44 H           3.8499   -5.0347   -8.8939 H       1  UNL1        0.0292
     45 H           2.5130   -5.5850   -7.8777 H       1  UNL1        0.0292
     46 H           4.9514   -7.1529   -8.8331 H       1  UNL1        0.0288
     47 H           3.2552   -7.6466   -8.9225 H       1  UNL1        0.0288
     48 H           4.8970   -8.4778   -6.8795 H       1  UNL1        0.0560
     49 H           3.1945   -8.0965   -6.5559 H       1  UNL1        0.0560
     50 H           7.9070   -1.8667   -9.6905 H       1  UNL1        0.2646
     51 H           6.4685   -1.6617  -12.0221 H       1  UNL1        0.0652
     52 H           4.3423   -0.6790  -12.8321 H       1  UNL1        0.0619
     53 H           2.4479   -0.3428  -11.2975 H       1  UNL1        0.0620
     54 H           2.1633    0.4067   -8.6146 H       1  UNL1        0.0343
     55 H           1.4887   -2.5894   -8.8112 H       1  UNL1        0.0235
     56 H           0.8378   -1.3232   -9.8597 H       1  UNL1        0.0235
     57 H           0.4255   -1.3357   -8.1435 H       1  UNL1        0.0235
     58 H           3.1680   -1.9658   -6.9485 H       1  UNL1        0.0235
     59 H           2.0699   -0.7029   -6.3780 H       1  UNL1        0.0235
     60 H           3.7270   -0.2848   -6.8053 H       1  UNL1        0.0235
     61 H           5.0274   -1.4199   -8.0261 H       1  UNL1        0.0655
     62 H          10.9267   -3.5532   -7.6108 H       1  UNL1        0.0662
@<TRIPOS>BOND
     1     1     2    1
     2     2     3    1
     3     3     4   ar
     4     4     5   ar
     5     5     6    1
     6     6     7    1
     7     5     8   ar
     8     8     9   ar
     9     9    10    1
    10    10    11    2
    11    10    12    1
    12    12    13    2
    13    13    14    1
    14    14    15    1
    15    16    17    1
    16    17    18    1
    17    18    19    1
    18    19    20    1
    19    16    20    1
    20    13    21    1
    21    21    22    1
    22    22    23   ar
    23    23    24   ar
    24    24    25   ar
    25    25    26   ar
    26    26    27    1
    27    27    28    1
    28    27    29    1
    29    26    30   ar
    30    22    30   ar
    31     9    31   ar
    32     3    31   ar
    33    16    15    1
    34     1    32    1
    35     1    33    1
    36     1    34    1
    37     4    35    1
    38     7    36    1
    39     7    37    1
    40     7    38    1
    41     8    39    1
    42    14    40    1
    43    15    41    1
    44    15    42    1
    45    16    43    1
    46    17    44    1
    47    17    45    1
    48    18    46    1
    49    18    47    1
    50    19    48    1
    51    19    49    1
    52    21    50    1
    53    23    51    1
    54    24    52    1
    55    25    53    1
    56    27    54    1
    57    28    55    1
    58    28    56    1
    59    28    57    1
    60    29    58    1
    61    29    59    1
    62    29    60    1
    63    30    61    1
    64    31    62    1
