REMARK  7 active torsions:
REMARK  status: ('A' for Active; 'I' for Inactive)
REMARK    1  A    between atoms: C_2  and  C_4 
REMARK    2  A    between atoms: C_7  and  N_8 
REMARK       I    between atoms: N_8  and  C_9 
REMARK       I    between atoms: C_9  and  N_11 
REMARK    3  A    between atoms: N_11  and  C_12 
REMARK    4  A    between atoms: C_15  and  N_16 
REMARK    5  A    between atoms: C_21  and  C_22 
REMARK       I    between atoms: C_22  and  N_24 
REMARK    6  A    between atoms: N_24  and  C_25 
REMARK    7  A    between atoms: C_25  and  C_27 
ROOT
ATOM      1  C   UNL d   1       5.330  -6.143   6.037  0.00  0.00     0.037 A 
ATOM      2  C   UNL d   1       6.359  -7.009   6.374  0.00  0.00     0.032 A 
ATOM      3  C   UNL d   1       6.867  -7.026   7.698  0.00  0.00     0.032 A 
ATOM      4  C   UNL d   1       6.394  -6.189   8.740  0.00  0.00     0.046 A 
ATOM      5  C   UNL d   1       5.325  -5.321   8.384  0.00  0.00     0.060 A 
ATOM      6  C   UNL d   1       4.842  -5.306   7.048  0.00  0.00     0.049 A 
ENDROOT
BRANCH   1   7
ATOM      7  N   UNL d   1       4.739  -6.113   4.726  0.00  0.00    -0.309 N 
ATOM      8  C   UNL d   1       4.431  -4.891   4.141  0.00  0.00     0.325 C 
ATOM      9  N   UNL d   1       3.804  -4.932   2.897  0.00  0.00    -0.309 N 
ATOM     10  O   UNL d   1       4.731  -3.853   4.726  0.00  0.00    -0.247 OA
ATOM     11  H   UNL d   1       3.636  -5.819   2.444  0.00  0.00     0.170 HD
ATOM     12  H   UNL d   1       4.806  -6.938   4.150  0.00  0.00     0.170 HD
BRANCH   9  13
ATOM     13  C   UNL d   1       3.484  -3.750   2.143  0.00  0.00     0.036 A 
ATOM     14  C   UNL d   1       2.957  -3.815   0.845  0.00  0.00     0.030 A 
ATOM     15  C   UNL d   1       2.750  -2.634   0.090  0.00  0.00     0.010 A 
ATOM     16  C   UNL d   1       2.966  -1.366   0.654  0.00  0.00    -0.055 A 
ATOM     17  C   UNL d   1       3.493  -1.319   1.936  0.00  0.00     0.010 A 
ATOM     18  C   UNL d   1       3.719  -2.477   2.659  0.00  0.00     0.030 A 
BRANCH  16  19
ATOM     19  C   UNL d   1       2.500  -0.088  -0.027  0.00  0.00     0.010 C 
ATOM     20  C   UNL d   1       0.966  -0.081  -0.036  0.00  0.00     0.015 C 
ATOM     21  C   UNL d   1       2.988   1.191   0.676  0.00  0.00     0.015 C 
ENDBRANCH  16  19
ENDBRANCH   9  13
ENDBRANCH   1   7
BRANCH   5  22
ATOM     22  C   UNL d   1       4.652  -4.410   9.358  0.00  0.00     0.254 C 
ATOM     23  O   UNL d   1       4.983  -4.390  10.544  0.00  0.00    -0.268 OA
ATOM     24  N   UNL d   1       3.626  -3.568   8.979  0.00  0.00    -0.349 N 
ATOM     25  H   UNL d   1       3.273  -3.512   8.037  0.00  0.00     0.163 HD
BRANCH  24  26
ATOM     26  C   UNL d   1       3.014  -2.710   9.983  0.00  0.00     0.114 C 
ATOM     27  C   UNL d   1       4.056  -1.801  10.666  0.00  0.00     0.037 C 
BRANCH  26  28
ATOM     28  C   UNL d   1       1.883  -1.900   9.372  0.00  0.00    -0.036 A 
ATOM     29  C   UNL d   1       1.964  -0.500   9.273  0.00  0.00     0.009 A 
ATOM     30  C   UNL d   1       0.884   0.258   8.846  0.00  0.00     0.001 A 
ATOM     31  C   UNL d   1      -0.264  -0.378   8.400  0.00  0.00     0.000 A 
ATOM     32  C   UNL d   1      -0.353  -1.770   8.439  0.00  0.00     0.001 A 
ATOM     33  C   UNL d   1       0.709  -2.531   8.936  0.00  0.00     0.009 A 
ENDBRANCH  26  28
ENDBRANCH  24  26
ENDBRANCH   5  22
BRANCH   4  34
ATOM     34  N   UNL d   1       7.010  -6.340   9.979  0.00  0.00    -0.380 N 
ATOM     35  C   UNL d   1       6.321  -6.455  11.267  0.00  0.00     0.123 C 
ATOM     36  C   UNL d   1       7.024  -5.441  12.173  0.00  0.00     0.021 C 
ATOM     37  C   UNL d   1       8.470  -5.559  11.725  0.00  0.00     0.021 C 
ATOM     38  C   UNL d   1       8.389  -5.874  10.216  0.00  0.00     0.123 C 
ENDBRANCH   4  34
TORSDOF 7
