@<TRIPOS>MOLECULE
*****
 33 33 0 0 0
SMALL
GASTEIGER

@<TRIPOS>ATOM
      1 C           1.0743    0.1011   -0.0706 C.3     1  UNL1       -0.0469
      2 C           2.6024    0.0618   -0.0769 C.3     1  UNL1        0.0175
      3 C           3.0620   -1.3274    0.3732 C.3     1  UNL1       -0.0469
      4 N           3.1547    0.3978   -1.3897 N.am    1  UNL1       -0.3130
      5 C           4.5185    0.5057   -1.5738 C.2     1  UNL1        0.2135
      6 O           5.3249    0.3493   -0.6542 O.2     1  UNL1       -0.2758
      7 C           4.9674    0.8246   -2.9832 C.3     1  UNL1        0.0279
      8 C           6.5011    0.8363   -3.0464 C.3     1  UNL1       -0.0194
      9 C           7.0079    1.1874   -4.4198 C.ar    1  UNL1       -0.0452
     10 C           7.0051    2.5188   -4.8484 C.ar    1  UNL1       -0.0584
     11 C           7.3988    2.8351   -6.1452 C.ar    1  UNL1       -0.0598
     12 C           7.8030    1.8229   -7.0184 C.ar    1  UNL1       -0.0410
     13 C           7.8631    0.4924   -6.5965 C.ar    1  UNL1        0.0248
     14 N           8.1269   -0.5236   -7.5099 N.pl3   1  UNL1       -0.3580
     15 C           7.4443    0.1839   -5.2990 C.ar    1  UNL1       -0.0379
     16 H           0.6872   -0.1387    0.9274 H       1  UNL1        0.0247
     17 H           0.6571   -0.6286   -0.7734 H       1  UNL1        0.0247
     18 H           0.6953    1.0894   -0.3481 H       1  UNL1        0.0247
     19 H           2.9766    0.8110    0.6326 H       1  UNL1        0.0493
     20 H           2.7208   -2.0936   -0.3309 H       1  UNL1        0.0247
     21 H           2.6724   -1.5659    1.3674 H       1  UNL1        0.0247
     22 H           4.1510   -1.4032    0.4304 H       1  UNL1        0.0247
     23 H           2.5256    0.6002   -2.1580 H       1  UNL1        0.1489
     24 H           4.5631    1.8031   -3.2675 H       1  UNL1        0.0361
     25 H           4.5655    0.0749   -3.6757 H       1  UNL1        0.0361
     26 H           6.8986   -0.1419   -2.7429 H       1  UNL1        0.0318
     27 H           6.9097    1.5556   -2.3239 H       1  UNL1        0.0318
     28 H           6.6829    3.3113   -4.1768 H       1  UNL1        0.0620
     29 H           7.3758    3.8675   -6.4827 H       1  UNL1        0.0618
     30 H           8.0743    2.0850   -8.0370 H       1  UNL1        0.0636
     31 H           8.5860   -0.2720   -8.3770 H       1  UNL1        0.1423
     32 H           8.3403   -1.4444   -7.1453 H       1  UNL1        0.1423
     33 H           7.4522   -0.8515   -4.9666 H       1  UNL1        0.0639
@<TRIPOS>BOND
     1     1     2    1
     2     2     3    1
     3     2     4    1
     4     4     5   am
     5     5     6    2
     6     5     7    1
     7     7     8    1
     8     8     9    1
     9     9    10   ar
    10    10    11   ar
    11    11    12   ar
    12    12    13   ar
    13    13    14    1
    14    13    15   ar
    15     9    15   ar
    16     1    16    1
    17     1    17    1
    18     1    18    1
    19     2    19    1
    20     3    20    1
    21     3    21    1
    22     3    22    1
    23     4    23    1
    24     7    24    1
    25     7    25    1
    26     8    26    1
    27     8    27    1
    28    10    28    1
    29    11    29    1
    30    12    30    1
    31    14    31    1
    32    14    32    1
    33    15    33    1
