REMARK  11 active torsions:
REMARK  status: ('A' for Active; 'I' for Inactive)
REMARK    1  A    between atoms: O_2  and  C_3 
REMARK    2  A    between atoms: C_3  and  C_5 
REMARK    3  A    between atoms: C_9  and  C_10 
REMARK       I    between atoms: C_10  and  N_12 
REMARK    4  A    between atoms: N_12  and  C_13 
REMARK    5  A    between atoms: C_13  and  N_15 
REMARK    6  A    between atoms: N_15  and  N_16 
REMARK       I    between atoms: N_16  and  C_17 
REMARK    7  A    between atoms: C_17  and  C_19 
REMARK    8  A    between atoms: C_19  and  C_20 
REMARK    9  A    between atoms: C_20  and  C_21 
REMARK   10  A    between atoms: C_21  and  O_22 
REMARK   11  A    between atoms: O_22  and  C_23 
ROOT
ATOM      1  N   UNL d   1       6.450   4.579  -2.984  0.00  0.00    -0.273 N 
ATOM      2  H   UNL d   1       5.437   4.484  -3.055  0.00  0.00     0.189 HD
ENDROOT
BRANCH   1   3
ATOM      3  C   UNL d   1       7.304   3.834  -2.154  0.00  0.00     0.193 C 
ATOM      4  S   UNL d   1       8.963   4.144  -2.181  0.00  0.00    -0.039 SA
BRANCH   3   5
ATOM      5  N   UNL d   1       6.666   2.861  -1.350  0.00  0.00    -0.298 N 
ATOM      6  C   UNL d   1       7.298   1.980  -0.438  0.00  0.00     0.257 C 
ATOM      7  O   UNL d   1       8.509   1.968  -0.230  0.00  0.00    -0.267 OA
ATOM      8  H   UNL d   1       5.664   2.800  -1.434  0.00  0.00     0.171 HD
BRANCH   6   9
ATOM      9  C   UNL d   1       6.508   0.988   0.373  0.00  0.00     0.033 A 
ATOM     10  C   UNL d   1       7.226   0.194   1.304  0.00  0.00     0.017 A 
ATOM     11  C   UNL d   1       6.578  -0.703   2.159  0.00  0.00     0.002 A 
ATOM     12  C   UNL d   1       5.199  -0.859   2.066  0.00  0.00     0.017 A 
ATOM     13  C   UNL d   1       4.468  -0.073   1.162  0.00  0.00     0.040 A 
ATOM     14  C   UNL d   1       5.120   0.840   0.309  0.00  0.00     0.034 A 
BRANCH  13  15
ATOM     15  C   UNL d   1       2.987  -0.102   1.238  0.00  0.00     0.292 C 
ATOM     16  O   UNL d   1       2.383  -0.176   2.304  0.00  0.00    -0.259 OA
BRANCH  15  17
ATOM     17  O   UNL d   1       2.429  -0.021   0.007  0.00  0.00    -0.323 OA
ATOM     18  C   UNL d   1       0.994  -0.036   0.019  0.00  0.00     0.213 C 
ENDBRANCH  15  17
ENDBRANCH  13  15
ENDBRANCH   6   9
ENDBRANCH   3   5
ENDBRANCH   1   3
BRANCH   1  19
ATOM     19  N   UNL d   1       7.019   5.594  -3.849  0.00  0.00    -0.268 N 
ATOM     20  C   UNL d   1       6.216   6.353  -4.682  0.00  0.00     0.236 C 
ATOM     21  O   UNL d   1       4.998   6.189  -4.726  0.00  0.00    -0.272 OA
ATOM     22  H   UNL d   1       8.032   5.700  -3.794  0.00  0.00     0.190 HD
BRANCH  20  23
ATOM     23  C   UNL d   1       6.949   7.401  -5.534  0.00  0.00     0.106 C 
BRANCH  23  24
ATOM     24  C   UNL d   1       5.965   8.216  -6.398  0.00  0.00     0.036 C 
BRANCH  24  25
ATOM     25  C   UNL d   1       6.676   9.280  -7.235  0.00  0.00     0.176 C 
BRANCH  25  26
ATOM     26  O   UNL d   1       5.744   9.981  -8.074  0.00  0.00    -0.349 OA
BRANCH  26  27
ATOM     27  C   UNL d   1       6.303  10.854  -8.982  0.00  0.00     0.090 A 
ATOM     28  C   UNL d   1       5.663  12.106  -9.097  0.00  0.00     0.040 A 
ATOM     29  C   UNL d   1       6.096  13.053 -10.039  0.00  0.00     0.026 A 
ATOM     30  C   UNL d   1       7.215  12.784 -10.818  0.00  0.00     0.035 A 
ATOM     31 CL   UNL d   1       7.859  13.979 -11.873  0.00  0.00    -0.084 Cl
ATOM     32  C   UNL d   1       7.839  11.548 -10.736  0.00  0.00     0.050 A 
ATOM     33  C   UNL d   1       7.369  10.572  -9.855  0.00  0.00     0.069 A 
ATOM     34 CL   UNL d   1       8.154   9.040 -10.030  0.00  0.00    -0.081 Cl
ENDBRANCH  26  27
ENDBRANCH  25  26
ENDBRANCH  24  25
ENDBRANCH  23  24
ENDBRANCH  20  23
ENDBRANCH   1  19
TORSDOF 11
