REMARK  7 active torsions:
REMARK  status: ('A' for Active; 'I' for Inactive)
REMARK    1  A    between atoms: C_3  and  C_25 
REMARK    2  A    between atoms: C_4  and  C_5 
REMARK    3  A    between atoms: N_7  and  C_8 
REMARK    4  A    between atoms: C_8  and  C_9 
REMARK    5  A    between atoms: C_13  and  C_14 
REMARK       I    between atoms: C_25  and  N_27 
REMARK    6  A    between atoms: N_27  and  C_28 
REMARK    7  A    between atoms: C_31  and  N_32 
ROOT
ATOM      1  N   UNL d   1       0.969   0.026  -0.091  0.00  0.00    -0.096 N 
ATOM      2  C   UNL d   1       2.230   0.026  -0.091  0.00  0.00     0.025 C 
ATOM      3  C   UNL d   1       3.750   0.026  -0.091  0.00  0.00     0.099 C 
ATOM      4  C   UNL d   1       4.390   0.973  -0.809  0.00  0.00     0.041 C 
ENDROOT
BRANCH   3   5
ATOM      5  C   UNL d   1       4.472  -1.078   0.665  0.00  0.00     0.265 C 
ATOM      6  O   UNL d   1       3.791  -1.900   1.293  0.00  0.00    -0.267 OA
ATOM      7  N   UNL d   1       5.871  -1.077   0.702  0.00  0.00    -0.322 N 
ATOM      8  H   UNL d   1       6.376  -0.259   0.390  0.00  0.00     0.169 HD
BRANCH   7   9
ATOM      9  C   UNL d   1       6.656  -2.025   1.431  0.00  0.00     0.035 A 
ATOM     10  C   UNL d   1       6.285  -3.369   1.551  0.00  0.00     0.032 A 
ATOM     11  C   UNL d   1       6.996  -4.249   2.384  0.00  0.00     0.038 A 
ATOM     12  C   UNL d   1       8.139  -3.800   3.054  0.00  0.00     0.103 A 
ATOM     13  C   UNL d   1       8.601  -2.496   2.842  0.00  0.00     0.038 A 
ATOM     14  C   UNL d   1       7.845  -1.607   2.052  0.00  0.00     0.032 A 
BRANCH  12  15
ATOM     15  N   UNL d   1       8.825  -4.688   4.008  0.00  0.00    -0.116 N 
ATOM     16  O   UNL d   1       8.352  -5.814   4.196  0.00  0.00    -0.532 OA
ATOM     17  O   UNL d   1       9.833  -4.244   4.583  0.00  0.00    -0.532 OA
ENDBRANCH  12  15
ENDBRANCH   7   9
ENDBRANCH   3   5
BRANCH   4  18
ATOM     18  C   UNL d   1       3.729   2.049  -1.479  0.00  0.00    -0.006 A 
ATOM     19  C   UNL d   1       4.055   2.513  -2.725  0.00  0.00     0.104 A 
ATOM     20  N   UNL d   1       3.149   3.495  -3.076  0.00  0.00    -0.351 N 
ATOM     21  C   UNL d   1       2.257   3.691  -2.029  0.00  0.00     0.045 A 
ATOM     22  C   UNL d   1       1.157   4.551  -1.866  0.00  0.00     0.030 A 
ATOM     23  C   UNL d   1       2.642   2.828  -1.002  0.00  0.00     0.002 A 
ATOM     24  C   UNL d   1       0.417   4.471  -0.673  0.00  0.00     0.002 A 
ATOM     25  C   UNL d   1       0.780   3.608   0.347  0.00  0.00     0.001 A 
ATOM     26  C   UNL d   1       1.928   2.849   0.214  0.00  0.00     0.014 A 
BRANCH  20  27
ATOM     27  C   UNL d   1       3.121   4.258  -4.336  0.00  0.00     0.167 C 
BRANCH  27  28
ATOM     28  C   UNL d   1       4.220   3.858  -5.298  0.00  0.00    -0.039 C 
ATOM     29  C   UNL d   1       4.254   2.563  -5.843  0.00  0.00     0.009 C 
ATOM     30  C   UNL d   1       5.383   2.107  -6.519  0.00  0.00     0.001 C 
ATOM     31  C   UNL d   1       6.504   2.927  -6.619  0.00  0.00     0.016 C 
ATOM     32  C   UNL d   1       6.470   4.243  -6.133  0.00  0.00     0.048 C 
ATOM     33  C   UNL d   1       5.296   4.723  -5.534  0.00  0.00     0.025 C 
BRANCH  32  34
ATOM     34  C   UNL d   1       7.713   5.095  -6.191  0.00  0.00     0.417 C 
ATOM     35  F   UNL d   1       8.739   4.552  -5.476  0.00  0.00    -0.166 F 
ATOM     36  F   UNL d   1       8.180   5.255  -7.457  0.00  0.00    -0.166 F 
ATOM     37  F   UNL d   1       7.536   6.349  -5.690  0.00  0.00    -0.166 F 
ENDBRANCH  32  34
ENDBRANCH  27  28
ENDBRANCH  20  27
ENDBRANCH   4  18
TORSDOF 7
