@<TRIPOS>MOLECULE
*****
 47 47 0 0 0
SMALL
GASTEIGER

@<TRIPOS>ATOM
      1 C           1.0080    0.0825    0.2943 C.3     1  UNL1       -0.0636
      2 C           2.5084    0.0426    0.1019 C.3     1  UNL1       -0.0371
      3 C           2.9701   -0.5469   -1.2577 C.3     1  UNL1        0.0267
      4 N           2.4088    0.2351   -2.4022 N.am    1  UNL1       -0.2951
      5 C           1.0780    0.1854   -2.7939 C.2     1  UNL1        0.3162
      6 O           0.2481   -0.5934   -2.3223 O.2     1  UNL1       -0.2513
      7 N           0.6891    1.1885   -3.6709 N.am    1  UNL1       -0.2182
      8 N          -0.7132    1.3076   -3.9834 N.am    1  UNL1       -0.2331
      9 C          -1.1163    2.0781   -5.0633 C.2     1  UNL1        0.2324
     10 O          -0.2953    2.6120   -5.8110 O.2     1  UNL1       -0.2742
     11 C          -2.6293    2.2262   -5.2674 C.3     1  UNL1        0.0595
     12 C          -2.9421    3.0914   -6.5063 C.3     1  UNL1        0.0979
     13 O          -4.3635    3.2584   -6.6552 O.3     1  UNL1       -0.4915
     14 C          -4.7520    4.0271   -7.7293 C.ar    1  UNL1        0.1205
     15 C          -5.7834    4.9437   -7.5016 C.ar    1  UNL1       -0.0199
     16 C          -6.3163    5.6984   -8.5540 C.ar    1  UNL1       -0.0583
     17 C          -5.7916    5.5723   -9.8379 C.ar    1  UNL1       -0.0615
     18 C          -4.7708    4.6532  -10.0760 C.ar    1  UNL1       -0.0583
     19 C          -4.2625    3.8706   -9.0285 C.ar    1  UNL1       -0.0199
     20 C           4.5427   -0.6056   -1.2558 C.3     1  UNL1       -0.0282
     21 C           5.1172   -1.4213   -0.0742 C.3     1  UNL1       -0.0610
     22 C           5.0960   -1.2161   -2.5447 C.3     1  UNL1       -0.0610
     23 H           0.7481    0.3849    1.3103 H       1  UNL1        0.0230
     24 H           0.5812   -0.9097    0.1154 H       1  UNL1        0.0230
     25 H           0.5568    0.8179   -0.3736 H       1  UNL1        0.0230
     26 H           2.8926   -0.5622    0.9293 H       1  UNL1        0.0280
     27 H           2.9185    1.0523    0.2257 H       1  UNL1        0.0280
     28 H           2.5870   -1.5711   -1.3521 H       1  UNL1        0.0501
     29 H           3.0534    0.7391   -2.9931 H       1  UNL1        0.1506
     30 H           1.3240    1.5905   -4.3548 H       1  UNL1        0.1744
     31 H          -1.3473    0.8386   -3.3369 H       1  UNL1        0.1728
     32 H          -3.0840    2.6806   -4.3787 H       1  UNL1        0.0392
     33 H          -3.0884    1.2373   -5.3882 H       1  UNL1        0.0392
     34 H          -2.5178    2.6033   -7.3896 H       1  UNL1        0.0701
     35 H          -2.4869    4.0823   -6.3886 H       1  UNL1        0.0701
     36 H          -6.1765    5.0780   -6.4979 H       1  UNL1        0.0654
     37 H          -7.1462    6.3775   -8.3736 H       1  UNL1        0.0619
     38 H          -6.1825    6.1809  -10.6505 H       1  UNL1        0.0618
     39 H          -4.3836    4.5314  -11.0853 H       1  UNL1        0.0619
     40 H          -3.5071    3.1283   -9.2620 H       1  UNL1        0.0654
     41 H           4.9348    0.4174   -1.1707 H       1  UNL1        0.0313
     42 H           4.7574   -2.4561   -0.0989 H       1  UNL1        0.0233
     43 H           4.8605   -0.9965    0.9002 H       1  UNL1        0.0233
     44 H           6.2130   -1.4465   -0.1041 H       1  UNL1        0.0233
     45 H           4.7571   -2.2506   -2.6614 H       1  UNL1        0.0233
     46 H           6.1929   -1.2234   -2.5294 H       1  UNL1        0.0233
     47 H           4.7859   -0.6467   -3.4235 H       1  UNL1        0.0233
@<TRIPOS>BOND
     1     1     2    1
     2     2     3    1
     3     3     4    1
     4     4     5   am
     5     5     6    2
     6     5     7   am
     7     7     8    1
     8     8     9   am
     9     9    10    2
    10     9    11    1
    11    11    12    1
    12    12    13    1
    13    13    14    1
    14    14    15   ar
    15    15    16   ar
    16    16    17   ar
    17    17    18   ar
    18    18    19   ar
    19    14    19   ar
    20     3    20    1
    21    20    21    1
    22    20    22    1
    23     1    23    1
    24     1    24    1
    25     1    25    1
    26     2    26    1
    27     2    27    1
    28     3    28    1
    29     4    29    1
    30     7    30    1
    31     8    31    1
    32    11    32    1
    33    11    33    1
    34    12    34    1
    35    12    35    1
    36    15    36    1
    37    16    37    1
    38    17    38    1
    39    18    39    1
    40    19    40    1
    41    20    41    1
    42    21    42    1
    43    21    43    1
    44    21    44    1
    45    22    45    1
    46    22    46    1
    47    22    47    1
