REMARK  11 active torsions:
REMARK  status: ('A' for Active; 'I' for Inactive)
REMARK    1  A    between atoms: C_2  and  C_3 
REMARK    2  A    between atoms: C_3  and  N_4 
REMARK    3  A    between atoms: C_5  and  S_6 
REMARK    4  A    between atoms: S_6  and  C_7 
REMARK    5  A    between atoms: C_7  and  C_8 
REMARK       I    between atoms: C_8  and  N_10 
REMARK    6  A    between atoms: N_10  and  C_11 
REMARK    7  A    between atoms: C_11  and  C_12 
REMARK    8  A    between atoms: C_12  and  C_13 
REMARK    9  A    between atoms: C_12  and  C_22 
REMARK   10  A    between atoms: C_25  and  O_26 
REMARK   11  A    between atoms: C_32  and  O_33 
ROOT
ATOM      1  C   UNL d   1       7.549 -10.143   0.060  0.00  0.00     0.068 C 
ENDROOT
BRANCH   1   2
ATOM      2  C   UNL d   1       6.315  -9.189  -0.236  0.00  0.00     0.136 C 
BRANCH   2   3
ATOM      3  N   UNL d   1       6.631  -7.753  -0.250  0.00  0.00    -0.359 N 
ATOM      4  C   UNL d   1       5.675  -6.745  -0.105  0.00  0.00     0.227 C 
ATOM      5  O   UNL d   1       4.484  -7.041  -0.161  0.00  0.00    -0.273 OA
ATOM      6  H   UNL d   1       7.546  -7.539  -0.621  0.00  0.00     0.162 HD
BRANCH   4   7
ATOM      7  C   UNL d   1       6.175  -5.277   0.231  0.00  0.00     0.185 C 
BRANCH   7   8
ATOM      8  S   UNL d   1       4.771  -4.085   0.168  0.00  0.00    -0.081 SA
BRANCH   8   9
ATOM      9  C   UNL d   1       5.393  -2.508   0.499  0.00  0.00     0.187 C 
ATOM     10  N   UNL d   1       4.551  -1.353   0.335  0.00  0.00    -0.315 N 
ATOM     11  C   UNL d   1       5.403  -0.191   0.419  0.00  0.00     0.347 C 
ATOM     12  N   UNL d   1       6.607  -0.822   0.876  0.00  0.00    -0.265 N 
ATOM     13  N   UNL d   1       6.603  -2.191   0.855  0.00  0.00    -0.150 NA
ATOM     14  H   UNL d   1       7.300  -0.271   1.376  0.00  0.00     0.187 HD
BRANCH  10  15
ATOM     15  C   UNL d   1       3.088  -1.321   0.402  0.00  0.00     0.129 C 
BRANCH  15  16
ATOM     16  C   UNL d   1       2.501   0.049   0.045  0.00  0.00     0.015 C 
ATOM     17  C   UNL d   1       0.978   0.051   0.057  0.00  0.00     0.006 C 
ENDBRANCH  15  16
ENDBRANCH  10  15
BRANCH  11  18
ATOM     18  O   UNL d   1       5.573   0.279  -0.887  0.00  0.00    -0.358 OA
ATOM     19  H   UNL d   1       6.044  -0.437  -1.344  0.00  0.00     0.214 HD
ENDBRANCH  11  18
ENDBRANCH   8   9
ENDBRANCH   7   8
ENDBRANCH   4   7
ENDBRANCH   2   3
ENDBRANCH   1   2
BRANCH   1  20
ATOM     20  C   UNL d   1       8.158  -9.868   1.461  0.00  0.00    -0.040 A 
ATOM     21  C   UNL d   1       8.436  -8.726   2.120  0.00  0.00    -0.005 A 
ATOM     22  C   UNL d   1       8.376  -7.330   1.862  0.00  0.00     0.014 C 
ATOM     23  C   UNL d   1       8.924  -9.129   3.461  0.00  0.00     0.038 A 
ATOM     24  C   UNL d   1       8.593  -6.429   2.817  0.00  0.00     0.001 C 
ATOM     25  C   UNL d   1       9.025  -6.825   4.125  0.00  0.00     0.002 C 
ATOM     26  C   UNL d   1       9.222  -8.110   4.466  0.00  0.00     0.030 C 
ATOM     27  N   UNL d   1       9.009 -10.398   3.587  0.00  0.00    -0.385 N 
ATOM     28  C   UNL d   1       8.541 -11.004   2.366  0.00  0.00     0.155 A 
ATOM     29  H   UNL d   1       9.321 -10.890   4.414  0.00  0.00     0.160 HD
ENDBRANCH   1  20
BRANCH   1  30
ATOM     30  C   UNL d   1       7.200 -11.633  -0.282  0.00  0.00    -0.048 A 
ATOM     31  C   UNL d   1       7.678 -12.771   0.396  0.00  0.00     0.011 A 
ATOM     32  C   UNL d   1       7.468 -14.081   0.004  0.00  0.00     0.037 A 
ATOM     33  C   UNL d   1       6.686 -14.332  -1.084  0.00  0.00     0.068 A 
ATOM     34  C   UNL d   1       6.101 -13.261  -1.750  0.00  0.00     0.037 A 
ATOM     35  C   UNL d   1       6.413 -11.934  -1.403  0.00  0.00     0.011 A 
BRANCH  33  36
ATOM     36  O   UNL d   1       6.598 -15.654  -1.378  0.00  0.00    -0.356 OA
ATOM     37  C   UNL d   1       5.876 -15.943  -2.557  0.00  0.00     0.210 C 
ENDBRANCH  33  36
ENDBRANCH   1  30
TORSDOF 11
