REMARK  10 active torsions:
REMARK  status: ('A' for Active; 'I' for Inactive)
REMARK    1  A    between atoms: C_2  and  O_3 
REMARK    2  A    between atoms: O_3  and  C_4 
REMARK    3  A    between atoms: C_7  and  N_8 
REMARK       I    between atoms: N_8  and  C_9 
REMARK    4  A    between atoms: C_9  and  C_11 
REMARK    5  A    between atoms: C_11  and  C_12 
REMARK    6  A    between atoms: C_12  and  C_13 
REMARK       I    between atoms: C_13  and  N_15 
REMARK    7  A    between atoms: N_15  and  N_16 
REMARK    8  A    between atoms: N_16  and  C_17 
REMARK    9  A    between atoms: C_17  and  N_19 
REMARK       I    between atoms: N_19  and  C_20 
REMARK   10  A    between atoms: C_20  and  C_22 
ROOT
ATOM      1  C   UNL d   1      13.204   2.246  -0.257  0.00  0.00     0.236 C 
ATOM      2  O   UNL d   1      13.706   2.311   0.865  0.00  0.00    -0.272 OA
ATOM      3  N   UNL d   1      13.971   2.328  -1.412  0.00  0.00    -0.268 N 
ATOM      4  H   UNL d   1      13.575   2.276  -2.352  0.00  0.00     0.190 HD
ENDROOT
BRANCH   3   5
ATOM      5  N   UNL d   1      15.420   2.493  -1.351  0.00  0.00    -0.273 N 
ATOM      6  H   UNL d   1      15.797   2.550  -0.407  0.00  0.00     0.189 HD
BRANCH   5   7
ATOM      7  C   UNL d   1      16.159   2.578  -2.547  0.00  0.00     0.193 C 
ATOM      8  S   UNL d   1      15.354   2.473  -4.027  0.00  0.00    -0.039 SA
BRANCH   7   9
ATOM      9  N   UNL d   1      17.560   2.743  -2.392  0.00  0.00    -0.298 N 
ATOM     10  C   UNL d   1      18.508   2.898  -3.429  0.00  0.00     0.257 C 
ATOM     11  O   UNL d   1      18.238   2.903  -4.636  0.00  0.00    -0.267 OA
ATOM     12  H   UNL d   1      17.917   2.807  -1.448  0.00  0.00     0.171 HD
BRANCH  10  13
ATOM     13  C   UNL d   1      19.965   3.062  -3.143  0.00  0.00     0.033 A 
ATOM     14  C   UNL d   1      20.719   3.901  -3.990  0.00  0.00     0.017 A 
ATOM     15  C   UNL d   1      22.120   3.925  -3.936  0.00  0.00     0.009 A 
ATOM     16  C   UNL d   1      22.804   3.156  -2.988  0.00  0.00    -0.045 A 
ATOM     17  C   UNL d   1      24.295   3.317  -2.848  0.00  0.00     0.049 C 
ATOM     18  C   UNL d   1      22.051   2.296  -2.168  0.00  0.00     0.017 A 
ATOM     19 BR   UNL d   1      22.902   1.113  -0.945  0.00  0.00    -0.051 Br
ATOM     20  C   UNL d   1      20.644   2.243  -2.243  0.00  0.00     0.036 A 
ENDBRANCH  10  13
ENDBRANCH   7   9
ENDBRANCH   5   7
ENDBRANCH   3   5
BRANCH   1  21
ATOM     21  C   UNL d   1      11.695   2.070  -0.471  0.00  0.00     0.114 C 
BRANCH  21  22
ATOM     22  C   UNL d   1      10.882   1.988   0.857  0.00  0.00     0.112 C 
BRANCH  22  23
ATOM     23  C   UNL d   1       9.395   1.820   0.556  0.00  0.00     0.222 C 
ATOM     24  N   UNL d   1       8.518   1.758   1.645  0.00  0.00    -0.327 N 
ATOM     25  H   UNL d   1       8.899   1.787   2.585  0.00  0.00     0.169 HD
ATOM     26  O   UNL d   1       9.058   1.738  -0.625  0.00  0.00    -0.273 OA
BRANCH  24  27
ATOM     27  C   UNL d   1       7.103   1.540   1.533  0.00  0.00     0.034 A 
ATOM     28  C   UNL d   1       6.290   1.388   2.667  0.00  0.00     0.032 A 
ATOM     29  C   UNL d   1       4.918   1.058   2.528  0.00  0.00     0.039 A 
ATOM     30  C   UNL d   1       4.329   0.932   1.266  0.00  0.00     0.068 A 
ATOM     31  C   UNL d   1       5.118   1.142   0.150  0.00  0.00     0.039 A 
ATOM     32  C   UNL d   1       6.473   1.442   0.290  0.00  0.00     0.032 A 
BRANCH  30  33
ATOM     33  O   UNL d   1       2.979   0.708   1.210  0.00  0.00    -0.352 OA
BRANCH  33  34
ATOM     34  C   UNL d   1       2.529  -0.089   0.106  0.00  0.00     0.171 C 
ATOM     35  C   UNL d   1       1.010  -0.083   0.086  0.00  0.00     0.034 C 
ENDBRANCH  33  34
ENDBRANCH  30  33
ENDBRANCH  24  27
ENDBRANCH  22  23
ENDBRANCH  21  22
ENDBRANCH   1  21
TORSDOF 10
