REMARK  15 active torsions:
REMARK  status: ('A' for Active; 'I' for Inactive)
REMARK    1  A    between atoms: C_2  and  C_35 
REMARK    2  A    between atoms: C_2  and  C_3 
REMARK    3  A    between atoms: C_3  and  C_4 
REMARK       I    between atoms: C_4  and  N_6 
REMARK    4  A    between atoms: N_6  and  C_7 
REMARK    5  A    between atoms: C_9  and  N_10 
REMARK       I    between atoms: N_10  and  C_11 
REMARK    6  A    between atoms: C_11  and  C_13 
REMARK    7  A    between atoms: C_13  and  C_14 
REMARK    8  A    between atoms: C_14  and  C_16 
REMARK    9  A    between atoms: C_16  and  C_17 
REMARK   10  A    between atoms: C_22  and  N_23 
REMARK       I    between atoms: N_23  and  C_24 
REMARK   11  A    between atoms: C_24  and  C_26 
REMARK   12  A    between atoms: C_27  and  C_26 
REMARK   13  A    between atoms: C_27  and  C_29 
REMARK   14  A    between atoms: C_29  and  C_30 
REMARK   15  A    between atoms: C_35  and  C_36 
ROOT
ATOM      1  C   UNL d   1      11.175   4.820  -2.046  0.00  0.00     0.760 A 
ATOM      2  N   UNL d   1      10.707   4.195  -3.115  0.00  0.00     0.132 NA
ATOM      3  C   UNL d   1      11.412   4.210  -4.228  0.00  0.00     0.760 A 
ATOM      4  N   UNL d   1      12.563   4.876  -4.327  0.00  0.00     0.132 NA
ATOM      5  C   UNL d   1      12.969   5.438  -3.171  0.00  0.00     0.760 A 
ATOM      6  N   UNL d   1      12.293   5.483  -2.043  0.00  0.00     0.132 NA
ENDROOT
BRANCH   1   7
ATOM      7  N   UNL d   1      10.478   4.807  -0.827  0.00  0.00    -0.155 N 
ATOM      8  C   UNL d   1       9.991   3.583  -0.468  0.00  0.00     0.236 C 
ATOM      9  O   UNL d   1      10.191   2.664  -1.229  0.00  0.00    -0.273 OA
ATOM     10  H   UNL d   1      10.807   5.443  -0.125  0.00  0.00     0.187 HD
BRANCH   8  11
ATOM     11  C   UNL d   1       9.271   3.429   0.897  0.00  0.00     0.108 C 
BRANCH  11  12
ATOM     12  C   UNL d   1       8.990   1.941   1.308  0.00  0.00    -0.009 C 
ATOM     13  C   UNL d   1       9.400   0.984   0.205  0.00  0.00     0.010 C 
BRANCH  12  14
ATOM     14  C   UNL d   1       9.640   1.541   2.662  0.00  0.00     0.013 C 
BRANCH  14  15
ATOM     15  C   UNL d   1       9.458   0.039   3.076  0.00  0.00    -0.051 C 
ATOM     16  C   UNL d   1       7.955  -0.282   3.147  0.00  0.00     0.014 C 
ATOM     17  C   UNL d   1      10.179  -0.979   2.166  0.00  0.00     0.014 C 
ATOM     18  C   UNL d   1      10.098  -0.192   4.453  0.00  0.00     0.014 C 
ENDBRANCH  14  15
ENDBRANCH  12  14
ENDBRANCH  11  12
ENDBRANCH   8  11
ENDBRANCH   1   7
BRANCH   3  19
ATOM     19  N   UNL d   1      10.886   3.550  -5.368  0.00  0.00    -0.155 N 
ATOM     20  C   UNL d   1       9.844   2.647  -5.260  0.00  0.00     0.236 C 
ATOM     21  O   UNL d   1       9.395   2.257  -4.186  0.00  0.00    -0.273 OA
ATOM     22  H   UNL d   1      11.354   3.699  -6.245  0.00  0.00     0.187 HD
BRANCH  20  23
ATOM     23  C   UNL d   1       9.249   2.079  -6.565  0.00  0.00     0.108 C 
BRANCH  23  24
ATOM     24  C   UNL d   1       7.957   1.280  -6.224  0.00  0.00    -0.009 C 
ATOM     25  C   UNL d   1       6.954   2.242  -5.568  0.00  0.00     0.010 C 
BRANCH  24  26
ATOM     26  C   UNL d   1       7.333   0.540  -7.442  0.00  0.00     0.013 C 
BRANCH  26  27
ATOM     27  C   UNL d   1       6.098  -0.380  -7.132  0.00  0.00    -0.051 C 
ATOM     28  C   UNL d   1       6.505  -1.470  -6.126  0.00  0.00     0.014 C 
ATOM     29  C   UNL d   1       4.865   0.377  -6.606  0.00  0.00     0.014 C 
ATOM     30  C   UNL d   1       5.617  -1.053  -8.430  0.00  0.00     0.014 C 
ENDBRANCH  26  27
ENDBRANCH  24  26
ENDBRANCH  23  24
ENDBRANCH  20  23
ENDBRANCH   3  19
BRANCH   5  31
ATOM     31  N   UNL d   1      14.225   6.041  -3.159  0.00  0.00    -0.155 N 
ATOM     32  C   UNL d   1      14.812   6.577  -2.028  0.00  0.00     0.236 C 
ATOM     33  O   UNL d   1      14.330   6.545  -0.893  0.00  0.00    -0.273 OA
ATOM     34  H   UNL d   1      14.633   6.061  -4.075  0.00  0.00     0.187 HD
BRANCH  32  35
ATOM     35  C   UNL d   1      16.172   7.263  -2.171  0.00  0.00     0.108 C 
BRANCH  35  36
ATOM     36  C   UNL d   1      16.695   7.518  -3.585  0.00  0.00    -0.009 C 
ATOM     37  C   UNL d   1      18.079   6.887  -3.679  0.00  0.00     0.010 C 
BRANCH  36  38
ATOM     38  C   UNL d   1      16.697   9.007  -4.002  0.00  0.00     0.013 C 
BRANCH  38  39
ATOM     39  C   UNL d   1      15.309   9.725  -3.998  0.00  0.00    -0.051 C 
ATOM     40  C   UNL d   1      14.331   9.011  -4.942  0.00  0.00     0.014 C 
ATOM     41  C   UNL d   1      14.679   9.845  -2.602  0.00  0.00     0.014 C 
ATOM     42  C   UNL d   1      15.491  11.166  -4.495  0.00  0.00     0.014 C 
ENDBRANCH  38  39
ENDBRANCH  36  38
ENDBRANCH  35  36
ENDBRANCH  32  35
ENDBRANCH   5  31
TORSDOF 15
