@<TRIPOS>MOLECULE
*****
 62 65 0 0 0
SMALL
GASTEIGER

@<TRIPOS>ATOM
      1 C           2.4984    1.0448    0.0008 C.3     1  UNL1       -0.0221
      2 C           1.1518    0.3987    0.0036 C.ar    1  UNL1        0.0451
      3 C          -0.0263    1.0847    0.0101 C.ar    1  UNL1       -0.0193
      4 C          -1.1778    0.3124    0.0040 C.ar    1  UNL1        0.0451
      5 C          -2.5116    1.0041   -0.0151 C.3     1  UNL1       -0.0221
      6 N          -1.1734   -1.0539    0.0020 N.ar    1  UNL1       -0.2035
      7 C           0.0272   -1.6562   -0.0018 C.ar    1  UNL1        0.2923
      8 N           0.1163   -3.0656   -0.0038 N.pl3   1  UNL1       -0.2126
      9 C           1.3167   -3.7577   -0.0180 C.2     1  UNL1        0.3865
     10 N           2.4024   -3.0223   -0.0221 N.am    1  UNL1        0.0000
     11 C           3.6345   -3.5074   -0.0683 C.2     1  UNL1        0.3335
     12 O           3.8905   -4.6759   -0.1748 O.2     1  UNL1       -0.2490
     13 C           4.8206   -2.6971   -0.0651 C.2     1  UNL1        0.0202
     14 C           6.0671   -3.2563   -0.0939 C.2     1  UNL1       -0.0479
     15 C           7.4756   -2.7276   -0.0899 C.ar    1  UNL1       -0.0219
     16 C           8.7333   -3.4314   -0.1234 C.ar    1  UNL1       -0.0543
     17 C           9.9722   -2.8008   -0.0840 C.ar    1  UNL1       -0.0612
     18 C           9.9956   -1.4324   -0.0327 C.ar    1  UNL1       -0.0615
     19 C           8.8040   -0.7224   -0.0194 C.ar    1  UNL1       -0.0583
     20 C           7.5674   -1.3490   -0.0394 C.ar    1  UNL1       -0.0433
     21 C           6.3511   -0.4978   -0.0067 C.3     1  UNL1       -0.0392
     22 N           1.1476   -5.1673   -0.0221 N.pl3   1  UNL1       -0.2766
     23 C           2.2703   -6.1291   -0.0381 C.3     1  UNL1        0.0685
     24 C           2.1947   -7.6291   -0.0410 C.3     1  UNL1        0.0050
     25 C           3.5796   -8.3585   -0.0621 C.ar    1  UNL1       -0.0193
     26 C           3.7226   -9.7292   -0.0773 C.ar    1  UNL1        0.0060
     27 N           5.0499  -10.0789   -0.0958 N.ar    1  UNL1       -0.3604
     28 C           5.8535   -8.9854   -0.0780 C.ar    1  UNL1        0.0469
     29 C           7.2749   -8.8599   -0.0640 C.ar    1  UNL1       -0.0351
     30 C           7.8462   -7.6157   -0.0611 C.ar    1  UNL1       -0.0245
     31 C           6.9749   -6.6019   -0.0564 C.ar    1  UNL1        0.1241
     32 F           7.4811   -5.4148    0.0239 F       1  UNL1       -0.2055
     33 C           5.6159   -6.7366   -0.0556 C.ar    1  UNL1       -0.0170
     34 C           4.9580   -7.9254   -0.0734 C.ar    1  UNL1        0.0056
     35 N           1.1582   -0.9325   -0.0039 N.ar    1  UNL1       -0.2035
     36 H           2.4269    2.1344    0.0124 H       1  UNL1        0.0293
     37 H           3.0566    0.7424   -0.8928 H       1  UNL1        0.0293
     38 H           3.0680    0.7244    0.8807 H       1  UNL1        0.0293
     39 H          -0.0440    2.1657    0.0149 H       1  UNL1        0.0653
     40 H          -2.3993    2.0952   -0.0170 H       1  UNL1        0.0293
     41 H          -3.0924    0.7288    0.8692 H       1  UNL1        0.0293
     42 H          -3.0635    0.7248   -0.9168 H       1  UNL1        0.0293
     43 H          -0.7757   -3.5201   -0.0015 H       1  UNL1        0.2677
     44 H           4.4867   -1.6911   -0.0530 H       1  UNL1        0.0686
     45 H           6.0414   -4.3124   -0.1273 H       1  UNL1        0.0626
     46 H           8.9308   -4.4954   -0.1816 H       1  UNL1        0.0624
     47 H          10.8863   -3.3935   -0.0994 H       1  UNL1        0.0618
     48 H          10.9374   -0.9079   -0.0057 H       1  UNL1        0.0618
     49 H           8.8089    0.3557    0.0094 H       1  UNL1        0.0620
     50 H           6.5263    0.5634    0.0293 H       1  UNL1        0.0278
     51 H           5.8021   -0.7447    0.9160 H       1  UNL1        0.0278
     52 H           5.7994   -0.6816   -0.9422 H       1  UNL1        0.0278
     53 H           0.2301   -5.5796   -0.0187 H       1  UNL1        0.2577
     54 H           2.8149   -5.9458    0.8994 H       1  UNL1        0.0658
     55 H           2.7664   -5.9652   -1.0050 H       1  UNL1        0.0658
     56 H           1.6332   -7.9287   -0.9300 H       1  UNL1        0.0344
     57 H           1.6522   -7.9351    0.8560 H       1  UNL1        0.0344
     58 H           2.9630  -10.4879   -0.0782 H       1  UNL1        0.0810
     59 H           5.4294  -11.0065   -0.1214 H       1  UNL1        0.1653
     60 H           7.9393   -9.7051   -0.0467 H       1  UNL1        0.0639
     61 H           8.8958   -7.3490   -0.0365 H       1  UNL1        0.0647
     62 H           5.0718   -5.8733    0.0187 H       1  UNL1        0.0653
@<TRIPOS>BOND
     1     1     2    1
     2     2     3   ar
     3     3     4   ar
     4     4     5    1
     5     4     6   ar
     6     6     7   ar
     7     7     8    1
     8     8     9    1
     9     9    10    2
    10    10    11    1
    11    11    12    2
    12    11    13    1
    13    13    14    2
    14    14    15    1
    15    15    16   ar
    16    16    17   ar
    17    17    18   ar
    18    18    19   ar
    19    19    20   ar
    20    15    20   ar
    21    20    21    1
    22     9    22    1
    23    22    23    1
    24    23    24    1
    25    24    25    1
    26    25    26   ar
    27    26    27   ar
    28    27    28   ar
    29    28    29   ar
    30    29    30   ar
    31    30    31   ar
    32    31    32    1
    33    31    33   ar
    34    33    34   ar
    35    25    34   ar
    36    28    34   ar
    37     7    35   ar
    38     2    35   ar
    39     1    36    1
    40     1    37    1
    41     1    38    1
    42     3    39    1
    43     5    40    1
    44     5    41    1
    45     5    42    1
    46     8    43    1
    47    13    44    1
    48    14    45    1
    49    16    46    1
    50    17    47    1
    51    18    48    1
    52    19    49    1
    53    21    50    1
    54    21    51    1
    55    21    52    1
    56    22    53    1
    57    23    54    1
    58    23    55    1
    59    24    56    1
    60    24    57    1
    61    26    58    1
    62    27    59    1
    63    29    60    1
    64    30    61    1
    65    33    62    1
