@<TRIPOS>MOLECULE
*****
 39 40 0 0 0
SMALL
GASTEIGER

@<TRIPOS>ATOM
      1 C           1.9434    4.7721    3.9509 C.3     1  UNL1       -0.0380
      2 C           1.9840    6.2231    3.5835 C.ar    1  UNL1       -0.0292
      3 C           2.0090    7.0524    4.7286 C.ar    1  UNL1       -0.0571
      4 C           2.2706    8.4044    4.6381 C.ar    1  UNL1       -0.0614
      5 C           2.5013    8.9549    3.3849 C.ar    1  UNL1       -0.0600
      6 C           2.5038    8.1429    2.2242 C.ar    1  UNL1       -0.0402
      7 C           2.2315    6.7505    2.2822 C.ar    1  UNL1        0.0364
      8 N           2.5079    5.9663    1.0771 N.am    1  UNL1       -0.2837
      9 C           2.5128    4.5803    0.9664 C.2     1  UNL1        0.2373
     10 O           2.0526    3.8015    1.7928 O.2     1  UNL1       -0.2734
     11 C           3.2539    3.8754   -0.1786 C.3     1  UNL1        0.0972
     12 C           2.5587    2.4668   -0.2172 C.3     1  UNL1       -0.0381
     13 N           4.6954    3.6707    0.1333 N.am    1  UNL1       -0.3003
     14 C           5.6937    4.6372    0.0047 C.2     1  UNL1        0.2447
     15 O           6.5925    4.4876   -0.7868 O.2     1  UNL1       -0.2702
     16 C           5.7351    5.7790    0.9793 C.ar    1  UNL1        0.0368
     17 C           6.5109    6.9225    0.7511 C.ar    1  UNL1       -0.0483
     18 C           6.4866    8.0077    1.6509 C.ar    1  UNL1       -0.0427
     19 C           5.7572    7.9265    2.8241 C.ar    1  UNL1        0.0410
     20 CL          5.7055    9.2585    3.9119 Cl      1  UNL1       -0.0835
     21 C           5.1067    6.7427    3.1184 C.ar    1  UNL1       -0.0427
     22 C           5.1014    5.6795    2.2066 C.ar    1  UNL1       -0.0483
     23 H           1.7728    4.5633    5.0060 H       1  UNL1        0.0278
     24 H           2.9226    4.3209    3.7446 H       1  UNL1        0.0278
     25 H           1.0868    4.3242    3.4514 H       1  UNL1        0.0278
     26 H           1.9603    6.5932    5.7162 H       1  UNL1        0.0621
     27 H           2.4093    8.9817    5.5496 H       1  UNL1        0.0618
     28 H           2.8333    9.9921    3.3400 H       1  UNL1        0.0618
     29 H           2.9150    8.6032    1.3246 H       1  UNL1        0.0636
     30 H           2.9652    6.4812    0.3310 H       1  UNL1        0.1549
     31 H           3.1202    4.3970   -1.1306 H       1  UNL1        0.0592
     32 H           2.8187    1.8749    0.6781 H       1  UNL1        0.0252
     33 H           2.8323    1.8583   -1.0789 H       1  UNL1        0.0252
     34 H           1.4618    2.5666   -0.2008 H       1  UNL1        0.0252
     35 H           5.0393    2.8046   -0.2681 H       1  UNL1        0.1498
     36 H           7.1818    6.9657   -0.1009 H       1  UNL1        0.0625
     37 H           7.0676    8.9042    1.4619 H       1  UNL1        0.0632
     38 H           4.5090    6.6621    4.0186 H       1  UNL1        0.0632
     39 H           4.5286    4.7909    2.4466 H       1  UNL1        0.0625
@<TRIPOS>BOND
     1     1     2    1
     2     2     3   ar
     3     3     4   ar
     4     4     5   ar
     5     5     6   ar
     6     6     7   ar
     7     2     7   ar
     8     7     8    1
     9     8     9   am
    10     9    10    2
    11    11    13    1
    12    13    14   am
    13    14    15    2
    14    14    16    1
    15    16    17   ar
    16    17    18   ar
    17    18    19   ar
    18    19    20    1
    19    19    21   ar
    20    21    22   ar
    21    16    22   ar
    22    11    12    1
    23    11     9    1
    24     1    23    1
    25     1    24    1
    26     1    25    1
    27     3    26    1
    28     4    27    1
    29     5    28    1
    30     6    29    1
    31     8    30    1
    32    11    31    1
    33    12    32    1
    34    12    33    1
    35    12    34    1
    36    13    35    1
    37    17    36    1
    38    18    37    1
    39    21    38    1
    40    22    39    1
