REMARK  8 active torsions:
REMARK  status: ('A' for Active; 'I' for Inactive)
REMARK    1  A    between atoms: N_2  and  C_4 
REMARK    2  A    between atoms: C_7  and  C_8 
REMARK    3  A    between atoms: C_9  and  C_10 
REMARK       I    between atoms: C_10  and  N_12 
REMARK    4  A    between atoms: N_12  and  N_13 
REMARK       I    between atoms: N_13  and  C_14 
REMARK       I    between atoms: C_14  and  N_16 
REMARK    5  A    between atoms: N_16  and  C_17 
REMARK    6  A    between atoms: C_17  and  C_18 
REMARK    7  A    between atoms: C_18  and  C_19 
REMARK    8  A    between atoms: C_19  and  N_20 
ROOT
ATOM      1  C   UNL d   1       5.960  -7.198   1.093  0.00  0.00     0.259 C 
ATOM      2  O   UNL d   1       6.970  -7.114   1.794  0.00  0.00    -0.267 OA
ATOM      3  N   UNL d   1       5.481  -8.415   0.616  0.00  0.00    -0.263 N 
ATOM      4  H   UNL d   1       4.649  -8.514   0.037  0.00  0.00     0.190 HD
ENDROOT
BRANCH   3   5
ATOM      5  N   UNL d   1       6.180  -9.636   0.927  0.00  0.00    -0.249 N 
ATOM      6  C   UNL d   1       5.708 -10.848   0.444  0.00  0.00     0.334 C 
ATOM      7  O   UNL d   1       4.698 -10.942  -0.253  0.00  0.00    -0.246 OA
ATOM      8  N   UNL d   1       6.460 -11.957   0.804  0.00  0.00    -0.342 N 
ATOM      9  H   UNL d   1       7.277 -11.818   1.382  0.00  0.00     0.164 HD
ATOM     10  H   UNL d   1       7.009  -9.524   1.503  0.00  0.00     0.192 HD
BRANCH   8  11
ATOM     11  C   UNL d   1       6.079 -13.307   0.369  0.00  0.00     0.126 C 
BRANCH  11  12
ATOM     12  C   UNL d   1       7.026 -14.411   0.859  0.00  0.00     0.040 C 
BRANCH  12  13
ATOM     13  C   UNL d   1       6.610 -15.812   0.388  0.00  0.00     0.130 C 
BRANCH  13  14
ATOM     14  N   UNL d   1       7.505 -16.891   0.876  0.00  0.00    -0.352 N 
ATOM     15  C   UNL d   1       7.235 -18.258   0.782  0.00  0.00     0.108 A 
ATOM     16  C   UNL d   1       8.290 -18.917   1.352  0.00  0.00     0.106 A 
ATOM     17  N   UNL d   1       9.169 -17.947   1.763  0.00  0.00    -0.361 N 
ATOM     18  C   UNL d   1       8.701 -16.731   1.469  0.00  0.00     0.182 A 
ATOM     19  H   UNL d   1      10.058 -18.116   2.230  0.00  0.00     0.166 HD
ENDBRANCH  13  14
ENDBRANCH  12  13
ENDBRANCH  11  12
ENDBRANCH   8  11
ENDBRANCH   3   5
BRANCH   1  20
ATOM     20  C   UNL d   1       5.158  -5.986   0.696  0.00  0.00     0.076 C 
ATOM     21  C   UNL d   1       5.481  -4.724   1.062  0.00  0.00     0.017 C 
BRANCH  21  22
ATOM     22  C   UNL d   1       4.706  -3.486   0.748  0.00  0.00    -0.036 A 
ATOM     23  C   UNL d   1       5.104  -2.235   1.246  0.00  0.00     0.013 A 
ATOM     24  C   UNL d   1       4.313  -1.081   1.048  0.00  0.00     0.030 A 
ATOM     25  C   UNL d   1       3.137  -1.105   0.288  0.00  0.00     0.029 A 
ATOM     26  C   UNL d   1       2.758  -2.350  -0.219  0.00  0.00     0.030 A 
ATOM     27  C   UNL d   1       3.529  -3.508  -0.007  0.00  0.00     0.013 A 
BRANCH  25  28
ATOM     28  N   UNL d   1       2.416   0.053   0.034  0.00  0.00    -0.390 N 
ATOM     29  C   UNL d   1       0.965   0.037  -0.060  0.00  0.00     0.149 C 
ATOM     30  C   UNL d   1       3.138   1.247  -0.392  0.00  0.00     0.149 C 
ENDBRANCH  25  28
ENDBRANCH  21  22
ENDBRANCH   1  20
TORSDOF 8
