REMARK  10 active torsions:
REMARK  status: ('A' for Active; 'I' for Inactive)
REMARK    1  A    between atoms: C_5  and  N_6 
REMARK       I    between atoms: N_6  and  C_7 
REMARK    2  A    between atoms: C_7  and  C_9 
REMARK    3  A    between atoms: C_9  and  C_10 
REMARK    4  A    between atoms: C_10  and  C_11 
REMARK       I    between atoms: C_11  and  N_13 
REMARK    5  A    between atoms: N_13  and  N_14 
REMARK    6  A    between atoms: N_14  and  C_15 
REMARK    7  A    between atoms: C_15  and  N_17 
REMARK       I    between atoms: N_17  and  C_18 
REMARK    8  A    between atoms: C_18  and  C_20 
REMARK    9  A    between atoms: C_20  and  O_21 
REMARK   10  A    between atoms: O_21  and  C_22 
ROOT
ATOM      1  C   UNL d   1      -8.251  -1.480  -0.214  0.00  0.00     0.236 C 
ATOM      2  O   UNL d   1      -8.264  -2.713  -0.255  0.00  0.00    -0.272 OA
ATOM      3  N   UNL d   1      -9.423  -0.736  -0.219  0.00  0.00    -0.268 N 
ATOM      4  H   UNL d   1      -9.433   0.287  -0.185  0.00  0.00     0.190 HD
ENDROOT
BRANCH   3   5
ATOM      5  N   UNL d   1     -10.746  -1.374  -0.274  0.00  0.00    -0.273 N 
ATOM      6  H   UNL d   1     -10.712  -2.392  -0.309  0.00  0.00     0.189 HD
BRANCH   5   7
ATOM      7  C   UNL d   1     -11.902  -0.564  -0.278  0.00  0.00     0.193 C 
ATOM      8  S   UNL d   1     -11.715   1.115  -0.216  0.00  0.00    -0.039 SA
BRANCH   7   9
ATOM      9  N   UNL d   1     -13.152  -1.249  -0.334  0.00  0.00    -0.301 N 
ATOM     10  C   UNL d   1     -14.441  -0.642  -0.351  0.00  0.00     0.248 C 
ATOM     11  O   UNL d   1     -14.594   0.580  -0.309  0.00  0.00    -0.271 OA
ATOM     12  H   UNL d   1     -13.121  -2.259  -0.369  0.00  0.00     0.171 HD
BRANCH  10  13
ATOM     13  C   UNL d   1     -15.724  -1.535  -0.415  0.00  0.00     0.278 C 
BRANCH  13  14
ATOM     14  O   UNL d   1     -16.877  -0.655  -0.493  0.00  0.00    -0.342 OA
BRANCH  14  15
ATOM     15  C   UNL d   1     -18.140  -1.180  -0.486  0.00  0.00     0.070 A 
ATOM     16  C   UNL d   1     -19.091  -0.548  -1.297  0.00  0.00     0.038 A 
ATOM     17  C   UNL d   1     -20.418  -0.998  -1.333  0.00  0.00     0.022 A 
ATOM     18  C   UNL d   1     -20.818  -2.071  -0.534  0.00  0.00     0.017 A 
ATOM     19 BR   UNL d   1     -22.633  -2.624  -0.674  0.00  0.00    -0.051 Br
ATOM     20  C   UNL d   1     -19.894  -2.689   0.321  0.00  0.00    -0.042 A 
ATOM     21  C   UNL d   1     -20.242  -3.837   1.228  0.00  0.00     0.049 C 
ATOM     22  C   UNL d   1     -18.556  -2.222   0.340  0.00  0.00     0.044 A 
ENDBRANCH  14  15
ENDBRANCH  13  14
ENDBRANCH  10  13
ENDBRANCH   7   9
ENDBRANCH   5   7
ENDBRANCH   3   5
BRANCH   1  23
ATOM     23  C   UNL d   1      -6.944  -0.677  -0.153  0.00  0.00     0.114 C 
BRANCH  23  24
ATOM     24  C   UNL d   1      -5.662  -1.566  -0.149  0.00  0.00     0.112 C 
BRANCH  24  25
ATOM     25  C   UNL d   1      -4.412  -0.696  -0.086  0.00  0.00     0.222 C 
ATOM     26  N   UNL d   1      -3.174  -1.345  -0.065  0.00  0.00    -0.327 N 
ATOM     27  H   UNL d   1      -3.150  -2.358  -0.105  0.00  0.00     0.169 HD
ATOM     28  O   UNL d   1      -4.570   0.529  -0.059  0.00  0.00    -0.273 OA
BRANCH  26  29
ATOM     29  C   UNL d   1      -1.904  -0.675  -0.020  0.00  0.00     0.035 A 
ATOM     30  C   UNL d   1      -1.816   0.717   0.022  0.00  0.00     0.030 A 
ATOM     31  C   UNL d   1      -0.600   1.390   0.024  0.00  0.00     0.009 A 
ATOM     32  C   UNL d   1       0.601   0.691   0.002  0.00  0.00    -0.056 A 
ATOM     33  C   UNL d   1       1.879   1.482  -0.015  0.00  0.00     0.049 C 
ATOM     34  C   UNL d   1       0.563  -0.718  -0.002  0.00  0.00    -0.054 A 
ATOM     35  C   UNL d   1      -0.692  -1.392  -0.020  0.00  0.00     0.037 A 
ATOM     36  C   UNL d   1       1.856  -1.493   0.020  0.00  0.00     0.049 C 
ENDBRANCH  26  29
ENDBRANCH  24  25
ENDBRANCH  23  24
ENDBRANCH   1  23
TORSDOF 10
