@<TRIPOS>MOLECULE
*****
 47 48 0 0 0
SMALL
GASTEIGER

@<TRIPOS>ATOM
      1 C           1.0449   -0.0810   -0.1460 C.3     1  UNL1       -0.0635
      2 C           2.5713   -0.0803   -0.0209 C.3     1  UNL1       -0.0352
      3 CA          3.1020    0.4193    1.3503 C.3     1  UNL1        0.0474
      4 C           2.5583   -0.4529    2.5145 C.3     1  UNL1        0.0626
      5 O           1.1421   -0.4285    2.6576 O.3     1  UNL1       -0.3932
      6 N           4.5856    0.4770    1.3891 N.am    1  UNL1       -0.2944
      7 C           5.2530    0.9772    2.4830 C.2     1  UNL1        0.3002
      8 O           4.6696    1.4334    3.4666 O.2     1  UNL1       -0.2528
      9 N           6.6196    0.8963    2.4211 N.am    1  UNL1       -0.2953
     10 C           7.4165    1.3560    3.5503 C.3     1  UNL1        0.0383
     11 C           8.9140    1.2732    3.3468 C.ar    1  UNL1       -0.0302
     12 C           9.5743    0.0418    3.2800 C.ar    1  UNL1       -0.0553
     13 C          10.9789   -0.0211    3.1999 C.ar    1  UNL1       -0.0403
     14 C          11.7701    1.1322    3.1206 C.ar    1  UNL1        0.0302
     15 N          13.1280    1.0666    2.8919 N.pl3   1  UNL1       -0.3196
     16 C          13.6709    0.3456    1.7412 C.3     1  UNL1        0.0283
     17 C          14.5367    1.3376    0.9501 C.3     1  UNL1        0.0274
     18 N          15.5836    1.9026    1.7812 N.am    1  UNL1       -0.3125
     19 C          15.3954    2.1787    3.1153 C.2     1  UNL1        0.2304
     20 O          16.2761    2.7801    3.7328 O.2     1  UNL1       -0.2741
     21 C          14.1233    1.6397    3.8161 C.3     1  UNL1        0.0885
     22 C          11.1036    2.3593    3.2146 C.ar    1  UNL1       -0.0403
     23 C           9.7011    2.4328    3.3178 C.ar    1  UNL1       -0.0553
     24 H           0.7287   -0.3868   -1.1473 H       1  UNL1        0.0230
     25 H           0.6333    0.9129    0.0592 H       1  UNL1        0.0230
     26 H           0.5758   -0.7987    0.5310 H       1  UNL1        0.0230
     27 H           2.9737    0.5495   -0.8246 H       1  UNL1        0.0281
     28 H           2.9382   -1.0961   -0.2117 H       1  UNL1        0.0281
     29 HA          2.7466    1.4504    1.4835 H       1  UNL1        0.0521
     30 H1          2.9553   -0.1348    3.4778 H       1  UNL1        0.0575
     31 H2          2.8678   -1.4921    2.3626 H       1  UNL1        0.0575
     32 H           0.8576    0.5011    2.6440 H       1  UNL1        0.2095
     33 H           5.1147    0.1602    0.5897 H       1  UNL1        0.1506
     34 H           7.0903    0.5872    1.5863 H       1  UNL1        0.1506
     35 H           7.1423    0.7620    4.4329 H       1  UNL1        0.0512
     36 H           7.1203    2.3882    3.7788 H       1  UNL1        0.0512
     37 H           9.0041   -0.8842    3.3088 H       1  UNL1        0.0621
     38 H          11.4606   -0.9956    3.2368 H       1  UNL1        0.0636
     39 H          12.8942   -0.0708    1.0915 H       1  UNL1        0.0479
     40 H          14.2972   -0.4823    2.0969 H       1  UNL1        0.0479
     41 H          13.9289    2.1729    0.5821 H       1  UNL1        0.0477
     42 H          15.0150    0.8523    0.0944 H       1  UNL1        0.0477
     43 H          16.4170    2.3003    1.3651 H       1  UNL1        0.1488
     44 H          13.7028    2.4506    4.4177 H       1  UNL1        0.0559
     45 H          14.4634    0.8387    4.4836 H       1  UNL1        0.0559
     46 H          11.6700    3.2869    3.1716 H       1  UNL1        0.0636
     47 H           9.2317    3.4134    3.3754 H       1  UNL1        0.0621
@<TRIPOS>BOND
     1     1     2    1
     2     2     3    1
     3     3     4    1
     4     4     5    1
     5     3     6    1
     6     6     7   am
     7     7     8    2
     8     7     9   am
     9     9    10    1
    10    10    11    1
    11    11    12   ar
    12    12    13   ar
    13    13    14   ar
    14    14    15    1
    15    15    16    1
    16    16    17    1
    17    17    18    1
    18    18    19   am
    19    19    20    2
    20    19    21    1
    21    15    21    1
    22    14    22   ar
    23    22    23   ar
    24    11    23   ar
    25     1    24    1
    26     1    25    1
    27     1    26    1
    28     2    27    1
    29     2    28    1
    30     3    29    1
    31     4    30    1
    32     4    31    1
    33     5    32    1
    34     6    33    1
    35     9    34    1
    36    10    35    1
    37    10    36    1
    38    12    37    1
    39    13    38    1
    40    16    39    1
    41    16    40    1
    42    17    41    1
    43    17    42    1
    44    18    43    1
    45    21    44    1
    46    21    45    1
    47    22    46    1
    48    23    47    1
