REMARK  7 active torsions:
REMARK  status: ('A' for Active; 'I' for Inactive)
REMARK    1  A    between atoms: O_2  and  C_3 
REMARK    2  A    between atoms: C_6  and  N_7 
REMARK       I    between atoms: N_7  and  C_8 
REMARK       I    between atoms: C_8  and  N_19 
REMARK       I    between atoms: N_9  and  C_10 
REMARK    3  A    between atoms: C_10  and  C_12 
REMARK    4  A    between atoms: N_19  and  C_20 
REMARK    5  A    between atoms: C_20  and  C_21 
REMARK    6  A    between atoms: C_21  and  C_22 
REMARK    7  A    between atoms: C_32  and  O_33 
ROOT
ATOM      1  N   UNL d   1       5.405  -4.571   0.543  0.00  0.00    -0.190 N 
ATOM      2  C   UNL d   1       4.931  -5.814   0.063  0.00  0.00     0.704 C 
ATOM      3  N   UNL d   1       3.869  -6.117  -0.632  0.00  0.00    -0.023 NA
ATOM      4  C   UNL d   1       2.768  -5.309  -0.508  0.00  0.00     0.293 C 
ATOM      5  O   UNL d   1       2.365  -4.921   0.567  0.00  0.00    -0.265 OA
ATOM      6  N   UNL d   1       5.720  -6.941   0.362  0.00  0.00    -0.224 N 
ATOM      7  H   UNL d   1       6.087  -4.602   1.288  0.00  0.00     0.184 HD
ATOM      8  H   UNL d   1       6.385  -6.907   1.127  0.00  0.00     0.177 HD
ENDROOT
BRANCH   1   9
ATOM      9  C   UNL d   1       4.846  -3.254   0.358  0.00  0.00     0.052 C 
ATOM     10  C   UNL d   1       5.098  -2.150   1.160  0.00  0.00     0.033 C 
ATOM     11  C   UNL d   1       4.263  -0.976   1.093  0.00  0.00     0.042 C 
ATOM     12  C   UNL d   1       3.096  -0.894   0.305  0.00  0.00     0.101 C 
ATOM     13  C   UNL d   1       2.876  -1.988  -0.491  0.00  0.00     0.103 C 
ATOM     14  C   UNL d   1       3.912  -2.962  -0.620  0.00  0.00     0.069 C 
BRANCH  12  15
ATOM     15  O   UNL d   1       2.527   0.348   0.170  0.00  0.00    -0.353 OA
ATOM     16  C   UNL d   1       1.125   0.581   0.283  0.00  0.00     0.210 C 
ENDBRANCH  12  15
BRANCH  13  17
ATOM     17  O   UNL d   1       1.740  -2.397  -1.108  0.00  0.00    -0.353 OA
ATOM     18  C   UNL d   1       0.666  -1.556  -1.393  0.00  0.00     0.210 C 
ENDBRANCH  13  17
ENDBRANCH   1   9
BRANCH   6  19
ATOM     19  C   UNL d   1       5.219  -8.288  -0.025  0.00  0.00     0.142 C 
BRANCH  19  20
ATOM     20  C   UNL d   1       6.095  -9.450   0.421  0.00  0.00     0.057 C 
BRANCH  20  21
ATOM     21  C   UNL d   1       5.720 -10.837  -0.056  0.00  0.00    -0.048 A 
ATOM     22  C   UNL d   1       6.498 -11.879   0.244  0.00  0.00    -0.006 A 
ATOM     23  C   UNL d   1       7.706 -11.940   0.984  0.00  0.00     0.014 A 
ATOM     24  C   UNL d   1       5.916 -13.059  -0.405  0.00  0.00     0.038 A 
ATOM     25  C   UNL d   1       8.392 -13.086   0.986  0.00  0.00     0.001 A 
ATOM     26  C   UNL d   1       7.846 -14.290   0.379  0.00  0.00     0.002 A 
ATOM     27  C   UNL d   1       6.672 -14.329  -0.288  0.00  0.00     0.030 A 
ATOM     28  N   UNL d   1       4.817 -12.770  -0.993  0.00  0.00    -0.385 N 
ATOM     29  C   UNL d   1       4.556 -11.291  -0.901  0.00  0.00     0.155 A 
ATOM     30  H   UNL d   1       4.235 -13.480  -1.439  0.00  0.00     0.160 HD
ENDBRANCH  20  21
ENDBRANCH  19  20
ENDBRANCH   6  19
BRANCH   4  31
ATOM     31  C   UNL d   1       1.843  -5.229  -1.694  0.00  0.00     0.034 C 
ATOM     32  C   UNL d   1       1.751  -4.269  -2.735  0.00  0.00     0.017 C 
ATOM     33  C   UNL d   1       0.524  -4.056  -3.381  0.00  0.00     0.007 C 
ATOM     34  C   UNL d   1      -0.535  -4.921  -3.136  0.00  0.00    -0.062 C 
ATOM     35  C   UNL d   1      -1.782  -4.860  -3.953  0.00  0.00     0.048 C 
ATOM     36  C   UNL d   1      -0.392  -5.930  -2.180  0.00  0.00     0.007 C 
ATOM     37  C   UNL d   1       0.775  -6.067  -1.456  0.00  0.00     0.017 C 
ENDBRANCH   4  31
TORSDOF 7
