REMARK  7 active torsions:
REMARK  status: ('A' for Active; 'I' for Inactive)
REMARK    1  A    between atoms: C_2  and  O_3 
REMARK    2  A    between atoms: O_3  and  C_4 
REMARK    3  A    between atoms: C_4  and  C_6 
REMARK    4  A    between atoms: C_9  and  N_10 
REMARK       I    between atoms: N_10  and  C_11 
REMARK       I    between atoms: C_11  and  N_23 
REMARK       I    between atoms: N_12  and  C_13 
REMARK    5  A    between atoms: C_13  and  C_15 
REMARK    6  A    between atoms: N_23  and  C_24 
REMARK    7  A    between atoms: C_24  and  C_25 
ROOT
ATOM      1  N   UNL d   1       6.271  -0.833  -6.908  0.00  0.00    -0.190 N 
ATOM      2  C   UNL d   1       5.651  -0.283  -8.046  0.00  0.00     0.704 C 
ATOM      3  N   UNL d   1       4.646   0.544  -7.924  0.00  0.00    -0.023 NA
ATOM      4  C   UNL d   1       3.902   1.195  -8.865  0.00  0.00     0.293 C 
ATOM      5  O   UNL d   1       4.052   1.347 -10.083  0.00  0.00    -0.265 OA
ATOM      6  N   UNL d   1       6.223  -0.730  -9.226  0.00  0.00    -0.220 N 
ATOM      7  H   UNL d   1       6.988  -1.529  -7.060  0.00  0.00     0.184 HD
ATOM      8  H   UNL d   1       7.051  -1.304  -9.257  0.00  0.00     0.178 HD
ENDROOT
BRANCH   1   9
ATOM      9  C   UNL d   1       5.852  -0.713  -5.545  0.00  0.00     0.049 A 
ATOM     10  C   UNL d   1       6.469  -1.410  -4.486  0.00  0.00     0.031 A 
ATOM     11  C   UNL d   1       5.968  -1.325  -3.153  0.00  0.00     0.020 A 
ATOM     12  C   UNL d   1       4.877  -0.498  -2.840  0.00  0.00     0.039 A 
ATOM     13  C   UNL d   1       4.300   0.234  -3.861  0.00  0.00     0.020 A 
ATOM     14  C   UNL d   1       4.797   0.128  -5.164  0.00  0.00     0.031 A 
BRANCH  12  15
ATOM     15  C   UNL d   1       4.442  -0.270  -1.434  0.00  0.00     0.293 C 
ATOM     16  O   UNL d   1       5.237  -0.168  -0.513  0.00  0.00    -0.259 OA
BRANCH  15  17
ATOM     17  O   UNL d   1       3.084  -0.179  -1.330  0.00  0.00    -0.318 OA
BRANCH  17  18
ATOM     18  C   UNL d   1       2.607   0.050   0.012  0.00  0.00     0.174 C 
ATOM     19  C   UNL d   1       1.085   0.055   0.036  0.00  0.00     0.034 C 
ENDBRANCH  17  18
ENDBRANCH  15  17
ENDBRANCH  12  15
ENDBRANCH   1   9
BRANCH   6  20
ATOM     20  C   UNL d   1       5.787  -0.169 -10.482  0.00  0.00     0.178 C 
BRANCH  20  21
ATOM     21  C   UNL d   1       6.394  -0.580 -11.761  0.00  0.00    -0.022 A 
ATOM     22  C   UNL d   1       6.873   0.386 -12.657  0.00  0.00     0.012 A 
ATOM     23  C   UNL d   1       7.330  -0.021 -13.894  0.00  0.00     0.020 A 
ATOM     24  C   UNL d   1       7.243  -1.371 -14.194  0.00  0.00     0.116 A 
ATOM     25  N   UNL d   1       6.695  -2.308 -13.386  0.00  0.00    -0.273 NA
ATOM     26  C   UNL d   1       6.260  -1.884 -12.190  0.00  0.00     0.124 A 
ENDBRANCH  20  21
ENDBRANCH   6  20
BRANCH   4  27
ATOM     27  C   UNL d   1       2.775   2.005  -8.463  0.00  0.00     0.035 A 
ATOM     28  C   UNL d   1       1.687   2.014  -9.348  0.00  0.00     0.017 A 
ATOM     29  C   UNL d   1       0.777   3.046  -9.298  0.00  0.00     0.008 A 
ATOM     30  C   UNL d   1       0.893   4.013  -8.294  0.00  0.00    -0.056 A 
ATOM     31  C   UNL d   1      -0.234   4.982  -8.121  0.00  0.00     0.049 C 
ATOM     32  C   UNL d   1       2.011   4.016  -7.427  0.00  0.00    -0.055 A 
ATOM     33  C   UNL d   1       2.255   5.098  -6.420  0.00  0.00     0.049 C 
ATOM     34  C   UNL d   1       2.967   3.006  -7.525  0.00  0.00     0.024 A 
ENDBRANCH   4  27
TORSDOF 7
