@<TRIPOS>MOLECULE
*****
 69 71 0 0 0
SMALL
GASTEIGER

@<TRIPOS>ATOM
      1 C           1.0337   -0.1722    0.8738 C.3     1  UNL1       -0.0652
      2 C           2.5351   -0.1801    0.7337 C.3     1  UNL1       -0.0528
      3 C           3.1246    0.9480    1.5196 C.3     1  UNL1       -0.0189
      4 C           4.6256    0.9675    1.2886 C.3     1  UNL1        0.0896
      5 O           5.0126    2.3278    1.4465 O.3     1  UNL1       -0.4912
      6 C           6.3548    2.5573    1.4125 C.ar    1  UNL1        0.1326
      7 C           6.8917    3.0682    2.6180 C.ar    1  UNL1       -0.0192
      8 C           8.2219    3.4816    2.7010 C.ar    1  UNL1       -0.0583
      9 C           9.0471    3.3154    1.6009 C.ar    1  UNL1       -0.0608
     10 C           8.5121    2.8202    0.4025 C.ar    1  UNL1       -0.0461
     11 C           7.1457    2.4661    0.2594 C.ar    1  UNL1        0.0786
     12 C           6.7257    1.9944   -1.1291 C.2     1  UNL1        0.2530
     13 O           7.6467    1.7517   -1.9059 O.2     1  UNL1       -0.2697
     14 N           5.3504    1.8827   -1.4847 N.am    1  UNL1       -0.2635
     15 C           4.7481    1.0977   -2.5275 C.2     1  UNL1        0.1401
     16 S           5.6702    0.4834   -3.8008 S.2     1  UNL1       -0.0183
     17 N           3.3599    0.7146   -2.3894 N.am    1  UNL1       -0.2988
     18 C           2.8960   -0.5960   -3.0101 C.3     1  UNL1        0.0301
     19 C           1.9106   -1.3555   -2.1290 C.3     1  UNL1        0.0274
     20 N           0.7567   -0.5117   -1.9395 N.am    1  UNL1       -0.3123
     21 C           0.7909    0.8661   -1.8804 C.2     1  UNL1        0.2341
     22 O          -0.2909    1.3994   -1.6403 O.2     1  UNL1       -0.2738
     23 C           2.1647    1.6620   -2.1478 C.3     1  UNL1        0.1113
     24 C           2.5332    2.7757   -1.1567 C.3     1  UNL1        0.0719
     25 C           1.4987    3.5464   -0.3848 C.2     1  UNL1        0.3094
     26 O           0.3124    3.6550   -0.7104 O.2     1  UNL1       -0.2508
     27 O           2.0249    4.2059    0.6988 O.3     1  UNL1       -0.4646
     28 C           1.0298    5.0188    1.3503 C.3     1  UNL1        0.0928
     29 C           1.6237    5.9284    2.4193 C.3     1  UNL1       -0.0146
     30 C           0.5338    6.8339    2.9932 C.3     1  UNL1       -0.0246
     31 C           1.0312    7.7909    4.0440 C.ar    1  UNL1       -0.0472
     32 C           1.5270    7.3254    5.2685 C.ar    1  UNL1       -0.0586
     33 C           1.7539    8.2184    6.3152 C.ar    1  UNL1       -0.0615
     34 C           1.5856    9.5874    6.1144 C.ar    1  UNL1       -0.0617
     35 C           1.1629   10.0639    4.8757 C.ar    1  UNL1       -0.0615
     36 C           0.8836    9.1692    3.8456 C.ar    1  UNL1       -0.0586
     37 H           0.5964   -1.0493    0.3928 H       1  UNL1        0.0230
     38 H           0.6330    0.7443    0.4385 H       1  UNL1        0.0230
     39 H           0.7022   -0.1539    1.9040 H       1  UNL1        0.0230
     40 H           2.8277   -0.0033   -0.2933 H       1  UNL1        0.0264
     41 H           2.9819   -1.1441    0.9810 H       1  UNL1        0.0264
     42 H           2.8533    0.8953    2.5674 H       1  UNL1        0.0298
     43 H           2.6457    1.8833    1.2332 H       1  UNL1        0.0298
     44 H           4.8616    0.6057    0.2856 H       1  UNL1        0.0696
     45 H           5.1259    0.2705    1.9602 H       1  UNL1        0.0696
     46 H           6.2666    3.1552    3.5063 H       1  UNL1        0.0654
     47 H           8.6113    3.9356    3.6111 H       1  UNL1        0.0619
     48 H          10.1024    3.5768    1.6640 H       1  UNL1        0.0618
     49 H           9.1897    2.7304   -0.4465 H       1  UNL1        0.0626
     50 H           4.7969    2.3015   -0.7627 H       1  UNL1        0.1568
     51 H           3.7175   -1.2724   -3.2406 H       1  UNL1        0.0480
     52 H           2.3574   -0.3454   -3.9322 H       1  UNL1        0.0480
     53 H           2.3543   -1.6664   -1.1782 H       1  UNL1        0.0477
     54 H           1.5566   -2.3025   -2.5522 H       1  UNL1        0.0477
     55 H          -0.1101   -0.9153   -1.5920 H       1  UNL1        0.1488
     56 H           1.9697    2.1506   -3.1088 H       1  UNL1        0.0602
     57 H           3.2363    3.4918   -1.5985 H       1  UNL1        0.0401
     58 H           3.1127    2.2582   -0.4254 H       1  UNL1        0.0401
     59 H           0.2750    4.3658    1.8081 H       1  UNL1        0.0697
     60 H           0.5492    5.6503    0.5937 H       1  UNL1        0.0697
     61 H           2.4257    6.5374    1.9876 H       1  UNL1        0.0301
     62 H           2.0823    5.3241    3.2094 H       1  UNL1        0.0301
     63 H          -0.2759    6.2394    3.4388 H       1  UNL1        0.0314
     64 H           0.0635    7.4025    2.1790 H       1  UNL1        0.0314
     65 H           1.7065    6.2649    5.4287 H       1  UNL1        0.0620
     66 H           2.0330    7.8439    7.2964 H       1  UNL1        0.0618
     67 H           1.7808   10.2831    6.9253 H       1  UNL1        0.0618
     68 H           1.0144   11.1286    4.7196 H       1  UNL1        0.0618
     69 H           0.5243    9.5507    2.8926 H       1  UNL1        0.0620
@<TRIPOS>BOND
     1     1     2    1
     2     2     3    1
     3     3     4    1
     4     4     5    1
     5     5     6    1
     6     6     7   ar
     7     7     8   ar
     8     8     9   ar
     9     9    10   ar
    10    10    11   ar
    11     6    11   ar
    12    11    12    1
    13    12    13    2
    14    12    14   am
    15    14    15    1
    16    15    16    2
    17    15    17    1
    18    17    18    1
    19    18    19    1
    20    19    20    1
    21    20    21   am
    22    21    22    2
    23    21    23    1
    24    17    23    1
    25    23    24    1
    26    24    25    1
    27    25    26    2
    28    25    27    1
    29    27    28    1
    30    28    29    1
    31    29    30    1
    32    30    31    1
    33    31    32   ar
    34    32    33   ar
    35    33    34   ar
    36    34    35   ar
    37    35    36   ar
    38    31    36   ar
    39     1    37    1
    40     1    38    1
    41     1    39    1
    42     2    40    1
    43     2    41    1
    44     3    42    1
    45     3    43    1
    46     4    44    1
    47     4    45    1
    48     7    46    1
    49     8    47    1
    50     9    48    1
    51    10    49    1
    52    14    50    1
    53    18    51    1
    54    18    52    1
    55    19    53    1
    56    19    54    1
    57    20    55    1
    58    23    56    1
    59    24    57    1
    60    24    58    1
    61    28    59    1
    62    28    60    1
    63    29    61    1
    64    29    62    1
    65    30    63    1
    66    30    64    1
    67    32    65    1
    68    33    66    1
    69    34    67    1
    70    35    68    1
    71    36    69    1
