REMARK  10 active torsions:
REMARK  status: ('A' for Active; 'I' for Inactive)
REMARK    1  A    between atoms: C_2  and  O_3 
REMARK    2  A    between atoms: C_2  and  C_4 
REMARK    3  A    between atoms: C_4  and  N_5 
REMARK    4  A    between atoms: N_5  and  C_6 
REMARK    5  A    between atoms: N_14  and  C_15 
REMARK    6  A    between atoms: C_15  and  C_16 
REMARK       I    between atoms: C_16  and  N_18 
REMARK    7  A    between atoms: N_18  and  C_19 
REMARK    8  A    between atoms: C_23  and  C_24 
REMARK       I    between atoms: C_24  and  N_26 
REMARK    9  A    between atoms: N_26  and  C_27 
REMARK   10  A    between atoms: C_31  and  C_32 
ROOT
ATOM      1  C   UNL d   1       3.688  -2.712   5.191  0.00  0.00     0.241 C 
ATOM      2  O   UNL d   1       4.609  -2.804   6.004  0.00  0.00    -0.271 OA
ATOM      3  N   UNL d   1       2.602  -3.518   5.478  0.00  0.00    -0.326 N 
ATOM      4  H   UNL d   1       2.186  -4.011   4.697  0.00  0.00     0.169 HD
ENDROOT
BRANCH   3   5
ATOM      5  C   UNL d   1       2.676  -4.209   6.755  0.00  0.00     0.035 A 
ATOM      6  C   UNL d   1       2.902  -3.477   7.942  0.00  0.00     0.029 A 
ATOM      7  C   UNL d   1       3.056  -4.116   9.172  0.00  0.00     0.003 A 
ATOM      8  C   UNL d   1       3.138  -5.503   9.209  0.00  0.00     0.017 A 
ATOM      9  C   UNL d   1       2.968  -6.263   8.032  0.00  0.00     0.034 A 
ATOM     10  C   UNL d   1       2.659  -5.606   6.821  0.00  0.00     0.046 A 
BRANCH   9  11
ATOM     11  C   UNL d   1       3.139  -7.752   8.150  0.00  0.00     0.256 C 
ATOM     12  O   UNL d   1       3.415  -8.212   9.258  0.00  0.00    -0.267 OA
ATOM     13  N   UNL d   1       3.041  -8.526   6.990  0.00  0.00    -0.323 N 
ATOM     14  H   UNL d   1       3.103  -8.077   6.091  0.00  0.00     0.169 HD
BRANCH  13  15
ATOM     15  C   UNL d   1       3.203  -9.933   7.016  0.00  0.00     0.035 C 
ATOM     16  C   UNL d   1       2.615 -10.688   8.032  0.00  0.00     0.029 C 
ATOM     17  C   UNL d   1       2.790 -12.068   8.092  0.00  0.00     0.003 C 
ATOM     18  C   UNL d   1       3.684 -12.683   7.225  0.00  0.00     0.016 C 
ATOM     19  C   UNL d   1       4.290 -11.946   6.196  0.00  0.00     0.050 C 
ATOM     20  C   UNL d   1       3.955 -10.585   6.031  0.00  0.00     0.045 C 
BRANCH  19  21
ATOM     21  C   UNL d   1       5.335 -12.625   5.345  0.00  0.00     0.417 C 
ATOM     22  F   UNL d   1       6.395 -13.066   6.082  0.00  0.00    -0.166 F 
ATOM     23  F   UNL d   1       4.852 -13.723   4.700  0.00  0.00    -0.166 F 
ATOM     24  F   UNL d   1       5.862 -11.822   4.381  0.00  0.00    -0.166 F 
ENDBRANCH  19  21
ENDBRANCH  13  15
ENDBRANCH   9  11
ENDBRANCH   3   5
BRANCH   1  25
ATOM     25  C   UNL d   1       3.837  -1.888   3.932  0.00  0.00     0.251 C 
BRANCH  25  26
ATOM     26  N   UNL d   1       4.930  -0.876   3.865  0.00  0.00    -0.171 N 
ATOM     27  C   UNL d   1       5.891  -0.519   4.813  0.00  0.00     0.081 A 
ATOM     28  C   UNL d   1       6.208  -0.875   6.140  0.00  0.00     0.032 A 
ATOM     29  C   UNL d   1       6.696   0.432   4.184  0.00  0.00     0.103 A 
ATOM     30  C   UNL d   1       7.279  -0.361   6.839  0.00  0.00     0.002 A 
ATOM     31  C   UNL d   1       8.056   0.591   6.243  0.00  0.00     0.002 A 
ATOM     32  C   UNL d   1       7.776   0.998   4.922  0.00  0.00     0.034 A 
ATOM     33  N   UNL d   1       6.260   0.647   2.891  0.00  0.00    -0.063 NA
ATOM     34  C   UNL d   1       5.210  -0.130   2.707  0.00  0.00     0.704 A 
BRANCH  34  35
ATOM     35  N   UNL d   1       4.549  -0.295   1.518  0.00  0.00    -0.222 N 
ATOM     36  H   UNL d   1       5.021   0.148   0.723  0.00  0.00     0.177 HD
BRANCH  35  37
ATOM     37  C   UNL d   1       3.098  -0.101   1.439  0.00  0.00     0.169 C 
BRANCH  37  38
ATOM     38  C   UNL d   1       2.575  -0.080  -0.009  0.00  0.00     0.132 C 
ATOM     39  C   UNL d   1       1.047  -0.092  -0.010  0.00  0.00     0.041 C 
BRANCH  38  40
ATOM     40  O   UNL d   1       3.034   1.072  -0.710  0.00  0.00    -0.394 OA
ATOM     41  H   UNL d   1       2.741   1.863  -0.225  0.00  0.00     0.210 HD
ENDBRANCH  38  40
ENDBRANCH  37  38
ENDBRANCH  35  37
ENDBRANCH  34  35
ENDBRANCH  25  26
ENDBRANCH   1  25
TORSDOF 10
