REMARK  4 active torsions:
REMARK  status: ('A' for Active; 'I' for Inactive)
REMARK    1  A    between atoms: C_4  and  C_5 
REMARK       I    between atoms: C_5  and  N_7 
REMARK    2  A    between atoms: N_7  and  C_8 
REMARK    3  A    between atoms: C_8  and  C_9 
REMARK    4  A    between atoms: C_21  and  N_22 
ROOT
ATOM      1  C   UNL d   1      -1.865  -2.545   0.008  0.00  0.00     0.251 C 
ATOM      2  O   UNL d   1      -1.248  -3.605   0.020  0.00  0.00    -0.268 OA
ATOM      3  N   UNL d   1      -3.245  -2.521   0.004  0.00  0.00    -0.351 N 
ATOM      4  H   UNL d   1      -3.701  -1.629  -0.005  0.00  0.00     0.163 HD
ENDROOT
BRANCH   3   5
ATOM      5  C   UNL d   1      -4.036  -3.741   0.014  0.00  0.00     0.181 C 
BRANCH   5   6
ATOM      6  C   UNL d   1      -5.497  -3.433   0.006  0.00  0.00     0.044 A 
ATOM      7  C   UNL d   1      -6.168  -2.225   0.002  0.00  0.00     0.125 A 
ATOM      8  N   UNL d   1      -7.525  -2.475  -0.005  0.00  0.00    -0.311 N 
ATOM      9  C   UNL d   1      -8.588  -1.568  -0.012  0.00  0.00     0.014 A 
ATOM     10  C   UNL d   1      -7.708  -3.810  -0.003  0.00  0.00     0.112 A 
ATOM     11  C   UNL d   1      -8.395  -0.079  -0.019  0.00  0.00     0.068 C 
ATOM     12  C   UNL d   1      -9.829  -2.104  -0.015  0.00  0.00     0.025 A 
ATOM     13  C   UNL d   1     -10.091  -3.537  -0.014  0.00  0.00     0.006 A 
ATOM     14  C   UNL d   1      -9.066  -4.406  -0.009  0.00  0.00     0.049 A 
ATOM     15  N   UNL d   1      -6.507  -4.391   0.003  0.00  0.00    -0.343 N 
ATOM     16  H   UNL d   1      -6.371  -5.398   0.004  0.00  0.00     0.167 HD
ENDBRANCH   5   6
ENDBRANCH   3   5
BRANCH   1  17
ATOM     17  C   UNL d   1      -1.145  -1.218   0.002  0.00  0.00     0.032 A 
ATOM     18  C   UNL d   1       0.263  -1.211   0.005  0.00  0.00     0.026 A 
ATOM     19  C   UNL d   1       1.010  -0.004   0.002  0.00  0.00    -0.028 A 
ATOM     20  C   UNL d   1       2.513  -0.088  -0.013  0.00  0.00     0.050 C 
ATOM     21  C   UNL d   1       0.314   1.222   0.003  0.00  0.00     0.108 A 
ATOM     22  C   UNL d   1      -1.091   1.219  -0.001  0.00  0.00     0.037 A 
ATOM     23  C   UNL d   1      -1.810   0.015  -0.006  0.00  0.00     0.019 A 
BRANCH  21  24
ATOM     24  N   UNL d   1       0.995   2.542  -0.001  0.00  0.00    -0.115 N 
ATOM     25  O   UNL d   1       0.272   3.549  -0.006  0.00  0.00    -0.532 OA
ATOM     26  O   UNL d   1       2.230   2.584   0.002  0.00  0.00    -0.532 OA
ENDBRANCH  21  24
ENDBRANCH   1  17
TORSDOF 4
