REMARK  7 active torsions:
REMARK  status: ('A' for Active; 'I' for Inactive)
REMARK    1  A    between atoms: C_3  and  N_4 
REMARK       I    between atoms: N_4  and  C_5 
REMARK    2  A    between atoms: C_5  and  C_7 
REMARK    3  A    between atoms: C_7  and  S_8 
REMARK    4  A    between atoms: S_8  and  C_9 
REMARK    5  A    between atoms: C_13  and  C_14 
REMARK    6  A    between atoms: C_14  and  C_15 
REMARK    7  A    between atoms: N_24  and  C_25 
ROOT
ATOM      1  N   UNL d   1       2.820  -2.534  -0.207  0.00  0.00    -0.326 N 
ATOM      2  C   UNL d   1       3.668  -3.632  -0.335  0.00  0.00     0.231 C 
ATOM      3  O   UNL d   1       4.897  -3.485  -0.393  0.00  0.00    -0.272 OA
ATOM      4  H   UNL d   1       1.818  -2.686  -0.234  0.00  0.00     0.168 HD
ENDROOT
BRANCH   2   5
ATOM      5  C   UNL d   1       3.017  -5.040  -0.427  0.00  0.00     0.185 C 
BRANCH   5   6
ATOM      6  S   UNL d   1       4.346  -6.277  -0.544  0.00  0.00    -0.083 SA
BRANCH   6   7
ATOM      7  C   UNL d   1       3.730  -7.879  -0.623  0.00  0.00     0.167 A 
ATOM      8  N   UNL d   1       4.513  -8.920  -0.489  0.00  0.00    -0.228 NA
ATOM      9  C   UNL d   1       3.733 -10.024  -0.704  0.00  0.00     0.056 A 
ATOM     10  C   UNL d   1       4.356 -11.370  -0.619  0.00  0.00     0.072 C 
ATOM     11  C   UNL d   1       2.418  -9.648  -0.959  0.00  0.00     0.040 A 
ATOM     12  N   UNL d   1       2.449  -8.259  -0.905  0.00  0.00    -0.337 N 
ATOM     13  H   UNL d   1       1.673  -7.636  -1.064  0.00  0.00     0.168 HD
BRANCH  11  14
ATOM     14  C   UNL d   1       1.163 -10.438  -1.232  0.00  0.00     0.097 C 
BRANCH  14  15
ATOM     15  C   UNL d   1       1.327 -11.944  -1.131  0.00  0.00    -0.052 A 
ATOM     16  C   UNL d   1       1.206 -12.787  -2.245  0.00  0.00     0.007 A 
ATOM     17  C   UNL d   1       1.440 -14.161  -2.117  0.00  0.00     0.001 A 
ATOM     18  C   UNL d   1       1.921 -14.686  -0.918  0.00  0.00     0.000 A 
ATOM     19  C   UNL d   1       2.061 -13.858   0.189  0.00  0.00     0.001 A 
ATOM     20  C   UNL d   1       1.688 -12.516   0.101  0.00  0.00     0.007 A 
ENDBRANCH  14  15
ENDBRANCH  11  14
ENDBRANCH   6   7
ENDBRANCH   5   6
ENDBRANCH   2   5
BRANCH   1  21
ATOM     21  C   UNL d   1       3.260  -1.206  -0.157  0.00  0.00     0.060 C 
ATOM     22  C   UNL d   1       2.498  -0.093  -0.136  0.00  0.00     0.047 C 
ATOM     23  C   UNL d   1       1.009   0.002  -0.057  0.00  0.00     0.072 C 
ATOM     24  N   UNL d   1       3.313   1.045  -0.249  0.00  0.00    -0.300 N 
ATOM     25  N   UNL d   1       4.664   0.717  -0.195  0.00  0.00    -0.282 N 
ATOM     26  H   UNL d   1       3.023   1.865   0.286  0.00  0.00     0.187 HD
ATOM     27  C   UNL d   1       4.748  -0.778  -0.101  0.00  0.00     0.156 C 
ATOM     28  C   UNL d   1       5.320  -1.082   1.287  0.00  0.00     0.041 C 
BRANCH  25  29
ATOM     29  C   UNL d   1       5.661   1.440  -0.889  0.00  0.00     0.051 A 
ATOM     30  C   UNL d   1       6.245   2.566  -0.278  0.00  0.00     0.031 A 
ATOM     31  C   UNL d   1       7.208   3.360  -0.931  0.00  0.00     0.002 A 
ATOM     32  C   UNL d   1       7.657   3.012  -2.199  0.00  0.00     0.000 A 
ATOM     33  C   UNL d   1       7.118   1.888  -2.819  0.00  0.00     0.002 A 
ATOM     34  C   UNL d   1       6.130   1.114  -2.172  0.00  0.00     0.031 A 
ENDBRANCH  25  29
ENDBRANCH   1  21
TORSDOF 7
