@<TRIPOS>MOLECULE
*****
 50 52 0 0 0
SMALL
GASTEIGER

@<TRIPOS>ATOM
      1 N          10.4095   -1.2343   -5.0963 N.3     1  UNL1       -0.2544
      2 N          10.0096   -0.1623   -4.2990 N.am    1  UNL1       -0.2525
      3 C           8.8192   -0.2930   -3.5816 C.2     1  UNL1        0.2402
      4 O           8.1012   -1.2932   -3.5925 O.2     1  UNL1       -0.2731
      5 C           8.4591    0.9898   -2.8953 C.3     1  UNL1        0.0751
      6 N           7.2095    0.9287   -2.1989 N.3     1  UNL1       -0.2976
      7 C           6.6753    2.1531   -1.6012 C.3     1  UNL1        0.0606
      8 C           5.1411    1.9277   -1.6872 C.ar    1  UNL1       -0.0260
      9 C           4.4370    2.3094   -2.8392 C.ar    1  UNL1       -0.0568
     10 C           3.0536    2.5149   -2.8066 C.ar    1  UNL1       -0.0614
     11 C           2.3285    2.1711   -1.6799 C.ar    1  UNL1       -0.0617
     12 C           2.9841    1.5333   -0.6343 C.ar    1  UNL1       -0.0614
     13 C           4.3849    1.4172   -0.6237 C.ar    1  UNL1       -0.0568
     14 C           7.1249    3.5980   -2.0551 C.ar    1  UNL1       -0.0038
     15 C           8.3000    3.8536   -2.8270 C.ar    1  UNL1       -0.0410
     16 C           8.6792    5.0965   -3.3259 C.ar    1  UNL1        0.0183
     17 BR         10.3147    5.2528   -4.2753 Br      1  UNL1       -0.0503
     18 C           7.8865    6.1832   -3.0706 C.ar    1  UNL1       -0.0460
     19 C           6.7789    6.0176   -2.2240 C.ar    1  UNL1       -0.0391
     20 C           6.4167    4.7653   -1.6546 C.ar    1  UNL1        0.0387
     21 N           5.3303    4.8059   -0.7143 N.am    1  UNL1       -0.2812
     22 C           5.1994    4.0210    0.4265 C.2     1  UNL1        0.2483
     23 O           6.1455    3.3839    0.9212 O.2     1  UNL1       -0.2699
     24 C           3.8465    3.8787    1.1018 C.ar    1  UNL1        0.0370
     25 C           3.7391    2.9115    2.1346 C.ar    1  UNL1       -0.0496
     26 C           2.4952    2.4767    2.6173 C.ar    1  UNL1       -0.0610
     27 C           1.3273    3.0616    2.1421 C.ar    1  UNL1       -0.0617
     28 C           1.4033    3.9862    1.0973 C.ar    1  UNL1       -0.0610
     29 C           2.6503    4.3765    0.5610 C.ar    1  UNL1       -0.0496
     30 H          11.2214   -0.9979   -5.6595 H       1  UNL1        0.1405
     31 H           9.6305   -1.4451   -5.7301 H       1  UNL1        0.1405
     32 H          10.5435    0.7079   -4.2843 H       1  UNL1        0.1687
     33 H           8.2926    1.6275   -3.7649 H       1  UNL1        0.0520
     34 H           9.2781    1.3068   -2.2348 H       1  UNL1        0.0520
     35 H           7.2358    0.2021   -1.4819 H       1  UNL1        0.1233
     36 H           7.0589    2.1052   -0.5789 H       1  UNL1        0.0561
     37 H           4.9893    2.5256   -3.7464 H       1  UNL1        0.0621
     38 H           2.5530    2.9940   -3.6404 H       1  UNL1        0.0618
     39 H           1.2818    2.4507   -1.5768 H       1  UNL1        0.0618
     40 H           2.4158    1.3141    0.2651 H       1  UNL1        0.0618
     41 H           4.8712    1.1096    0.3021 H       1  UNL1        0.0621
     42 H           9.0388    3.1152   -3.0703 H       1  UNL1        0.0632
     43 H           8.1570    7.1551   -3.4713 H       1  UNL1        0.0629
     44 H           6.2358    6.9176   -1.9523 H       1  UNL1        0.0636
     45 H           4.7324    5.6197   -0.7573 H       1  UNL1        0.1551
     46 H           4.6205    2.3437    2.4377 H       1  UNL1        0.0625
     47 H           2.4370    1.5966    3.2581 H       1  UNL1        0.0618
     48 H           0.3614    2.7141    2.5042 H       1  UNL1        0.0618
     49 H           0.4803    4.2940    0.6078 H       1  UNL1        0.0618
     50 H           2.6456    4.8990   -0.3922 H       1  UNL1        0.0625
@<TRIPOS>BOND
     1     1     2    1
     2     2     3   am
     3     3     4    2
     4     3     5    1
     5     5     6    1
     6     8     9   ar
     7     9    10   ar
     8    10    11   ar
     9    11    12   ar
    10    12    13   ar
    11     8    13   ar
    12     7    14    1
    13    14    15   ar
    14    15    16   ar
    15    16    17    1
    16    16    18   ar
    17    18    19   ar
    18    19    20   ar
    19    14    20   ar
    20    20    21    1
    21    21    22   am
    22    22    23    2
    23    22    24    1
    24    24    25   ar
    25    25    26   ar
    26    26    27   ar
    27    27    28   ar
    28    28    29   ar
    29    24    29   ar
    30     7     8    1
    31     7     6    1
    32     1    30    1
    33     1    31    1
    34     2    32    1
    35     5    33    1
    36     5    34    1
    37     6    35    1
    38     7    36    1
    39     9    37    1
    40    10    38    1
    41    11    39    1
    42    12    40    1
    43    13    41    1
    44    15    42    1
    45    18    43    1
    46    19    44    1
    47    21    45    1
    48    25    46    1
    49    26    47    1
    50    27    48    1
    51    28    49    1
    52    29    50    1
