@<TRIPOS>MOLECULE
*****
 52 54 0 0 0
SMALL
GASTEIGER

@<TRIPOS>ATOM
      1 C           0.9010    0.0054   -0.0261 C.3     1  UNL1       -0.0307
      2 C           2.4165   -0.0204    0.0079 C.3     1  UNL1        0.0870
      3 O           2.9234   -0.9447   -0.9598 O.3     1  UNL1       -0.4886
      4 C           3.5085   -0.5213   -2.1268 C.ar    1  UNL1        0.1623
      5 C           3.7548   -1.5635   -3.0627 C.ar    1  UNL1       -0.0077
      6 C           4.3374   -1.2989   -4.3186 C.ar    1  UNL1       -0.0018
      7 C           4.6101   -2.3844   -5.3274 C.2     1  UNL1        0.0529
      8 N           5.1461   -2.1230   -6.4870 N.2     1  UNL1       -0.1875
      9 N           5.4259   -3.1675   -7.3625 N.am    1  UNL1       -0.2030
     10 C           6.1012   -2.8958   -8.5686 C.2     1  UNL1        0.2633
     11 O           6.3723   -1.7567   -8.9491 O.2     1  UNL1       -0.2685
     12 C           6.4993   -4.0444   -9.4888 C.ar    1  UNL1        0.0402
     13 C           7.6316   -3.9733  -10.2798 C.ar    1  UNL1       -0.0495
     14 C           7.8547   -4.9354  -11.2913 C.ar    1  UNL1       -0.0592
     15 C           6.9095   -5.9327  -11.5926 C.ar    1  UNL1       -0.0353
     16 C           5.7618   -6.0009  -10.8283 C.ar    1  UNL1        0.1062
     17 S           4.4157   -7.1196  -11.2986 S.O2    1  UNL1        0.0609
     18 O           4.1146   -6.8515  -12.6998 O.2     1  UNL1       -0.1528
     19 O           4.8237   -8.4302  -10.8656 O.2     1  UNL1       -0.1528
     20 N           3.0062   -6.6891  -10.4109 N.3     1  UNL1       -0.1766
     21 C           2.2946   -5.4207  -10.7297 C.3     1  UNL1        0.0205
     22 C           2.8156   -4.4597   -9.6875 C.3     1  UNL1       -0.0373
     23 C           2.8835   -5.3603   -8.4324 C.3     1  UNL1       -0.0373
     24 C           3.0690   -6.8073   -8.9390 C.3     1  UNL1        0.0205
     25 C           5.6916   -5.1532   -9.7178 C.ar    1  UNL1       -0.0232
     26 C           4.6810    0.0185   -4.6276 C.ar    1  UNL1       -0.0494
     27 C           4.4624    1.0491   -3.7080 C.ar    1  UNL1       -0.0159
     28 C           3.8906    0.7833   -2.4637 C.ar    1  UNL1        0.1585
     29 O           3.7541    1.8311   -1.5999 O.3     1  UNL1       -0.5033
     30 H           0.5193    0.7458    0.6851 H       1  UNL1        0.0262
     31 H           0.4929   -0.9751    0.2322 H       1  UNL1        0.0262
     32 H           0.5378    0.2660   -1.0253 H       1  UNL1        0.0262
     33 H           2.7628   -0.3523    0.9926 H       1  UNL1        0.0694
     34 H           2.7607    1.0029   -0.0623 H       1  UNL1        0.0694
     35 H           3.4818   -2.5805   -2.7870 H       1  UNL1        0.0662
     36 H           4.3391   -3.4128   -5.0292 H       1  UNL1        0.0851
     37 H           5.2695   -4.1105   -7.0404 H       1  UNL1        0.1776
     38 H           8.3623   -3.1938  -10.0822 H       1  UNL1        0.0625
     39 H           8.7711   -4.8839  -11.8718 H       1  UNL1        0.0618
     40 H           7.0936   -6.6633  -12.3780 H       1  UNL1        0.0637
     41 H           1.2164   -5.5437  -10.5773 H       1  UNL1        0.0444
     42 H           2.4593   -5.0901  -11.7569 H       1  UNL1        0.0444
     43 H           2.2391   -3.5519   -9.5145 H       1  UNL1        0.0278
     44 H           3.7490   -4.0702  -10.0994 H       1  UNL1        0.0278
     45 H           1.9650   -5.2630   -7.8574 H       1  UNL1        0.0278
     46 H           3.6653   -5.1116   -7.7089 H       1  UNL1        0.0278
     47 H           2.2731   -7.4496   -8.5526 H       1  UNL1        0.0444
     48 H           4.0155   -7.2622   -8.6199 H       1  UNL1        0.0444
     49 H           4.9541   -5.3379   -8.9976 H       1  UNL1        0.0644
     50 H           5.1336    0.2567   -5.5873 H       1  UNL1        0.0625
     51 H           4.7541    2.0607   -3.9749 H       1  UNL1        0.0655
     52 H           4.0332    2.6673   -2.0023 H       1  UNL1        0.2923
@<TRIPOS>BOND
     1     1     2    1
     2     2     3    1
     3     3     4    1
     4     4     5   ar
     5     5     6   ar
     6     6     7    1
     7     7     8    2
     8     8     9    1
     9     9    10   am
    10    10    11    2
    11    10    12    1
    12    12    13   ar
    13    13    14   ar
    14    14    15   ar
    15    15    16   ar
    16    16    17    1
    17    17    18    2
    18    17    19    2
    19    17    20    1
    20    20    21    1
    21    21    22    1
    22    22    23    1
    23    23    24    1
    24    20    24    1
    25    16    25   ar
    26    12    25   ar
    27     6    26   ar
    28    26    27   ar
    29    27    28   ar
    30     4    28   ar
    31    28    29    1
    32     1    30    1
    33     1    31    1
    34     1    32    1
    35     2    33    1
    36     2    34    1
    37     5    35    1
    38     7    36    1
    39     9    37    1
    40    13    38    1
    41    14    39    1
    42    15    40    1
    43    21    41    1
    44    21    42    1
    45    22    43    1
    46    22    44    1
    47    23    45    1
    48    23    46    1
    49    24    47    1
    50    24    48    1
    51    25    49    1
    52    26    50    1
    53    27    51    1
    54    29    52    1
