REMARK  11 active torsions:
REMARK  status: ('A' for Active; 'I' for Inactive)
REMARK    1  A    between atoms: C_2  and  C_3 
REMARK    2  A    between atoms: C_3  and  C_4 
REMARK    3  A    between atoms: C_4  and  S_5 
REMARK    4  A    between atoms: S_5  and  C_6 
REMARK    5  A    between atoms: C_9  and  C_10 
REMARK       I    between atoms: C_10  and  N_12 
REMARK    6  A    between atoms: N_12  and  C_13 
REMARK    7  A    between atoms: C_14  and  C_13 
REMARK    8  A    between atoms: C_14  and  N_25 
REMARK    9  A    between atoms: C_14  and  C_15 
REMARK   10  A    between atoms: C_17  and  O_18 
REMARK   11  A    between atoms: C_22  and  O_23 
ROOT
ATOM      1  C   UNL d   1      13.926   0.581  -3.572  0.00  0.00     0.241 C 
ENDROOT
BRANCH   1   2
ATOM      2  N   UNL d   1      15.473   0.452  -3.358  0.00  0.00    -0.061 N 
ATOM      3  C   UNL d   1      16.052   1.589  -2.526  0.00  0.00     0.236 C 
ATOM      4  C   UNL d   1      17.533   1.445  -2.305  0.00  0.00     0.028 C 
ATOM      5  C   UNL d   1      17.801   0.142  -1.588  0.00  0.00     0.003 C 
ATOM      6  C   UNL d   1      17.368  -0.987  -2.509  0.00  0.00     0.028 C 
ATOM      7  C   UNL d   1      15.861  -0.913  -2.737  0.00  0.00     0.236 C 
ATOM      8  H   UNL d   1      15.890   0.500  -4.295  0.00  0.00     0.280 HD
ENDBRANCH   1   2
BRANCH   1   9
ATOM      9  C   UNL d   1      13.206   1.487  -2.606  0.00  0.00     0.010 C 
ATOM     10  C   UNL d   1      13.526   2.873  -2.696  0.00  0.00     0.049 C 
ATOM     11  C   UNL d   1      13.241   3.768  -1.676  0.00  0.00     0.069 C 
ATOM     12  C   UNL d   1      12.370   3.359  -0.689  0.00  0.00     0.039 C 
ATOM     13  C   UNL d   1      11.920   2.032  -0.657  0.00  0.00     0.040 C 
ATOM     14  C   UNL d   1      12.348   1.069  -1.587  0.00  0.00     0.076 C 
BRANCH  11  15
ATOM     15  O   UNL d   1      13.929   4.947  -1.722  0.00  0.00    -0.356 OA
ATOM     16  C   UNL d   1      13.721   5.828  -0.618  0.00  0.00     0.210 C 
ENDBRANCH  11  15
BRANCH  14  17
ATOM     17  O   UNL d   1      11.837  -0.173  -1.333  0.00  0.00    -0.355 OA
ATOM     18  C   UNL d   1      12.080  -1.261  -2.206  0.00  0.00     0.210 C 
ENDBRANCH  14  17
ENDBRANCH   1   9
BRANCH   1  19
ATOM     19  C   UNL d   1      13.456   0.879  -5.018  0.00  0.00     0.161 C 
BRANCH  19  20
ATOM     20  N   UNL d   1      14.075   0.007  -5.998  0.00  0.00    -0.354 N 
ATOM     21  C   UNL d   1      13.771   0.099  -7.339  0.00  0.00     0.256 C 
ATOM     22  O   UNL d   1      12.990   0.950  -7.764  0.00  0.00    -0.268 OA
ATOM     23  H   UNL d   1      14.510  -0.850  -5.679  0.00  0.00     0.162 HD
BRANCH  21  24
ATOM     24  C   UNL d   1      14.422  -0.860  -8.264  0.00  0.00     0.090 A 
ATOM     25  C   UNL d   1      14.196  -0.763  -9.619  0.00  0.00     0.139 A 
ATOM     26  N   UNL d   1      14.758  -1.589 -10.537  0.00  0.00    -0.234 NA
ATOM     27  C   UNL d   1      15.570  -2.558 -10.087  0.00  0.00     0.189 A 
ATOM     28  N   UNL d   1      15.870  -2.734  -8.798  0.00  0.00    -0.210 NA
ATOM     29  C   UNL d   1      15.293  -1.879  -7.932  0.00  0.00     0.146 A 
ATOM     30 CL   UNL d   1      15.823  -2.233  -6.323  0.00  0.00    -0.061 Cl
BRANCH  27  31
ATOM     31  S   UNL d   1      16.450  -3.536 -11.271  0.00  0.00    -0.090 SA
BRANCH  31  32
ATOM     32  C   UNL d   1      15.511  -5.105 -11.217  0.00  0.00     0.082 C 
BRANCH  32  33
ATOM     33  C   UNL d   1      16.147  -6.095 -12.203  0.00  0.00     0.010 C 
BRANCH  33  34
ATOM     34  C   UNL d   1      15.409  -7.436 -12.234  0.00  0.00    -0.004 C 
ATOM     35  C   UNL d   1      16.059  -8.397 -13.221  0.00  0.00     0.005 C 
ENDBRANCH  33  34
ENDBRANCH  32  33
ENDBRANCH  31  32
ENDBRANCH  27  31
ENDBRANCH  21  24
ENDBRANCH  19  20
ENDBRANCH   1  19
TORSDOF 11
