REMARK  6 active torsions:
REMARK  status: ('A' for Active; 'I' for Inactive)
REMARK    1  A    between atoms: C_2  and  C_3 
REMARK    2  A    between atoms: C_6  and  N_7 
REMARK       I    between atoms: N_7  and  C_8 
REMARK       I    between atoms: C_8  and  N_10 
REMARK    3  A    between atoms: N_10  and  C_11 
REMARK    4  A    between atoms: C_13  and  N_14 
REMARK       I    between atoms: N_14  and  C_15 
REMARK    5  A    between atoms: C_15  and  C_17 
REMARK    6  A    between atoms: C_26  and  N_27 
ROOT
ATOM      1  C   UNL d   1       3.033   8.165  -3.349  0.00  0.00     0.065 A 
ATOM      2  C   UNL d   1       2.638   9.007  -4.442  0.00  0.00     0.061 A 
ATOM      3  C   UNL d   1       2.066  10.285  -4.219  0.00  0.00     0.037 A 
ATOM      4  C   UNL d   1       1.785  10.634  -2.903  0.00  0.00     0.032 A 
ATOM      5  C   UNL d   1       2.157   9.825  -1.837  0.00  0.00     0.034 A 
ATOM      6  C   UNL d   1       2.799   8.595  -2.012  0.00  0.00     0.057 A 
ENDROOT
BRANCH   1   7
ATOM      7  N   UNL d   1       3.693   6.902  -3.612  0.00  0.00    -0.306 N 
ATOM      8  C   UNL d   1       3.167   5.735  -3.072  0.00  0.00     0.325 C 
ATOM      9  N   UNL d   1       4.003   4.607  -3.107  0.00  0.00    -0.309 N 
ATOM     10  O   UNL d   1       2.042   5.730  -2.568  0.00  0.00    -0.247 OA
ATOM     11  H   UNL d   1       4.803   4.601  -3.721  0.00  0.00     0.170 HD
ATOM     12  H   UNL d   1       4.222   6.822  -4.466  0.00  0.00     0.170 HD
BRANCH   9  13
ATOM     13  C   UNL d   1       3.736   3.406  -2.348  0.00  0.00     0.036 C 
ATOM     14  C   UNL d   1       4.465   2.224  -2.509  0.00  0.00     0.030 C 
ATOM     15  C   UNL d   1       4.080   1.044  -1.813  0.00  0.00     0.009 C 
ATOM     16  C   UNL d   1       3.067   1.069  -0.841  0.00  0.00    -0.058 C 
ATOM     17  C   UNL d   1       2.466   2.286  -0.577  0.00  0.00     0.009 C 
ATOM     18  C   UNL d   1       2.748   3.387  -1.362  0.00  0.00     0.030 C 
BRANCH  16  19
ATOM     19  C   UNL d   1       2.589  -0.124  -0.051  0.00  0.00     0.034 C 
ATOM     20  C   UNL d   1       1.056  -0.189  -0.006  0.00  0.00     0.010 C 
ENDBRANCH  16  19
ENDBRANCH   9  13
ENDBRANCH   1   7
BRANCH   6  21
ATOM     21  N   UNL d   1       3.177   7.968  -0.837  0.00  0.00    -0.379 N 
ATOM     22  C   UNL d   1       4.483   7.394  -0.580  0.00  0.00     0.123 C 
ATOM     23  C   UNL d   1       4.184   6.022  -0.015  0.00  0.00     0.021 C 
ATOM     24  C   UNL d   1       2.845   6.177   0.691  0.00  0.00     0.021 C 
ATOM     25  C   UNL d   1       2.134   7.326  -0.030  0.00  0.00     0.123 C 
ENDBRANCH   6  21
BRANCH   3  26
ATOM     26  N   UNL d   1       1.837  11.227  -5.281  0.00  0.00    -0.323 N 
ATOM     27  C   UNL d   1       1.508  12.572  -5.079  0.00  0.00     0.256 C 
ATOM     28  O   UNL d   1       1.275  13.127  -3.998  0.00  0.00    -0.267 OA
ATOM     29  H   UNL d   1       2.099  10.939  -6.217  0.00  0.00     0.169 HD
BRANCH  27  30
ATOM     30  C   UNL d   1       1.442  13.491  -6.237  0.00  0.00     0.032 A 
ATOM     31  C   UNL d   1       1.903  14.813  -6.052  0.00  0.00     0.020 A 
ATOM     32  C   UNL d   1       1.682  15.785  -7.027  0.00  0.00     0.043 A 
ATOM     33  C   UNL d   1       1.055  15.419  -8.210  0.00  0.00     0.116 A 
ATOM     34  F   UNL d   1       0.898  16.330  -9.179  0.00  0.00    -0.206 F 
ATOM     35  C   UNL d   1       0.592  14.118  -8.405  0.00  0.00     0.043 A 
ATOM     36  C   UNL d   1       0.771  13.149  -7.412  0.00  0.00     0.020 A 
ENDBRANCH  27  30
ENDBRANCH   3  26
TORSDOF 6
