REMARK  16 active torsions:
REMARK  status: ('A' for Active; 'I' for Inactive)
REMARK    1  A    between atoms: C_2  and  C_3 
REMARK    2  A    between atoms: C_3  and  C_4 
REMARK    3  A    between atoms: C_4  and  C_5 
REMARK    4  A    between atoms: C_5  and  C_6 
REMARK    5  A    between atoms: C_6  and  N_7 
REMARK       I    between atoms: N_7  and  C_8 
REMARK    6  A    between atoms: C_18  and  N_7 
REMARK    7  A    between atoms: C_8  and  C_10 
REMARK    8  A    between atoms: C_10  and  C_11 
REMARK    9  A    between atoms: C_18  and  C_26 
REMARK   10  A    between atoms: C_18  and  C_19 
REMARK       I    between atoms: C_19  and  N_21 
REMARK   11  A    between atoms: N_21  and  C_22 
REMARK   12  A    between atoms: C_22  and  C_23 
REMARK   13  A    between atoms: C_23  and  C_24 
REMARK   14  A    between atoms: C_27  and  O_28 
REMARK   15  A    between atoms: C_30  and  O_31 
REMARK   16  A    between atoms: C_33  and  O_34 
ROOT
ATOM      1  C   UNL d   1       8.539   4.239   1.594  0.00  0.00     0.218 C 
ENDROOT
BRANCH   1   2
ATOM      2  C   UNL d   1       9.263   2.895   1.862  0.00  0.00     0.040 C 
ATOM      3  C   UNL d   1      10.644   2.819   2.160  0.00  0.00     0.080 C 
ATOM      4  C   UNL d   1      11.374   1.624   2.070  0.00  0.00     0.073 C 
ATOM      5  C   UNL d   1      10.691   0.439   1.853  0.00  0.00     0.071 C 
ATOM      6  C   UNL d   1       9.312   0.442   1.756  0.00  0.00     0.073 C 
ATOM      7  C   UNL d   1       8.616   1.651   1.803  0.00  0.00     0.080 C 
BRANCH   3   8
ATOM      8  O   UNL d   1      11.374   3.942   2.479  0.00  0.00    -0.360 OA
ATOM      9  H   UNL d   1      11.138   4.589   1.777  0.00  0.00     0.217 HD
ENDBRANCH   3   8
BRANCH   5  10
ATOM     10  O   UNL d   1      11.320  -0.767   1.778  0.00  0.00    -0.361 OA
ATOM     11  H   UNL d   1      12.273  -0.630   1.898  0.00  0.00     0.217 HD
ENDBRANCH   5  10
BRANCH   7  12
ATOM     12  O   UNL d   1       7.261   1.562   1.938  0.00  0.00    -0.360 OA
ATOM     13  H   UNL d   1       6.930   0.818   1.408  0.00  0.00     0.217 HD
ENDBRANCH   7  12
ENDBRANCH   1   2
BRANCH   1  14
ATOM     14  C   UNL d   1       6.985   4.093   1.439  0.00  0.00     0.245 C 
ATOM     15  O   UNL d   1       6.448   3.458   0.523  0.00  0.00    -0.271 OA
ATOM     16  N   UNL d   1       6.213   4.910   2.255  0.00  0.00    -0.359 N 
ATOM     17  H   UNL d   1       6.636   5.689   2.742  0.00  0.00     0.162 HD
BRANCH  16  18
ATOM     18  C   UNL d   1       4.774   4.823   2.147  0.00  0.00     0.122 C 
BRANCH  18  19
ATOM     19  C   UNL d   1       4.080   5.955   2.878  0.00  0.00     0.019 C 
BRANCH  19  20
ATOM     20  C   UNL d   1       2.566   5.792   2.807  0.00  0.00    -0.003 C 
ATOM     21  C   UNL d   1       1.879   6.925   3.546  0.00  0.00     0.005 C 
ENDBRANCH  19  20
ENDBRANCH  18  19
ENDBRANCH  16  18
ENDBRANCH   1  14
BRANCH   1  22
ATOM     22  N   UNL d   1       8.903   5.027   0.311  0.00  0.00    -0.334 N 
ATOM     23  C   UNL d   1      10.072   4.798  -0.397  0.00  0.00     0.225 C 
ATOM     24  O   UNL d   1      11.046   4.348   0.225  0.00  0.00    -0.273 OA
BRANCH  22  25
ATOM     25  C   UNL d   1       8.177   6.308   0.171  0.00  0.00     0.127 C 
BRANCH  25  26
ATOM     26  C   UNL d   1       8.526   7.015  -1.090  0.00  0.00     0.020 C 
BRANCH  26  27
ATOM     27  C   UNL d   1       7.825   8.273  -1.412  0.00  0.00     0.002 C 
BRANCH  27  28
ATOM     28  C   UNL d   1       8.390   8.740  -2.751  0.00  0.00    -0.000 C 
BRANCH  28  29
ATOM     29  C   UNL d   1       7.650  10.000  -3.114  0.00  0.00    -0.005 C 
ATOM     30  C   UNL d   1       8.143  10.556  -4.425  0.00  0.00     0.005 C 
ENDBRANCH  28  29
ENDBRANCH  27  28
ENDBRANCH  26  27
ENDBRANCH  25  26
ENDBRANCH  22  25
BRANCH  23  31
ATOM     31  C   UNL d   1      10.425   5.215  -1.818  0.00  0.00     0.142 C 
BRANCH  31  32
ATOM     32  C   UNL d   1      11.120   4.265  -2.763  0.00  0.00    -0.043 A 
ATOM     33  C   UNL d   1      11.477   4.825  -4.011  0.00  0.00     0.008 A 
ATOM     34  C   UNL d   1      12.058   4.040  -4.998  0.00  0.00     0.001 A 
ATOM     35  C   UNL d   1      12.302   2.696  -4.749  0.00  0.00     0.001 A 
ATOM     36  C   UNL d   1      11.952   2.136  -3.530  0.00  0.00     0.007 A 
ATOM     37  C   UNL d   1      11.337   2.898  -2.543  0.00  0.00    -0.055 A 
ATOM     38  C   UNL d   1      11.009   2.174  -1.282  0.00  0.00     0.049 C 
ENDBRANCH  31  32
ENDBRANCH  23  31
ENDBRANCH   1  22
TORSDOF 16
