@<TRIPOS>MOLECULE
*****
 51 51 0 0 0
SMALL
GASTEIGER

@<TRIPOS>ATOM
      1 C           1.0284    0.1041   -0.0136 C.3     1  UNL1       -0.0622
      2 C           2.5539    0.1213    0.0052 C.3     1  UNL1       -0.0214
      3 C           3.0948    1.0889    1.0614 C.3     1  UNL1        0.0922
      4 O           4.5391    1.1004    1.0739 O.3     1  UNL1       -0.4646
      5 C           5.0789    1.9498    2.0010 C.2     1  UNL1        0.3075
      6 O           4.4145    2.6508    2.7684 O.2     1  UNL1       -0.2508
      7 C           6.5864    1.9399    1.9890 C.3     1  UNL1        0.0532
      8 C           7.2064    2.9131    3.0476 C.3     1  UNL1        0.0344
      9 C           8.7257    2.8413    2.9587 C.2     1  UNL1        0.2190
     10 O           9.1794    2.0963    2.0895 O.2     1  UNL1       -0.2754
     11 N           9.5221    3.6151    3.8305 N.am    1  UNL1       -0.2676
     12 C          10.9404    3.5255    3.9086 C.2     1  UNL1        0.1408
     13 S          11.8245    2.3652    3.0365 S.2     1  UNL1       -0.0182
     14 N          11.5601    4.4218    4.8309 N.am    1  UNL1       -0.2965
     15 C          12.9946    4.5975    4.9141 C.ar    1  UNL1        0.0343
     16 C          13.7263    4.6576    6.0923 C.ar    1  UNL1       -0.0404
     17 C          15.1342    4.8082    6.0317 C.ar    1  UNL1       -0.0583
     18 C          15.8228    4.8645    4.7988 C.ar    1  UNL1       -0.0404
     19 C          15.0948    4.8476    3.6129 C.ar    1  UNL1        0.0351
     20 N          15.7166    4.9440    2.3304 N.am    1  UNL1       -0.2852
     21 C          15.0086    4.9413    1.1273 C.2     1  UNL1        0.2198
     22 O          13.7840    4.8851    1.0216 O.2     1  UNL1       -0.2752
     23 C          15.8000    5.0810   -0.1625 C.3     1  UNL1        0.0303
     24 C          16.7955    3.9494   -0.3423 C.3     1  UNL1       -0.0544
     25 C          14.7922    5.0580   -1.3323 C.3     1  UNL1       -0.0544
     26 C          13.7059    4.7524    3.7273 C.ar    1  UNL1       -0.0192
     27 H           0.6572   -0.5922   -0.7736 H       1  UNL1        0.0231
     28 H           0.6248    1.0960   -0.2433 H       1  UNL1        0.0231
     29 H           0.6248   -0.2115    0.9544 H       1  UNL1        0.0231
     30 H           2.9277    0.4017   -0.9864 H       1  UNL1        0.0295
     31 H           2.9277   -0.8910    0.1979 H       1  UNL1        0.0295
     32 H           2.7319    0.7810    2.0492 H       1  UNL1        0.0697
     33 H           2.7319    2.0999    0.8411 H       1  UNL1        0.0697
     34 H           6.9246    2.2209    0.9819 H       1  UNL1        0.0382
     35 H           6.9269    0.9131    2.1830 H       1  UNL1        0.0382
     36 H           6.8790    2.6179    4.0496 H       1  UNL1        0.0364
     37 H           6.8727    3.9353    2.8440 H       1  UNL1        0.0364
     38 H           9.0482    4.2486    4.4598 H       1  UNL1        0.1565
     39 H          11.0277    4.8752    5.5610 H       1  UNL1        0.1538
     40 H          13.2522    4.5159    7.0581 H       1  UNL1        0.0636
     41 H          15.7053    4.8735    6.9580 H       1  UNL1        0.0619
     42 H          16.9090    4.9284    4.8013 H       1  UNL1        0.0636
     43 H          16.7251    5.0290    2.3072 H       1  UNL1        0.1548
     44 H          16.3064    6.0524   -0.1519 H       1  UNL1        0.0389
     45 H          16.2892    2.9777   -0.3181 H       1  UNL1        0.0237
     46 H          17.5511    3.9525    0.4472 H       1  UNL1        0.0237
     47 H          17.3070    4.0424   -1.3059 H       1  UNL1        0.0237
     48 H          14.2323    4.1118   -1.3463 H       1  UNL1        0.0237
     49 H          15.2842    5.1727   -2.2998 H       1  UNL1        0.0237
     50 H          14.0507    5.8614   -1.2310 H       1  UNL1        0.0237
     51 H          13.0869    4.7960    2.8505 H       1  UNL1        0.0655
@<TRIPOS>BOND
     1     1     2    1
     2     2     3    1
     3     3     4    1
     4     4     5    1
     5     5     6    2
     6     5     7    1
     7     7     8    1
     8     8     9    1
     9     9    10    2
    10     9    11   am
    11    11    12    1
    12    12    13    2
    13    12    14    1
    14    14    15    1
    15    15    16   ar
    16    16    17   ar
    17    17    18   ar
    18    18    19   ar
    19    19    20    1
    20    20    21   am
    21    21    22    2
    22    21    23    1
    23    23    24    1
    24    23    25    1
    25    19    26   ar
    26    15    26   ar
    27     1    27    1
    28     1    28    1
    29     1    29    1
    30     2    30    1
    31     2    31    1
    32     3    32    1
    33     3    33    1
    34     7    34    1
    35     7    35    1
    36     8    36    1
    37     8    37    1
    38    11    38    1
    39    14    39    1
    40    16    40    1
    41    17    41    1
    42    18    42    1
    43    20    43    1
    44    23    44    1
    45    24    45    1
    46    24    46    1
    47    24    47    1
    48    25    48    1
    49    25    49    1
    50    25    50    1
    51    26    51    1
