@<TRIPOS>MOLECULE
*****
 30 30 0 0 0
SMALL
GASTEIGER

@<TRIPOS>ATOM
      1 C           1.1554    0.0154    0.0323 C.3     1  UNL1       -0.0436
      2 C           2.6699    0.0148    0.0310 C.2     1  UNL1       -0.0708
      3 C           3.3102    0.3183    1.3621 C.3     1  UNL1       -0.0436
      4 C           3.3986   -0.2388   -1.0857 C.2     1  UNL1        0.0003
      5 C           4.9089   -0.2454   -1.1177 C.2     1  UNL1        0.2529
      6 O           5.5995   -0.0254   -0.1231 O.2     1  UNL1       -0.2693
      7 N           5.5018   -0.5162   -2.3381 N.am    1  UNL1       -0.2306
      8 N           6.9324   -0.5346   -2.3854 N.am    1  UNL1       -0.2297
      9 C           7.6191   -0.7663   -3.5738 C.2     1  UNL1        0.2670
     10 O           6.9929   -0.9485   -4.6254 O.2     1  UNL1       -0.2681
     11 C           9.0877   -0.7934   -3.4823 C.ar    1  UNL1        0.0782
     12 S          10.0285   -0.0773   -4.7366 S.2     1  UNL1       -0.0918
     13 C          11.5103   -0.5228   -4.0053 C.ar    1  UNL1       -0.0233
     14 C          11.3062   -1.2279   -2.8435 C.ar    1  UNL1       -0.0511
     15 C           9.9121   -1.3913   -2.5314 C.ar    1  UNL1       -0.0312
     16 C           9.4356   -2.1725   -1.3574 C.3     1  UNL1       -0.0385
     17 H           0.7462    0.2418    1.0261 H       1  UNL1        0.0274
     18 H           0.7563   -0.9641   -0.2506 H       1  UNL1        0.0274
     19 H           0.7564    0.7757   -0.6469 H       1  UNL1        0.0274
     20 H           2.5779    0.4991    2.1549 H       1  UNL1        0.0274
     21 H           3.9244    1.2216    1.2896 H       1  UNL1        0.0274
     22 H           3.9242   -0.5273    1.6884 H       1  UNL1        0.0274
     23 H           2.8875   -0.4511   -2.0196 H       1  UNL1        0.0669
     24 H           5.0099   -0.7137   -3.2060 H       1  UNL1        0.1731
     25 H           7.3992   -0.2727   -1.5187 H       1  UNL1        0.1731
     26 H          12.4628   -0.2704   -4.4581 H       1  UNL1        0.0694
     27 H          12.1215   -1.6279   -2.2482 H       1  UNL1        0.0626
     28 H          10.2730   -2.5781   -0.7826 H       1  UNL1        0.0278
     29 H           8.8122   -3.0064   -1.6944 H       1  UNL1        0.0278
     30 H           8.8557   -1.5329   -0.6892 H       1  UNL1        0.0278
@<TRIPOS>BOND
     1     1     2    1
     2     2     3    1
     3     2     4    2
     4     4     5    1
     5     5     6    2
     6     5     7   am
     7     7     8    1
     8     8     9   am
     9     9    10    2
    10     9    11    1
    11    11    12   ar
    12    12    13   ar
    13    13    14   ar
    14    14    15   ar
    15    11    15   ar
    16    15    16    1
    17     1    17    1
    18     1    18    1
    19     1    19    1
    20     3    20    1
    21     3    21    1
    22     3    22    1
    23     4    23    1
    24     7    24    1
    25     8    25    1
    26    13    26    1
    27    14    27    1
    28    16    28    1
    29    16    29    1
    30    16    30    1
