REMARK  10 active torsions:
REMARK  status: ('A' for Active; 'I' for Inactive)
REMARK    1  A    between atoms: C_2  and  C_10 
REMARK    2  A    between atoms: C_3  and  C_4 
REMARK    3  A    between atoms: C_10  and  N_11 
REMARK    4  A    between atoms: C_12  and  N_11 
REMARK    5  A    between atoms: C_14  and  C_15 
REMARK       I    between atoms: C_15  and  N_17 
REMARK    6  A    between atoms: N_17  and  C_18 
REMARK    7  A    between atoms: C_18  and  C_19 
REMARK    8  A    between atoms: C_19  and  C_20 
REMARK    9  A    between atoms: N_29  and  C_30 
REMARK   10  A    between atoms: C_30  and  C_31 
ROOT
ATOM      1  C   UNL d   1       5.451   1.815   1.474  0.00  0.00     0.249 C 
ATOM      2  C   UNL d   1       5.020   1.716   2.909  0.00  0.00     0.080 C 
ATOM      3  C   UNL d   1       4.122   2.874   3.217  0.00  0.00     0.281 C 
ATOM      4  N   UNL d   1       4.681   4.026   2.294  0.00  0.00    -0.052 N 
ATOM      5  C   UNL d   1       5.336   3.307   1.101  0.00  0.00     0.271 C 
ATOM      6  H   UNL d   1       3.918   4.601   1.915  0.00  0.00     0.281 HD
ENDROOT
BRANCH   3   7
ATOM      7  C   UNL d   1       4.280   2.922   4.768  0.00  0.00     0.248 C 
ATOM      8  O   UNL d   1       5.240   3.443   5.292  0.00  0.00    -0.271 OA
ATOM      9  N   UNL d   1       3.293   2.291   5.516  0.00  0.00    -0.359 N 
ATOM     10  H   UNL d   1       2.842   1.449   5.188  0.00  0.00     0.162 HD
BRANCH   9  11
ATOM     11  C   UNL d   1       3.188   2.594   6.936  0.00  0.00     0.127 C 
BRANCH  11  12
ATOM     12  C   UNL d   1       2.507   1.536   7.780  0.00  0.00     0.058 C 
BRANCH  12  13
ATOM     13  C   UNL d   1       2.586   1.939   9.224  0.00  0.00    -0.054 C 
ATOM     14  C   UNL d   1       1.953   3.004   9.866  0.00  0.00     0.007 C 
ATOM     15  C   UNL d   1       2.158   3.163  11.257  0.00  0.00     0.022 C 
ATOM     16  C   UNL d   1       3.118   2.352  11.888  0.00  0.00     0.170 C 
ATOM     17  C   UNL d   1       4.070   1.777  11.106  0.00  0.00     0.092 C 
ATOM     18  O   UNL d   1       2.812   1.271  12.800  0.00  0.00    -0.341 OA
ATOM     19  C   UNL d   1       3.590   1.284   9.917  0.00  0.00     0.043 C 
ATOM     20  O   UNL d   1       4.941   1.000  11.825  0.00  0.00    -0.327 OA
ATOM     21  C   UNL d   1       3.908   0.316  12.519  0.00  0.00     0.346 C 
ENDBRANCH  12  13
ENDBRANCH  11  12
ENDBRANCH   9  11
ENDBRANCH   3   7
BRANCH   4  22
ATOM     22  C   UNL d   1       5.601   5.040   2.949  0.00  0.00     0.274 C 
BRANCH  22  23
ATOM     23  C   UNL d   1       4.939   6.068   3.869  0.00  0.00    -0.031 C 
ATOM     24  C   UNL d   1       5.484   7.350   4.002  0.00  0.00     0.009 C 
ATOM     25  C   UNL d   1       5.209   8.131   5.136  0.00  0.00     0.002 C 
ATOM     26  C   UNL d   1       4.430   7.633   6.169  0.00  0.00     0.024 C 
ATOM     27  C   UNL d   1       3.796   6.430   5.996  0.00  0.00     0.034 C 
ATOM     28 CL   UNL d   1       2.895   5.835   7.325  0.00  0.00    -0.084 Cl
ATOM     29  C   UNL d   1       3.928   5.743   4.789  0.00  0.00     0.032 C 
ENDBRANCH  22  23
ENDBRANCH   4  22
BRANCH   1  30
ATOM     30  N   UNL d   1       6.827   1.348   1.407  0.00  0.00     0.093 N 
ATOM     31  H   UNL d   1       7.245   1.486   0.488  0.00  0.00     0.316 HD
BRANCH  30  32
ATOM     32  C   UNL d   1       7.016  -0.057   1.792  0.00  0.00     0.304 C 
BRANCH  32  33
ATOM     33  C   UNL d   1       8.476  -0.420   1.900  0.00  0.00    -0.055 C 
ATOM     34  C   UNL d   1       8.717  -1.879   2.236  0.00  0.00     0.045 C 
ATOM     35  C   UNL d   1       9.472   0.477   1.715  0.00  0.00     0.015 C 
BRANCH  35  36
ATOM     36  C   UNL d   1      10.889   0.126   1.666  0.00  0.00    -0.036 A 
ATOM     37  C   UNL d   1      11.844   0.860   2.370  0.00  0.00     0.011 A 
ATOM     38  C   UNL d   1      13.184   0.478   2.302  0.00  0.00     0.001 A 
ATOM     39  C   UNL d   1      13.552  -0.680   1.612  0.00  0.00     0.000 A 
ATOM     40  C   UNL d   1      12.602  -1.405   0.903  0.00  0.00     0.001 A 
ATOM     41  C   UNL d   1      11.291  -0.959   0.877  0.00  0.00     0.011 A 
ENDBRANCH  35  36
ENDBRANCH  32  33
ENDBRANCH  30  32
ENDBRANCH   1  30
TORSDOF 10
