REMARK  5 active torsions:
REMARK  status: ('A' for Active; 'I' for Inactive)
REMARK    1  A    between atoms: C_4  and  C_5 
REMARK    2  A    between atoms: C_12  and  C_13 
REMARK       I    between atoms: C_13  and  N_15 
REMARK    3  A    between atoms: N_15  and  C_16 
REMARK    4  A    between atoms: C_19  and  C_20 
REMARK    5  A    between atoms: C_20  and  N_21 
REMARK       I    between atoms: N_21  and  C_22 
REMARK       I    between atoms: C_22  and  N_23 
ROOT
ATOM      1  C   UNL d   1      -0.269  -2.601   0.035  0.00  0.00     0.265 C 
ATOM      2  O   UNL d   1       0.738  -3.317   0.066  0.00  0.00    -0.267 OA
ATOM      3  N   UNL d   1      -1.550  -3.156  -0.040  0.00  0.00    -0.322 N 
ATOM      4  H   UNL d   1      -2.347  -2.580  -0.240  0.00  0.00     0.169 HD
ENDROOT
BRANCH   3   5
ATOM      5  C   UNL d   1      -1.842  -4.530   0.036  0.00  0.00     0.035 A 
ATOM      6  C   UNL d   1      -2.899  -5.065  -0.709  0.00  0.00     0.030 A 
ATOM      7  C   UNL d   1      -3.213  -6.429  -0.604  0.00  0.00     0.011 A 
ATOM      8  C   UNL d   1      -2.461  -7.277   0.229  0.00  0.00    -0.040 A 
ATOM      9  C   UNL d   1      -1.456  -6.698   1.014  0.00  0.00     0.011 A 
ATOM     10  C   UNL d   1      -1.143  -5.347   0.910  0.00  0.00     0.030 A 
BRANCH   8  11
ATOM     11  C   UNL d   1      -2.720  -8.768   0.194  0.00  0.00     0.162 C 
BRANCH  11  12
ATOM     12  N   UNL d   1      -1.856  -9.568   1.039  0.00  0.00    -0.339 N 
ATOM     13  C   UNL d   1      -1.829 -10.901   1.192  0.00  0.00     0.314 C 
ATOM     14  N   UNL d   1      -2.714 -11.626   0.494  0.00  0.00    -0.352 N 
ATOM     15  O   UNL d   1      -1.021 -11.433   1.952  0.00  0.00    -0.248 OA
ATOM     16  H   UNL d   1      -3.360 -11.228  -0.165  0.00  0.00     0.160 HD
ATOM     17  H   UNL d   1      -2.679 -12.629   0.606  0.00  0.00     0.160 HD
ATOM     18  H   UNL d   1      -1.129  -9.129   1.582  0.00  0.00     0.164 HD
ENDBRANCH  11  12
ENDBRANCH   8  11
ENDBRANCH   3   5
BRANCH   1  19
ATOM     19  C   UNL d   1      -0.176  -1.138   0.024  0.00  0.00     0.099 A 
ATOM     20  S   UNL d   1       1.386  -0.374   0.016  0.00  0.00    -0.062 SA
ATOM     21  C   UNL d   1       0.653   1.178   0.040  0.00  0.00     0.109 A 
ATOM     22  N   UNL d   1      -0.663   1.157   0.055  0.00  0.00    -0.244 NA
ATOM     23  C   UNL d   1      -1.143  -0.143   0.021  0.00  0.00     0.054 A 
ATOM     24  C   UNL d   1      -2.616  -0.308  -0.003  0.00  0.00     0.072 C 
BRANCH  21  25
ATOM     25  C   UNL d   1       1.436   2.425   0.031  0.00  0.00    -0.000 A 
ATOM     26  C   UNL d   1       1.215   3.397   1.023  0.00  0.00     0.014 A 
ATOM     27  C   UNL d   1       1.798   4.666   0.930  0.00  0.00     0.001 A 
ATOM     28  C   UNL d   1       2.663   4.961  -0.121  0.00  0.00     0.000 A 
ATOM     29  C   UNL d   1       2.913   4.001  -1.100  0.00  0.00     0.001 A 
ATOM     30  C   UNL d   1       2.298   2.744  -1.029  0.00  0.00     0.014 A 
ENDBRANCH  21  25
ENDBRANCH   1  19
TORSDOF 5
