@<TRIPOS>MOLECULE
*****
 48 52 0 0 0
SMALL
GASTEIGER

@<TRIPOS>ATOM
      1 C           1.0596   -0.0974   -0.0122 C.3     1  UNL1       -0.0397
      2 C           2.5613   -0.1077   -0.0210 C.ar    1  UNL1       -0.0495
      3 C           3.2695    1.1048   -0.0603 C.ar    1  UNL1       -0.0553
      4 C           4.6587    1.1109   -0.0691 C.ar    1  UNL1       -0.0190
      5 C           5.3372   -0.0992   -0.0076 C.ar    1  UNL1        0.1317
      6 C           4.6462   -1.3367    0.0111 C.ar    1  UNL1        0.0622
      7 C           3.2570   -1.3330    0.0083 C.ar    1  UNL1       -0.0445
      8 C           5.5004   -2.4964    0.1097 C.ar    1  UNL1        0.1779
      9 O           5.1477   -3.7817   -0.0819 O.2     1  UNL1       -0.3534
     10 N           6.2924   -4.5796    0.0957 N.ar    1  UNL1       -0.0726
     11 C           7.3061   -3.7397    0.3954 C.ar    1  UNL1        0.1746
     12 C           8.6726   -4.2214    0.6488 C.2     1  UNL1        0.2661
     13 O           9.0458   -5.3886    0.6041 O.2     1  UNL1       -0.2684
     14 N           9.5768   -3.2441    0.9588 N.am    1  UNL1       -0.3097
     15 C          10.9475   -3.5161    1.2142 C.3     1  UNL1        0.0159
     16 C          11.4933   -2.1656    1.4748 C.3     1  UNL1       -0.0091
     17 C          12.9074   -2.1920    1.8530 C.2     1  UNL1        0.0091
     18 C          14.4590   -1.6065    2.2039 C.ar    1  UNL1        0.0509
     19 C          15.8933   -1.9216    2.4835 C.ar    1  UNL1       -0.0482
     20 C          16.6271   -0.9177    3.0012 C.ar    1  UNL1       -0.0608
     21 C          16.1625    0.4827    3.0444 C.ar    1  UNL1       -0.0555
     22 C          14.9930    0.8846    2.5250 C.ar    1  UNL1        0.0098
     23 C          14.2880   -0.2792    2.1751 C.ar    1  UNL1        0.2086
     24 N          13.4001   -0.9773    1.8213 N.2     1  UNL1       -0.2369
     25 C          13.9505   -2.9448    1.9141 C.3     1  UNL1        0.1661
     26 C           6.8232   -2.4107    0.4121 C.ar    1  UNL1        0.0688
     27 C           7.3770   -1.0832    0.6954 C.3     1  UNL1        0.1204
     28 O           6.7124   -0.0032    0.0191 O.3     1  UNL1       -0.4865
     29 H           0.6652    0.9243   -0.0438 H       1  UNL1        0.0278
     30 H           0.6829   -0.5738    0.8979 H       1  UNL1        0.0278
     31 H           0.6782   -0.6305   -0.8879 H       1  UNL1        0.0278
     32 H           2.7389    2.0545   -0.0806 H       1  UNL1        0.0621
     33 H           5.2035    2.0506   -0.0993 H       1  UNL1        0.0654
     34 H           2.7053   -2.2676    0.0528 H       1  UNL1        0.0628
     35 H           9.3005   -2.2927    1.0792 H       1  UNL1        0.1491
     36 H          11.4325   -3.9704    0.3447 H       1  UNL1        0.0465
     37 H          11.0648   -4.1516    2.0951 H       1  UNL1        0.0465
     38 H          10.9909   -1.6897    2.3297 H       1  UNL1        0.0327
     39 H          11.3709   -1.5250    0.5787 H       1  UNL1        0.0327
     40 H          16.2745   -2.9214    2.3054 H       1  UNL1        0.0626
     41 H          17.6271   -1.1262    3.3470 H       1  UNL1        0.0618
     42 H          16.8501    1.2208    3.4384 H       1  UNL1        0.0620
     43 H          14.6239    1.8935    2.4113 H       1  UNL1        0.0683
     44 H          12.4972   -0.4155    1.8062 H       1  UNL1        0.4459
     45 H          13.5886   -3.5272    2.8249 H       1  UNL1        0.1077
     46 H          13.8954   -3.5001    0.9684 H       1  UNL1        0.1077
     47 H           8.4049   -1.0064    0.3547 H       1  UNL1        0.0750
     48 H           7.3446   -0.9017    1.7776 H       1  UNL1        0.0750
@<TRIPOS>UNITY_ATOM_ATTR
24 1
charge 1
@<TRIPOS>BOND
     1     1     2    1
     2     2     3   ar
     3     3     4   ar
     4     4     5   ar
     5     5     6   ar
     6     6     7   ar
     7     2     7   ar
     8     6     8    1
     9     8     9   ar
    10     9    10   ar
    11    10    11   ar
    12    11    12    1
    13    12    13    2
    14    12    14   am
    15    14    15    1
    16    15    16    1
    17    16    17    1
    18    17    18    2
    19    18    19   ar
    20    19    20   ar
    21    20    21   ar
    22    21    22   ar
    23    22    23   ar
    24    18    23   ar
    25    23    24    2
    26    24    25    1
    27    17    25    1
    28    11    26   ar
    29     8    26   ar
    30    26    27    1
    31    27    28    1
    32     5    28    1
    33     1    29    1
    34     1    30    1
    35     1    31    1
    36     3    32    1
    37     4    33    1
    38     7    34    1
    39    14    35    1
    40    15    36    1
    41    15    37    1
    42    16    38    1
    43    16    39    1
    44    19    40    1
    45    20    41    1
    46    21    42    1
    47    22    43    1
    48    24    44    1
    49    25    45    1
    50    25    46    1
    51    27    47    1
    52    27    48    1
