@<TRIPOS>MOLECULE
*****
 75 78 0 0 0
SMALL
GASTEIGER

@<TRIPOS>ATOM
      1 C           1.1174   -0.4488    0.3300 C.3     1  UNL1       -0.0494
      2 C           2.5844   -0.1360    0.0780 C.3     1  UNL1        0.0094
      3 N           2.9648    0.9910   -0.8200 N.pl3   1  UNL1       -0.3301
      4 C           2.0751    1.9901   -1.4665 C.3     1  UNL1        0.0136
      5 C           0.5900    1.7328   -1.2865 C.3     1  UNL1       -0.0216
      6 C          -0.4306    2.6224   -1.9380 C.3     1  UNL1        0.0130
      7 N          -1.7845    2.1649   -1.5970 N.am    1  UNL1       -0.3152
      8 C          -2.8616    2.8536   -2.1055 C.2     1  UNL1        0.2135
      9 O          -2.7152    3.8276   -2.8268 O.2     1  UNL1       -0.2758
     10 C          -4.2343    2.3339   -1.7196 C.3     1  UNL1        0.0322
     11 C          -5.3246    3.2103   -2.3616 C.3     1  UNL1        0.0325
     12 C          -6.7096    2.7238   -1.9722 C.2     1  UNL1        0.2177
     13 O          -6.8701    1.7461   -1.2531 O.2     1  UNL1       -0.2755
     14 N          -7.7618    3.4469   -2.5273 N.am    1  UNL1       -0.2855
     15 C          -9.1114    3.1424   -2.2390 C.ar    1  UNL1        0.0344
     16 C          -9.5308    2.8934   -0.9325 C.ar    1  UNL1       -0.0342
     17 C         -10.8918    2.7766   -0.6328 C.ar    1  UNL1        0.0121
     18 C         -11.8197    2.6156   -1.6654 C.ar    1  UNL1        0.2151
     19 N         -13.0954    2.2776   -1.3974 N.ar    1  UNL1       -0.1914
     20 C         -14.0073    1.9396   -2.3228 C.ar    1  UNL1        0.2726
     21 N         -15.2149    1.4865   -1.8630 N.pl3   1  UNL1       -0.2736
     22 C         -15.8409    0.2497   -2.3901 C.3     1  UNL1        0.0408
     23 C         -17.1074    0.5322   -3.2146 C.3     1  UNL1        0.0636
     24 O         -18.0193    1.3649   -2.4885 O.3     1  UNL1       -0.3767
     25 C         -17.4131    2.6259   -2.1835 C.3     1  UNL1        0.0636
     26 C         -16.1827    2.4389   -1.2776 C.3     1  UNL1        0.0408
     27 C         -13.6207    1.9876   -3.6607 C.ar    1  UNL1        0.0299
     28 C         -12.3276    2.4065   -4.0165 C.ar    1  UNL1       -0.0294
     29 C         -11.9280    2.4318   -5.4685 C.3     1  UNL1       -0.0387
     30 C         -11.3973    2.7313   -3.0069 C.ar    1  UNL1        0.0511
     31 C         -10.0567    3.1208   -3.2645 C.ar    1  UNL1       -0.0268
     32 C           4.3620    1.2042   -0.9343 C.ar    1  UNL1        0.0297
     33 C           5.2545    0.1280   -1.1016 C.ar    1  UNL1       -0.0407
     34 C           6.6476    0.2954   -1.0675 C.ar    1  UNL1       -0.0600
     35 C           7.1933    1.5673   -0.9664 C.ar    1  UNL1       -0.0616
     36 C           6.3415    2.6644   -0.9231 C.ar    1  UNL1       -0.0600
     37 C           4.9481    2.4803   -0.8671 C.ar    1  UNL1       -0.0407
     38 H           0.9693   -1.3161    0.9753 H       1  UNL1        0.0245
     39 H           0.6053   -0.7149   -0.5965 H       1  UNL1        0.0245
     40 H           0.6210    0.3660    0.8593 H       1  UNL1        0.0245
     41 H           3.0009   -1.0661   -0.3224 H       1  UNL1        0.0461
     42 H           3.0409    0.0302    1.0622 H       1  UNL1        0.0461
     43 H           2.2986    1.9874   -2.5410 H       1  UNL1        0.0464
     44 H           2.2840    2.9973   -1.0911 H       1  UNL1        0.0464
     45 H           0.3712    1.8280   -0.2238 H       1  UNL1        0.0295
     46 H           0.3729    0.7465   -1.6923 H       1  UNL1        0.0295
     47 H          -0.3283    2.5897   -3.0252 H       1  UNL1        0.0462
     48 H          -0.3256    3.6512   -1.5849 H       1  UNL1        0.0462
     49 H          -1.9182    1.3531   -1.0003 H       1  UNL1        0.1487
     50 H          -4.3361    2.3456   -0.6275 H       1  UNL1        0.0363
     51 H          -4.3398    1.2950   -2.0557 H       1  UNL1        0.0363
     52 H          -5.2243    3.1904   -3.4540 H       1  UNL1        0.0363
     53 H          -5.2087    4.2507   -2.0331 H       1  UNL1        0.0363
     54 H          -7.5632    4.0612   -3.3102 H       1  UNL1        0.1548
     55 H          -8.8021    2.8295   -0.1258 H       1  UNL1        0.0638
     56 H         -11.1877    2.7783    0.4127 H       1  UNL1        0.0684
     57 H         -13.3915    2.1610   -0.4336 H       1  UNL1        0.4548
     58 H         -16.1344   -0.3398   -1.5122 H       1  UNL1        0.0488
     59 H         -15.1366   -0.3607   -2.9654 H       1  UNL1        0.0488
     60 H         -17.6242   -0.4081   -3.4367 H       1  UNL1        0.0575
     61 H         -16.8682    1.0138   -4.1689 H       1  UNL1        0.0575
     62 H         -18.1627    3.2387   -1.6723 H       1  UNL1        0.0575
     63 H         -17.1495    3.1290   -3.1207 H       1  UNL1        0.0575
     64 H         -16.5115    2.0082   -0.3245 H       1  UNL1        0.0488
     65 H         -15.7227    3.4100   -1.0650 H       1  UNL1        0.0488
     66 H         -14.3271    1.7058   -4.4377 H       1  UNL1        0.0701
     67 H         -12.7575    2.1442   -6.1197 H       1  UNL1        0.0278
     68 H         -11.1044    1.7307   -5.6469 H       1  UNL1        0.0278
     69 H         -11.6145    3.4422   -5.7484 H       1  UNL1        0.0278
     70 H          -9.7251    3.2971   -4.2860 H       1  UNL1        0.0644
     71 H           4.8773   -0.8722   -1.2922 H       1  UNL1        0.0636
     72 H           7.3019   -0.5707   -1.1295 H       1  UNL1        0.0618
     73 H           8.2716    1.7024   -0.9320 H       1  UNL1        0.0618
     74 H           6.7599    3.6682   -0.9120 H       1  UNL1        0.0618
     75 H           4.3414    3.3673   -0.7204 H       1  UNL1        0.0636
@<TRIPOS>UNITY_ATOM_ATTR
19 1
charge 1
@<TRIPOS>BOND
     1     1     2    1
     2     2     3    1
     3     3     4    1
     4     4     5    1
     5     5     6    1
     6     6     7    1
     7     7     8   am
     8     8     9    2
     9     8    10    1
    10    10    11    1
    11    11    12    1
    12    12    13    2
    13    12    14   am
    14    14    15    1
    15    15    16   ar
    16    16    17   ar
    17    17    18   ar
    18    18    19   ar
    19    19    20   ar
    20    20    21    1
    21    21    22    1
    22    22    23    1
    23    23    24    1
    24    24    25    1
    25    25    26    1
    26    21    26    1
    27    20    27   ar
    28    27    28   ar
    29    28    29    1
    30    28    30   ar
    31    18    30   ar
    32    30    31   ar
    33    15    31   ar
    34     3    32    1
    35    32    33   ar
    36    33    34   ar
    37    34    35   ar
    38    35    36   ar
    39    36    37   ar
    40    32    37   ar
    41     1    38    1
    42     1    39    1
    43     1    40    1
    44     2    41    1
    45     2    42    1
    46     4    43    1
    47     4    44    1
    48     5    45    1
    49     5    46    1
    50     6    47    1
    51     6    48    1
    52     7    49    1
    53    10    50    1
    54    10    51    1
    55    11    52    1
    56    11    53    1
    57    14    54    1
    58    16    55    1
    59    17    56    1
    60    19    57    1
    61    22    58    1
    62    22    59    1
    63    23    60    1
    64    23    61    1
    65    25    62    1
    66    25    63    1
    67    26    64    1
    68    26    65    1
    69    27    66    1
    70    29    67    1
    71    29    68    1
    72    29    69    1
    73    31    70    1
    74    33    71    1
    75    34    72    1
    76    35    73    1
    77    36    74    1
    78    37    75    1
