@<TRIPOS>MOLECULE
*****
 56 57 0 0 0
SMALL
GASTEIGER

@<TRIPOS>ATOM
      1 C           1.0695    0.0413    0.0489 C.3     1  UNL1       -0.0653
      2 C           2.5897    0.0338    0.0671 C.3     1  UNL1       -0.0559
      3 C           3.1260   -0.5165    1.3938 C.3     1  UNL1       -0.0529
      4 C           4.6581   -0.5235    1.4104 C.3     1  UNL1       -0.0448
      5 C           5.2575   -1.0666    2.7196 C.3     1  UNL1        0.0254
      6 C           6.7990   -1.0520    2.6851 C.2     1  UNL1        0.2291
      7 O           7.4450   -0.6497    1.7184 O.2     1  UNL1       -0.2743
      8 N           7.4234   -1.5265    3.8263 N.am    1  UNL1       -0.2351
      9 N           8.8737   -1.5618    3.9347 N.am    1  UNL1       -0.2455
     10 C           9.4609   -2.0464    5.1167 C.2     1  UNL1        0.1533
     11 S           8.4650   -2.5770    6.3742 S.2     1  UNL1       -0.0170
     12 N          10.8780   -2.0351    5.1473 N.am    1  UNL1       -0.2627
     13 C          11.6899   -2.5014    6.2033 C.2     1  UNL1        0.2496
     14 O          11.2697   -2.9735    7.2635 O.2     1  UNL1       -0.2698
     15 C          13.1780   -2.5011    6.0954 C.ar    1  UNL1        0.0383
     16 C          13.9388   -1.4169    5.6753 C.ar    1  UNL1       -0.0461
     17 C          15.3495   -1.4911    5.7300 C.ar    1  UNL1       -0.0181
     18 C          16.0333   -2.6308    6.2161 C.ar    1  UNL1        0.1344
     19 O          17.4063   -2.4833    6.1605 O.3     1  UNL1       -0.4905
     20 C          18.1800   -3.6001    6.5827 C.3     1  UNL1        0.0936
     21 C          19.6934   -3.4278    6.4331 C.3     1  UNL1        0.0066
     22 C          20.3979   -4.6711    6.9515 C.ar    1  UNL1       -0.0442
     23 C          20.0050   -5.9554    6.5338 C.ar    1  UNL1       -0.0585
     24 C          20.5039   -7.0956    7.1625 C.ar    1  UNL1       -0.0615
     25 C          21.4926   -6.9743    8.1326 C.ar    1  UNL1       -0.0617
     26 C          21.9472   -5.7105    8.5056 C.ar    1  UNL1       -0.0615
     27 C          21.3965   -4.5637    7.9265 C.ar    1  UNL1       -0.0585
     28 C          15.2512   -3.7051    6.6786 C.ar    1  UNL1        0.0602
     29 BR         15.8283   -5.3689    7.4297 Br      1  UNL1       -0.0465
     30 C          13.8489   -3.6183    6.6204 C.ar    1  UNL1       -0.0321
     31 H           0.6989    0.4359   -0.9024 H       1  UNL1        0.0230
     32 H           0.6740    0.6677    0.8548 H       1  UNL1        0.0230
     33 H           0.6740   -0.9716    0.1749 H       1  UNL1        0.0230
     34 H           2.9564    1.0549   -0.0924 H       1  UNL1        0.0263
     35 H           2.9564   -0.5748   -0.7683 H       1  UNL1        0.0263
     36 H           2.7461   -1.5344    1.5429 H       1  UNL1        0.0265
     37 H           2.7462    0.0970    2.2195 H       1  UNL1        0.0265
     38 H           5.0192    0.4988    1.2431 H       1  UNL1        0.0270
     39 H           5.0192   -1.1272    0.5686 H       1  UNL1        0.0270
     40 H           4.9048   -2.0929    2.8806 H       1  UNL1        0.0359
     41 H           4.9048   -0.4555    3.5597 H       1  UNL1        0.0359
     42 H           6.9108   -1.8635    4.6416 H       1  UNL1        0.1728
     43 H           9.3657   -1.2264    3.1076 H       1  UNL1        0.1718
     44 H          11.3602   -1.7321    4.3120 H       1  UNL1        0.1569
     45 H          13.4645   -0.4908    5.3662 H       1  UNL1        0.0626
     46 H          15.9310   -0.6283    5.4008 H       1  UNL1        0.0655
     47 H          17.8917   -4.4515    5.9615 H       1  UNL1        0.0700
     48 H          17.9913   -3.7721    7.6481 H       1  UNL1        0.0700
     49 H          20.0018   -2.5451    7.0066 H       1  UNL1        0.0346
     50 H          19.9677   -3.2404    5.3901 H       1  UNL1        0.0346
     51 H          19.2735   -6.0874    5.7398 H       1  UNL1        0.0620
     52 H          20.1064   -8.0744    6.9057 H       1  UNL1        0.0618
     53 H          21.9089   -7.8648    8.5954 H       1  UNL1        0.0618
     54 H          22.7128   -5.6167    9.2711 H       1  UNL1        0.0618
     55 H          21.7373   -3.5869    8.2611 H       1  UNL1        0.0620
     56 H          13.2598   -4.4420    7.0274 H       1  UNL1        0.0637
@<TRIPOS>BOND
     1     1     2    1
     2     2     3    1
     3     3     4    1
     4     4     5    1
     5     5     6    1
     6     6     7    2
     7     6     8   am
     8     8     9    1
     9     9    10    1
    10    10    11    2
    11    10    12    1
    12    12    13   am
    13    13    14    2
    14    13    15    1
    15    15    16   ar
    16    16    17   ar
    17    17    18   ar
    18    18    19    1
    19    19    20    1
    20    20    21    1
    21    21    22    1
    22    22    23   ar
    23    23    24   ar
    24    24    25   ar
    25    25    26   ar
    26    26    27   ar
    27    22    27   ar
    28    18    28   ar
    29    28    29    1
    30    28    30   ar
    31    15    30   ar
    32     1    31    1
    33     1    32    1
    34     1    33    1
    35     2    34    1
    36     2    35    1
    37     3    36    1
    38     3    37    1
    39     4    38    1
    40     4    39    1
    41     5    40    1
    42     5    41    1
    43     8    42    1
    44     9    43    1
    45    12    44    1
    46    16    45    1
    47    17    46    1
    48    20    47    1
    49    20    48    1
    50    21    49    1
    51    21    50    1
    52    23    51    1
    53    24    52    1
    54    25    53    1
    55    26    54    1
    56    27    55    1
    57    30    56    1
