REMARK  5 active torsions:
REMARK  status: ('A' for Active; 'I' for Inactive)
REMARK       I    between atoms: N_4  and  C_5 
REMARK    1  A    between atoms: C_5  and  C_7 
REMARK    2  A    between atoms: C_7  and  S_8 
REMARK    3  A    between atoms: S_8  and  C_9 
REMARK    4  A    between atoms: C_12  and  C_13 
REMARK    5  A    between atoms: N_22  and  C_23 
ROOT
ATOM      1  C   UNL d   1      -2.834  -6.173  -2.334  0.00  0.00     0.268 C 
ATOM      2  N   UNL d   1      -2.800  -7.601  -2.002  0.00  0.00    -0.279 N 
ATOM      3  N   UNL d   1      -3.115  -8.450  -3.037  0.00  0.00    -0.158 NA
ATOM      4  C   UNL d   1      -3.220  -7.695  -4.077  0.00  0.00     0.157 C 
ATOM      5  N   UNL d   1      -3.178  -6.293  -3.772  0.00  0.00    -0.328 N 
ATOM      6  H   UNL d   1      -3.182  -7.848  -1.091  0.00  0.00     0.185 HD
ENDROOT
BRANCH   1   7
ATOM      7  S   UNL d   1      -1.219  -5.395  -2.095  0.00  0.00    -0.112 SA
BRANCH   7   8
ATOM      8  C   UNL d   1      -1.626  -3.839  -1.146  0.00  0.00     0.181 C 
BRANCH   8   9
ATOM      9  C   UNL d   1      -0.393  -2.909  -1.034  0.00  0.00     0.234 C 
ATOM     10  N   UNL d   1      -0.518  -1.737  -0.270  0.00  0.00    -0.306 N 
ATOM     11  C   UNL d   1      -1.754  -1.243   0.355  0.00  0.00     0.235 C 
ATOM     12  C   UNL d   1       0.582  -0.820  -0.129  0.00  0.00     0.064 A 
ATOM     13  C   UNL d   1      -2.081   0.204  -0.022  0.00  0.00     0.240 C 
ATOM     14  O   UNL d   1      -3.225   0.638  -0.012  0.00  0.00    -0.271 OA
ATOM     15  N   UNL d   1      -1.000   1.032  -0.192  0.00  0.00    -0.324 N 
ATOM     16  C   UNL d   1       0.319   0.566  -0.099  0.00  0.00     0.061 A 
ATOM     17  H   UNL d   1      -1.189   2.018  -0.324  0.00  0.00     0.169 HD
ATOM     18  C   UNL d   1       1.359   1.494  -0.011  0.00  0.00     0.032 A 
ATOM     19  C   UNL d   1       2.674   1.044   0.099  0.00  0.00     0.002 A 
ATOM     20  C   UNL d   1       2.943  -0.324   0.110  0.00  0.00     0.002 A 
ATOM     21  C   UNL d   1       1.905  -1.252  -0.016  0.00  0.00     0.032 A 
ATOM     22  O   UNL d   1       0.633  -3.178  -1.665  0.00  0.00    -0.272 OA
ENDBRANCH   8   9
ENDBRANCH   7   8
ENDBRANCH   1   7
BRANCH   5  23
ATOM     23  C   UNL d   1      -3.720  -5.239  -4.584  0.00  0.00     0.089 A 
ATOM     24  C   UNL d   1      -4.037  -3.879  -4.014  0.00  0.00     0.027 A 
ATOM     25  C   UNL d   1      -2.893  -4.035  -4.961  0.00  0.00     0.027 A 
ENDBRANCH   5  23
BRANCH   4  26
ATOM     26  C   UNL d   1      -3.337  -8.126  -5.477  0.00  0.00     0.019 A 
ATOM     27  C   UNL d   1      -2.468  -7.809  -6.446  0.00  0.00     0.002 A 
ATOM     28  C   UNL d   1      -1.292  -7.007  -6.511  0.00  0.00     0.014 A 
ATOM     29  C   UNL d   1      -2.923  -8.564  -7.640  0.00  0.00     0.039 A 
ATOM     30  C   UNL d   1      -0.654  -6.890  -7.685  0.00  0.00     0.001 A 
ATOM     31  C   UNL d   1      -1.113  -7.572  -8.885  0.00  0.00     0.002 A 
ATOM     32  C   UNL d   1      -2.185  -8.388  -8.908  0.00  0.00     0.030 A 
ATOM     33  N   UNL d   1      -3.944  -9.291  -7.386  0.00  0.00    -0.385 N 
ATOM     34  C   UNL d   1      -4.324  -9.146  -5.954  0.00  0.00     0.163 A 
ATOM     35  H   UNL d   1      -4.402  -9.871  -8.091  0.00  0.00     0.160 HD
ENDBRANCH   4  26
TORSDOF 5
