@<TRIPOS>MOLECULE
*****
 57 62 0 0 0
SMALL
GASTEIGER

@<TRIPOS>ATOM
      1 C           0.8009    0.5796    0.1700 C.3     1  UNL1       -0.0252
      2 C           2.3684    0.5540    0.5615 C.2     1  UNL1        0.0228
      3 C           2.9447   -0.4954    1.2289 C.2     1  UNL1        0.0068
      4 C           2.4074   -1.7593    1.9397 C.3     1  UNL1        0.1159
      5 C           0.8708   -1.7776    2.0278 C.ar    1  UNL1        0.2671
      6 N          -0.0341   -2.0801    1.0649 N.ar    1  UNL1       -0.2466
      7 C          -1.2890   -1.5905    1.4086 C.ar    1  UNL1        0.1283
      8 C          -1.1934   -1.1368    2.6912 C.ar    1  UNL1        0.1283
      9 N           0.1260   -1.2279    3.0155 N.ar    1  UNL1       -0.2466
     10 C           3.1160   -1.7178    3.2626 C.2     1  UNL1        0.0306
     11 C           4.2830   -1.0413    3.4018 C.2     1  UNL1        0.0138
     12 C           4.8699   -0.7831    4.7361 C.3     1  UNL1       -0.0067
     13 C           4.1217   -1.3511    5.9465 C.3     1  UNL1        0.0025
     14 C           5.0352   -2.3412    6.5909 C.ar    1  UNL1       -0.0064
     15 C           5.4149   -3.5641    6.0676 C.ar    1  UNL1       -0.0513
     16 C           6.3070   -4.2379    6.9290 C.ar    1  UNL1       -0.0545
     17 C           6.5588   -3.5104    8.0695 C.ar    1  UNL1       -0.0241
     18 S           5.7198   -2.0255    8.1096 S.2     1  UNL1       -0.1013
     19 C           2.8045   -2.0743    5.7596 C.3     1  UNL1        0.0179
     20 C           2.3872   -2.3233    4.3809 C.2     1  UNL1        0.1624
     21 O           1.3688   -2.9926    4.2067 O.2     1  UNL1       -0.2923
     22 N           5.0040   -0.5129    2.3048 N.pl3   1  UNL1       -0.3241
     23 C           4.5195   -0.6993    0.9258 C.3     1  UNL1        0.1294
     24 N           4.8637    0.3473   -0.2177 N.pl3   1  UNL1       -0.2282
     25 C           5.0809   -0.3695   -1.5980 C.ar    1  UNL1        0.0588
     26 C           6.1880   -0.8654   -2.3267 C.ar    1  UNL1       -0.0384
     27 C           5.9717   -1.2595   -3.7377 C.ar    1  UNL1       -0.0599
     28 C           4.7142   -1.2900   -4.3775 C.ar    1  UNL1       -0.0610
     29 C           3.6540   -0.9389   -3.6414 C.ar    1  UNL1       -0.0511
     30 C           3.8996   -0.5463   -2.3307 C.ar    1  UNL1        0.0199
     31 C           2.7281   -0.8723   -1.6129 C.2     1  UNL1        0.0735
     32 O           1.6407   -0.4474   -2.0350 O.co2   1  UNL1       -0.5446
     33 O           2.9453   -1.7508   -0.6905 O.co2   1  UNL1       -0.5446
     34 N           3.4452    1.2362   -0.1881 N.pl3   1  UNL1       -0.2663
     35 H           0.3035    0.0954    0.9786 H       1  UNL1        0.0290
     36 H           0.3499   -0.0471   -0.6359 H       1  UNL1        0.0290
     37 H           0.2644    1.5251    0.1333 H       1  UNL1        0.0290
     38 H           2.6209   -2.7655    1.5127 H       1  UNL1        0.0522
     39 H           0.2965   -2.2439    0.1064 H       1  UNL1        0.3104
     40 H          -2.0446   -1.4842    0.6503 H       1  UNL1        0.1117
     41 H          -1.8310   -0.6305    3.3908 H       1  UNL1        0.1117
     42 H           0.5440   -0.9304    3.8860 H       1  UNL1        0.3104
     43 H           4.9898    0.2987    4.8771 H       1  UNL1        0.0332
     44 H           5.8809   -1.2015    4.6818 H       1  UNL1        0.0332
     45 H           3.8994   -0.4994    6.6038 H       1  UNL1        0.0362
     46 H           5.0730   -3.9501    5.1106 H       1  UNL1        0.0626
     47 H           6.7449   -5.2029    6.7158 H       1  UNL1        0.0623
     48 H           7.2024   -3.7760    8.8905 H       1  UNL1        0.0693
     49 H           1.9940   -1.5333    6.2577 H       1  UNL1        0.0351
     50 H           2.8349   -3.0950    6.1590 H       1  UNL1        0.0351
     51 H           5.6437    0.2633    2.4405 H       1  UNL1        0.1479
     52 H           4.9009   -1.7005    0.6483 H       1  UNL1        0.0773
     53 H           7.2043   -1.0102   -1.9464 H       1  UNL1        0.0637
     54 H           6.8009   -1.4805   -4.4067 H       1  UNL1        0.0618
     55 H           4.4798   -1.5484   -5.4009 H       1  UNL1        0.0618
     56 H           2.6051   -0.9635   -3.9490 H       1  UNL1        0.0625
     57 H           3.1231    1.4463   -1.1528 H       1  UNL1        0.1698
@<TRIPOS>UNITY_ATOM_ATTR
9 1
charge 1
33 1
charge -1
@<TRIPOS>BOND
     1     1     2    1
     2     2     3    2
     3     3     4    1
     4     5     6   ar
     5     6     7   ar
     6     7     8   ar
     7     8     9   ar
     8     5     9   ar
     9     4    10    1
    10    10    11    2
    11    11    12    1
    12    12    13    1
    13    13    14    1
    14    14    15   ar
    15    15    16   ar
    16    16    17   ar
    17    17    18   ar
    18    14    18   ar
    19    13    19    1
    20    19    20    1
    21    10    20    1
    22    20    21    2
    23    11    22    1
    24    22    23    1
    25     3    23    1
    26    23    24    1
    27    24    25    1
    28    25    26   ar
    29    26    27   ar
    30    27    28   ar
    31    28    29   ar
    32    29    30   ar
    33    25    30   ar
    34    30    31    1
    35    31    32   ar
    36    31    33   ar
    37    24    34    1
    38     2    34    1
    39     4     5    1
    40     1    35    1
    41     1    36    1
    42     1    37    1
    43     4    38    1
    44     6    39    1
    45     7    40    1
    46     8    41    1
    47     9    42    1
    48    12    43    1
    49    12    44    1
    50    13    45    1
    51    15    46    1
    52    16    47    1
    53    17    48    1
    54    19    49    1
    55    19    50    1
    56    22    51    1
    57    23    52    1
    58    26    53    1
    59    27    54    1
    60    28    55    1
    61    29    56    1
    62    34    57    1
