@<TRIPOS>MOLECULE
*****
 39 40 0 0 0
SMALL
GASTEIGER

@<TRIPOS>ATOM
      1 C           2.4790    0.0067   -0.0125 C.3     1  UNL1       -0.0397
      2 C           0.9771    0.0163    0.0207 C.ar    1  UNL1       -0.0497
      3 C           0.2569   -1.1796    0.0023 C.ar    1  UNL1       -0.0588
      4 C          -1.1358   -1.1499   -0.0014 C.ar    1  UNL1       -0.0608
      5 C          -1.8181    0.0761    0.0317 C.ar    1  UNL1       -0.0496
      6 C          -1.1196    1.2944    0.1099 C.ar    1  UNL1        0.0384
      7 C          -1.9176    2.5848    0.1819 C.2     1  UNL1        0.2602
      8 O          -3.1153    2.5711   -0.0702 O.2     1  UNL1       -0.2687
      9 N          -1.2435    3.7746    0.5126 N.am    1  UNL1       -0.2301
     10 N          -1.8376    5.0117    0.0457 N.am    1  UNL1       -0.2301
     11 C          -1.1028    6.2018    0.0590 C.2     1  UNL1        0.2604
     12 O          -1.4834    7.1521    0.7376 O.2     1  UNL1       -0.2687
     13 C           0.0830    6.3728   -0.8745 C.ar    1  UNL1        0.0411
     14 C           0.8004    7.5929   -0.8259 C.ar    1  UNL1       -0.0491
     15 C           1.8799    7.8456   -1.6949 C.ar    1  UNL1       -0.0581
     16 C           2.2799    6.8806   -2.6167 C.ar    1  UNL1       -0.0502
     17 C           3.4109    7.0823   -3.5772 C.3     1  UNL1       -0.0397
     18 C           1.5765    5.6840   -2.6742 C.ar    1  UNL1       -0.0552
     19 C           0.4612    5.4403   -1.8601 C.ar    1  UNL1       -0.0381
     20 C          -0.2375    4.1528   -2.1347 C.3     1  UNL1       -0.0390
     21 C           0.2840    1.2427    0.0770 C.ar    1  UNL1       -0.0467
     22 H           2.8784   -1.0131   -0.0014 H       1  UNL1        0.0278
     23 H           2.8739    0.5296    0.8641 H       1  UNL1        0.0278
     24 H           2.8408    0.4996   -0.9207 H       1  UNL1        0.0278
     25 H           0.7735   -2.1385   -0.0101 H       1  UNL1        0.0620
     26 H          -1.6909   -2.0861   -0.0220 H       1  UNL1        0.0618
     27 H          -2.9067    0.0650    0.0065 H       1  UNL1        0.0625
     28 H          -0.2421    3.7978    0.6565 H       1  UNL1        0.1731
     29 H          -2.7965    5.1053    0.3791 H       1  UNL1        0.1731
     30 H           0.5110    8.3837   -0.1315 H       1  UNL1        0.0625
     31 H           2.3981    8.8025   -1.6541 H       1  UNL1        0.0620
     32 H           3.8691    8.0671   -3.4632 H       1  UNL1        0.0278
     33 H           3.0427    6.9928   -4.6060 H       1  UNL1        0.0278
     34 H           4.1798    6.3194   -3.4132 H       1  UNL1        0.0278
     35 H           1.8795    4.9244   -3.3937 H       1  UNL1        0.0623
     36 H           0.1066    3.6476   -3.0376 H       1  UNL1        0.0278
     37 H          -1.3156    4.2938   -2.2332 H       1  UNL1        0.0278
     38 H           0.0416    3.4774   -1.3419 H       1  UNL1        0.0278
     39 H           0.8844    2.1451    0.0766 H       1  UNL1        0.0628
@<TRIPOS>BOND
     1     1     2    1
     2     2     3   ar
     3     3     4   ar
     4     4     5   ar
     5     5     6   ar
     6     6     7    1
     7     7     8    2
     8     7     9   am
     9     9    10    1
    10    10    11   am
    11    11    12    2
    12    11    13    1
    13    13    14   ar
    14    14    15   ar
    15    15    16   ar
    16    16    17    1
    17    16    18   ar
    18    18    19   ar
    19    13    19   ar
    20    19    20    1
    21     6    21   ar
    22     2    21   ar
    23     1    22    1
    24     1    23    1
    25     1    24    1
    26     3    25    1
    27     4    26    1
    28     5    27    1
    29     9    28    1
    30    10    29    1
    31    14    30    1
    32    15    31    1
    33    17    32    1
    34    17    33    1
    35    17    34    1
    36    18    35    1
    37    20    36    1
    38    20    37    1
    39    20    38    1
    40    21    39    1
