@<TRIPOS>MOLECULE
*****
 50 53 0 0 0
SMALL
GASTEIGER

@<TRIPOS>ATOM
      1 N           1.0428    0.1798   -0.0070 N.am    1  UNL1       -0.3291
      2 C           2.3914    0.0452   -0.0573 C.2     1  UNL1        0.2137
      3 O           2.8773   -0.6471   -0.9464 O.2     1  UNL1       -0.2757
      4 C           3.2093    0.7834    1.0045 C.3     1  UNL1        0.0382
      5 C           3.1415    2.3133    0.8407 C.3     1  UNL1       -0.0260
      6 C           3.8824    2.7724   -0.4188 C.3     1  UNL1        0.0157
      7 N           5.2570    2.2722   -0.4013 N.am    1  UNL1       -0.2975
      8 C           6.3294    3.1660   -0.3708 C.2     1  UNL1        0.2466
      9 O           6.2019    4.3874   -0.3874 O.2     1  UNL1       -0.2700
     10 C           7.7104    2.6309   -0.3968 C.ar    1  UNL1        0.0370
     11 C           8.7095    2.9855    0.5178 C.ar    1  UNL1       -0.0476
     12 C          10.0440    2.5117    0.3593 C.ar    1  UNL1       -0.0355
     13 C          10.3944    1.6440   -0.6868 C.ar    1  UNL1        0.0665
     14 N          11.7151    1.0714   -0.7623 N.2     1  UNL1       -0.2264
     15 C          12.0417    0.0717   -1.5261 C.2     1  UNL1        0.1551
     16 N          13.2769   -0.5168   -1.7164 N.pl3   1  UNL1       -0.3182
     17 C          13.5439   -0.9107   -3.1111 C.3     1  UNL1        0.0554
     18 C          13.9432    0.3176   -3.9231 C.3     1  UNL1        0.0852
     19 S          13.2608    0.0879   -5.5360 S.O2    1  UNL1       -0.0281
     20 O          12.6577    1.3445   -5.9594 O.2     1  UNL1       -0.1743
     21 O          14.2271   -0.6108   -6.3413 O.2     1  UNL1       -0.1743
     22 C          11.9779   -1.0544   -5.1083 C.3     1  UNL1        0.0798
     23 C          12.2223   -1.4619   -3.6669 C.3     1  UNL1        0.0516
     24 S          10.9580   -0.8086   -2.5974 S.3     1  UNL1       -0.0837
     25 C           9.3692    1.4407   -1.6221 C.ar    1  UNL1       -0.0355
     26 C           8.0583    1.8681   -1.4847 C.ar    1  UNL1       -0.0476
     27 C           5.3614    0.8164   -0.3234 C.3     1  UNL1        0.0157
     28 C           4.6701    0.3105    0.9399 C.3     1  UNL1       -0.0260
     29 H           0.5259   -0.3474   -0.7014 H       1  UNL1        0.1449
     30 H           0.5389    0.6039    0.7568 H       1  UNL1        0.1449
     31 H           2.7972    0.5121    1.9855 H       1  UNL1        0.0395
     32 H           3.6144    2.7851    1.7138 H       1  UNL1        0.0288
     33 H           2.1032    2.6604    0.8137 H       1  UNL1        0.0288
     34 H           3.8537    3.8631   -0.5023 H       1  UNL1        0.0465
     35 H           3.3882    2.3659   -1.3099 H       1  UNL1        0.0465
     36 H           8.4555    3.6279    1.3567 H       1  UNL1        0.0626
     37 H          10.8092    2.8606    1.0512 H       1  UNL1        0.0639
     38 H          14.0487   -0.3101   -1.0914 H       1  UNL1        0.1483
     39 H          14.3171   -1.6864   -3.1806 H       1  UNL1        0.0525
     40 H          15.0270    0.4242   -4.0138 H       1  UNL1        0.0519
     41 H          13.5263    1.2435   -3.5168 H       1  UNL1        0.0519
     42 H          12.0720   -1.9153   -5.7752 H       1  UNL1        0.0511
     43 H          11.0108   -0.5737   -5.2964 H       1  UNL1        0.0511
     44 H          12.0969   -2.5355   -3.5151 H       1  UNL1        0.0451
     45 H           9.5009    0.9473   -2.5647 H       1  UNL1        0.0639
     46 H           7.3408    1.5868   -2.2508 H       1  UNL1        0.0626
     47 H           6.3882    0.4567   -0.3156 H       1  UNL1        0.0465
     48 H           4.9071    0.4263   -1.2395 H       1  UNL1        0.0465
     49 H           5.2152    0.6861    1.8159 H       1  UNL1        0.0288
     50 H           4.7225   -0.7835    0.9720 H       1  UNL1        0.0288
@<TRIPOS>BOND
     1     1     2   am
     2     2     3    2
     3     2     4    1
     4     4     5    1
     5     5     6    1
     6     6     7    1
     7     7     8   am
     8     8     9    2
     9     8    10    1
    10    10    11   ar
    11    11    12   ar
    12    12    13   ar
    13    13    14    1
    14    14    15    2
    15    15    16    1
    16    16    17    1
    17    17    18    1
    18    18    19    1
    19    19    20    2
    20    19    21    2
    21    19    22    1
    22    22    23    1
    23    17    23    1
    24    23    24    1
    25    15    24    1
    26    13    25   ar
    27    25    26   ar
    28    10    26   ar
    29     7    27    1
    30    27    28    1
    31     4    28    1
    32     1    29    1
    33     1    30    1
    34     4    31    1
    35     5    32    1
    36     5    33    1
    37     6    34    1
    38     6    35    1
    39    11    36    1
    40    12    37    1
    41    16    38    1
    42    17    39    1
    43    18    40    1
    44    18    41    1
    45    22    42    1
    46    22    43    1
    47    23    44    1
    48    25    45    1
    49    26    46    1
    50    27    47    1
    51    27    48    1
    52    28    49    1
    53    28    50    1
