REMARK  3 active torsions:
REMARK  status: ('A' for Active; 'I' for Inactive)
REMARK       I    between atoms: C_2  and  N_3 
REMARK    1  A    between atoms: C_2  and  C_12 
REMARK    2  A    between atoms: N_3  and  N_4 
REMARK    3  A    between atoms: N_4  and  C_5 
ROOT
ATOM      1  O   UNL d   1       1.073   0.040   0.083  0.00  0.00    -0.271 OA
ATOM      2  C   UNL d   1       2.310   0.036   0.030  0.00  0.00     0.240 C 
ATOM      3  N   UNL d   1       3.083   0.748   0.942  0.00  0.00    -0.269 N 
ATOM      4  H   UNL d   1       4.093   0.685   1.004  0.00  0.00     0.190 HD
ENDROOT
BRANCH   3   5
ATOM      5  N   UNL d   1       2.394   1.511   1.918  0.00  0.00    -0.298 N 
ATOM      6  H   UNL d   1       1.427   1.220   2.078  0.00  0.00     0.187 HD
BRANCH   5   7
ATOM      7  C   UNL d   1       3.126   2.072   2.981  0.00  0.00     0.049 A 
ATOM      8  C   UNL d   1       4.238   2.889   2.729  0.00  0.00     0.031 A 
ATOM      9  C   UNL d   1       4.955   3.494   3.770  0.00  0.00     0.004 A 
ATOM     10  C   UNL d   1       4.596   3.259   5.094  0.00  0.00     0.024 A 
ATOM     11  C   UNL d   1       3.508   2.434   5.365  0.00  0.00     0.036 A 
ATOM     12 CL   UNL d   1       3.085   2.122   7.008  0.00  0.00    -0.084 Cl
ATOM     13  C   UNL d   1       2.768   1.855   4.322  0.00  0.00     0.054 A 
ENDBRANCH   5   7
ENDBRANCH   3   5
BRANCH   2  14
ATOM     14  C   UNL d   1       3.070  -0.737  -1.060  0.00  0.00     0.079 C 
ATOM     15  C   UNL d   1       2.616  -2.199  -1.153  0.00  0.00     0.014 C 
ATOM     16  C   UNL d   1       2.992  -2.652  -2.561  0.00  0.00     0.001 C 
ATOM     17  C   UNL d   1       2.938  -1.397  -3.424  0.00  0.00     0.001 C 
ATOM     18  C   UNL d   1       2.716  -0.226  -2.465  0.00  0.00     0.014 C 
ENDBRANCH   2  14
TORSDOF 3
