@<TRIPOS>MOLECULE
*****
 29 30 0 0 0
SMALL
GASTEIGER

@<TRIPOS>ATOM
      1 C           0.9850   -0.0602    0.0450 C.3     1  UNL1       -0.0570
      2 C           2.5114   -0.0029    0.1100 C.3     1  UNL1        0.0215
      3 C           2.9422    0.8714    1.2755 C.2     1  UNL1        0.2169
      4 O           2.0972    1.3961    2.0104 O.2     1  UNL1       -0.2755
      5 N           4.3086    1.0485    1.4253 N.am    1  UNL1       -0.2855
      6 C           4.8773    1.7155    2.5404 C.ar    1  UNL1        0.0334
      7 C           6.0736    2.4291    2.4172 C.ar    1  UNL1       -0.0399
      8 C           6.6778    2.9976    3.5542 C.ar    1  UNL1       -0.0508
      9 C           6.0835    2.8755    4.8174 C.ar    1  UNL1        0.0022
     10 C           6.7127    3.4447    6.0039 C.ar    1  UNL1        0.0925
     11 C           7.0353    2.7589    7.2044 C.ar    1  UNL1       -0.0165
     12 C           7.6432    3.6905    8.0088 C.ar    1  UNL1        0.0229
     13 N           7.6183    4.8565    7.3052 N.ar    1  UNL1       -0.2842
     14 N           7.0818    4.7335    6.0790 N.ar    1  UNL1       -0.1739
     15 C           4.8877    2.1654    4.9337 C.ar    1  UNL1       -0.0508
     16 C           4.2885    1.6046    3.8041 C.ar    1  UNL1       -0.0399
     17 H           0.6374   -0.6785   -0.7864 H       1  UNL1        0.0234
     18 H           0.5652    0.9454   -0.0788 H       1  UNL1        0.0234
     19 H           0.5705   -0.4726    0.9730 H       1  UNL1        0.0234
     20 H           2.9031    0.4074   -0.8263 H       1  UNL1        0.0356
     21 H           2.9076   -1.0155    0.2453 H       1  UNL1        0.0356
     22 H           4.9336    0.7672    0.6792 H       1  UNL1        0.1548
     23 H           6.5281    2.6055    1.4458 H       1  UNL1        0.0636
     24 H           7.6266    3.5232    3.4604 H       1  UNL1        0.0625
     25 H           6.8716    1.7141    7.4247 H       1  UNL1        0.0654
     26 H           8.0826    3.6257    8.9937 H       1  UNL1        0.0824
     27 H           7.9671    5.7662    7.5906 H       1  UNL1        0.1882
     28 H           4.4072    2.0304    5.8990 H       1  UNL1        0.0625
     29 H           3.3697    1.0413    3.9410 H       1  UNL1        0.0636
@<TRIPOS>BOND
     1     1     2    1
     2     2     3    1
     3     3     4    2
     4     3     5   am
     5     5     6    1
     6     6     7   ar
     7     7     8   ar
     8     8     9   ar
     9     9    10    1
    10    10    11   ar
    11    11    12   ar
    12    12    13   ar
    13    13    14   ar
    14    10    14   ar
    15     9    15   ar
    16    15    16   ar
    17     6    16   ar
    18     1    17    1
    19     1    18    1
    20     1    19    1
    21     2    20    1
    22     2    21    1
    23     5    22    1
    24     7    23    1
    25     8    24    1
    26    11    25    1
    27    12    26    1
    28    13    27    1
    29    15    28    1
    30    16    29    1
