@<TRIPOS>MOLECULE
*****
 67 71 0 0 0
SMALL
GASTEIGER

@<TRIPOS>ATOM
      1 C           0.8079   -0.0428    0.0022 C.3     1  UNL1       -0.0597
      2 C           2.2811   -0.3224    0.0619 C.3     1  UNL1       -0.0051
      3 C           2.8636   -0.9918   -1.1766 C.3     1  UNL1        0.0421
      4 C           2.4017   -0.4756   -2.5571 C.ar    1  UNL1        0.1994
      5 N           1.9864   -1.2898   -3.5186 N.ar    1  UNL1       -0.1075
      6 N           1.7531   -0.5281   -4.6334 N.ar    1  UNL1       -0.0228
      7 N           2.0282    0.7377   -4.3975 N.ar    1  UNL1       -0.0437
      8 N           2.4200    0.7948   -3.1168 N.ar    1  UNL1       -0.2242
      9 C           2.7969    2.1040   -2.6334 C.3     1  UNL1        0.0493
     10 C           3.1000    2.0692   -1.1866 C.3     1  UNL1       -0.0079
     11 C           3.4995    3.2364   -0.3990 C.ar    1  UNL1       -0.0456
     12 C           3.8049    3.0620    0.9425 C.ar    1  UNL1       -0.0585
     13 C           3.9085    4.0951    1.8514 C.ar    1  UNL1       -0.0615
     14 C           3.8626    5.3637    1.3305 C.ar    1  UNL1       -0.0617
     15 C           3.6698    5.5472   -0.0455 C.ar    1  UNL1       -0.0615
     16 C           3.4912    4.4876   -0.9139 C.ar    1  UNL1       -0.0585
     17 N           4.4114   -1.0990   -1.0271 N.4     1  UNL1        0.2517
     18 C           4.8929   -1.5553    0.3856 C.3     1  UNL1        0.0284
     19 C           4.6808   -0.7303    1.6244 C.ar    1  UNL1        0.1492
     20 C           3.9032   -0.9530    2.7489 C.ar    1  UNL1       -0.0154
     21 C           3.8578    0.2578    3.4666 C.ar    1  UNL1       -0.0235
     22 C           4.8515    1.0306    2.9253 C.ar    1  UNL1        0.0924
     23 O           5.3447    0.4553    1.7763 O.2     1  UNL1       -0.4625
     24 C           4.8932   -2.0429   -2.1676 C.3     1  UNL1        0.0003
     25 C           6.3502   -2.1306   -2.4042 C.ar    1  UNL1        0.0588
     26 C           7.0589   -2.1748   -3.5837 C.ar    1  UNL1       -0.0392
     27 C           8.5635   -2.1155   -3.5112 C.ar    1  UNL1        0.0013
     28 C           9.5337   -1.2878   -2.7179 C.ar    1  UNL1       -0.0525
     29 C          10.9034   -1.5208   -2.5462 C.ar    1  UNL1       -0.0608
     30 C          11.3981   -2.5791   -3.2242 C.ar    1  UNL1       -0.0568
     31 C          10.4442   -3.4689   -3.7236 C.ar    1  UNL1       -0.0244
     32 C          11.0411   -4.2787   -4.9005 C.3     1  UNL1       -0.0377
     33 C           9.0192   -3.3174   -3.2192 C.ar    1  UNL1        0.0777
     34 N           8.3481   -3.3864   -1.9141 N.ar    1  UNL1       -0.2124
     35 C           7.2293   -2.5161   -1.4573 C.ar    1  UNL1        0.2213
     36 O           7.5204   -1.0599   -1.0844 O.3     1  UNL1       -0.4921
     37 H           0.5443    0.7143    0.7466 H       1  UNL1        0.0232
     38 H           0.3136   -0.9818    0.2463 H       1  UNL1        0.0232
     39 H           0.4673    0.2963   -0.9767 H       1  UNL1        0.0232
     40 H           2.3723   -0.9565    0.9335 H       1  UNL1        0.0322
     41 H           2.8796    0.5222    0.3805 H       1  UNL1        0.0322
     42 H           2.5218   -2.0340   -1.0972 H       1  UNL1        0.0936
     43 H           1.9476    2.7745   -2.7978 H       1  UNL1        0.0513
     44 H           3.6818    2.4345   -3.1785 H       1  UNL1        0.0513
     45 H           3.9026    1.3514   -1.0603 H       1  UNL1        0.0331
     46 H           2.1340    1.8120   -0.7528 H       1  UNL1        0.0331
     47 H           4.0380    2.0621    1.2091 H       1  UNL1        0.0620
     48 H           4.0676    3.9327    2.9156 H       1  UNL1        0.0618
     49 H           4.0251    6.2091    1.9873 H       1  UNL1        0.0618
     50 H           3.6319    6.5372   -0.4679 H       1  UNL1        0.0618
     51 H           3.3514    4.6155   -1.9767 H       1  UNL1        0.0620
     52 H           4.8645   -0.2060   -1.2447 H       1  UNL1        0.2049
     53 H           5.9608   -1.6520    0.3489 H       1  UNL1        0.0898
     54 H           4.4826   -2.5530    0.5207 H       1  UNL1        0.0898
     55 H           3.3117   -1.8369    2.9306 H       1  UNL1        0.0654
     56 H           3.2032    0.5493    4.2801 H       1  UNL1        0.0649
     57 H           5.1604    2.0500    3.1264 H       1  UNL1        0.1029
     58 H           4.4517   -1.6456   -3.0861 H       1  UNL1        0.0869
     59 H           4.4508   -3.0193   -1.9529 H       1  UNL1        0.0869
     60 H           6.5964   -2.9723   -4.2063 H       1  UNL1        0.0630
     61 H           9.2666   -0.9434   -1.7097 H       1  UNL1        0.0624
     62 H          11.4882   -0.9476   -1.8354 H       1  UNL1        0.0618
     63 H          12.4683   -2.6742   -3.3614 H       1  UNL1        0.0621
     64 H          12.1432   -4.1169   -4.9608 H       1  UNL1        0.0278
     65 H          10.7109   -3.9768   -5.9055 H       1  UNL1        0.0278
     66 H          10.9483   -5.3568   -4.7699 H       1  UNL1        0.0278
     67 H           7.2848   -0.6532   -0.2415 H       1  UNL1        0.2937
@<TRIPOS>UNITY_ATOM_ATTR
17 1
charge 1
@<TRIPOS>BOND
     1     1     2    1
     2     2     3    1
     3     3     4    1
     4     4     5   ar
     5     5     6   ar
     6     6     7   ar
     7     7     8   ar
     8     4     8   ar
     9     8     9    1
    10     9    10    1
    11    10    11    1
    12    11    12   ar
    13    12    13   ar
    14    13    14   ar
    15    14    15   ar
    16    15    16   ar
    17    11    16   ar
    18     3    17    1
    19    17    18    1
    20    18    19    1
    21    19    20   ar
    22    20    21   ar
    23    21    22   ar
    24    22    23   ar
    25    19    23   ar
    26    17    24    1
    27    24    25    1
    28    25    26   ar
    29    26    27   ar
    30    27    28   ar
    31    28    29   ar
    32    29    30   ar
    33    30    31   ar
    34    31    32    1
    35    31    33   ar
    36    27    33   ar
    37    33    34   ar
    38    34    35   ar
    39    25    35   ar
    40    35    36    1
    41     1    37    1
    42     1    38    1
    43     1    39    1
    44     2    40    1
    45     2    41    1
    46     3    42    1
    47     9    43    1
    48     9    44    1
    49    10    45    1
    50    10    46    1
    51    12    47    1
    52    13    48    1
    53    14    49    1
    54    15    50    1
    55    16    51    1
    56    17    52    1
    57    18    53    1
    58    18    54    1
    59    20    55    1
    60    21    56    1
    61    22    57    1
    62    24    58    1
    63    24    59    1
    64    26    60    1
    65    28    61    1
    66    29    62    1
    67    30    63    1
    68    32    64    1
    69    32    65    1
    70    32    66    1
    71    36    67    1
