@<TRIPOS>MOLECULE
*****
 69 72 0 0 0
SMALL
GASTEIGER

@<TRIPOS>ATOM
      1 C           0.9661   -0.0805   -0.0361 C.3     1  UNL1       -0.0587
      2 C           2.4998   -0.0885   -0.0266 C.3     1  UNL1       -0.0215
      3 C           2.9878    1.1913    0.6761 C.3     1  UNL1       -0.0587
      4 C           2.9665   -1.3660    0.6537 C.ar    1  UNL1       -0.0447
      5 C           2.7502   -2.6343    0.0899 C.ar    1  UNL1       -0.0566
      6 C           2.9567   -3.8153    0.8451 C.ar    1  UNL1       -0.0402
      7 C           3.4836   -3.7504    2.1433 C.ar    1  UNL1        0.0348
      8 N           3.8037   -4.9319    2.8966 N.am    1  UNL1       -0.2692
      9 C           4.4314   -4.8913    4.1405 C.2     1  UNL1        0.3081
     10 O           4.7311   -3.8533    4.7261 O.2     1  UNL1       -0.2522
     11 N           4.7387   -6.1131    4.7257 N.am    1  UNL1       -0.2692
     12 C           5.3299   -6.1433    6.0369 C.ar    1  UNL1        0.0356
     13 C           6.3585   -7.0090    6.3743 C.ar    1  UNL1       -0.0386
     14 C           6.8670   -7.0259    7.6978 C.ar    1  UNL1       -0.0382
     15 C           6.3936   -6.1885    8.7404 C.ar    1  UNL1        0.0420
     16 N           7.0096   -6.3397    9.9795 N.pl3   1  UNL1       -0.3293
     17 C           6.3205   -6.4553   11.2670 C.3     1  UNL1        0.0123
     18 C           7.0243   -5.4414   12.1730 C.3     1  UNL1       -0.0358
     19 C           8.4697   -5.5586   11.7253 C.3     1  UNL1       -0.0358
     20 C           8.3887   -5.8739   10.2161 C.3     1  UNL1        0.0123
     21 C           5.3247   -5.3206    8.3836 C.ar    1  UNL1        0.0594
     22 C           4.6515   -4.4098    9.3584 C.2     1  UNL1        0.2464
     23 O           4.9827   -4.3899   10.5443 O.2     1  UNL1       -0.2701
     24 N           3.6264   -3.5676    8.9790 N.am    1  UNL1       -0.3047
     25 C           3.0135   -2.7097    9.9826 C.3     1  UNL1        0.0458
     26 C           4.0556   -1.8008   10.6663 C.3     1  UNL1       -0.0424
     27 C           1.8827   -1.8996    9.3719 C.ar    1  UNL1       -0.0275
     28 C           1.9641   -0.5005    9.2727 C.ar    1  UNL1       -0.0568
     29 C           0.8845    0.2581    8.8462 C.ar    1  UNL1       -0.0614
     30 C          -0.2644   -0.3782    8.4004 C.ar    1  UNL1       -0.0617
     31 C          -0.3528   -1.7701    8.4387 C.ar    1  UNL1       -0.0614
     32 C           0.7085   -2.5306    8.9357 C.ar    1  UNL1       -0.0568
     33 C           4.8420   -5.3061    7.0478 C.ar    1  UNL1       -0.0265
     34 C           3.7189   -2.4772    2.6593 C.ar    1  UNL1       -0.0402
     35 C           3.4929   -1.3187    1.9359 C.ar    1  UNL1       -0.0566
     36 H           0.5799    0.8233   -0.5164 H       1  UNL1        0.0235
     37 H           0.5683   -0.1172    0.9862 H       1  UNL1        0.0235
     38 H           0.5625   -0.9451   -0.5737 H       1  UNL1        0.0235
     39 H           2.8753   -0.0736   -1.0573 H       1  UNL1        0.0343
     40 H           2.6100    1.2500    1.7059 H       1  UNL1        0.0235
     41 H           2.6379    2.0917    0.1654 H       1  UNL1        0.0235
     42 H           4.0829    1.2227    0.7168 H       1  UNL1        0.0235
     43 H           2.3860   -2.7057   -0.9350 H       1  UNL1        0.0621
     44 H           2.6685   -4.7607    0.3935 H       1  UNL1        0.0636
     45 H           3.6363   -5.8186    2.4442 H       1  UNL1        0.1564
     46 H           4.8064   -6.9384    4.1504 H       1  UNL1        0.1564
     47 H           6.8310   -7.6394    5.6270 H       1  UNL1        0.0637
     48 H           7.6331   -7.7611    7.9442 H       1  UNL1        0.0637
     49 H           6.5224   -7.4621   11.6481 H       1  UNL1        0.0464
     50 H           5.2319   -6.3798   11.2456 H       1  UNL1        0.0464
     51 H           6.8831   -5.6649   13.2349 H       1  UNL1        0.0281
     52 H           6.6926   -4.4092   12.0162 H       1  UNL1        0.0281
     53 H           8.9533   -6.3797   12.2674 H       1  UNL1        0.0281
     54 H           9.0431   -4.6484   11.9371 H       1  UNL1        0.0281
     55 H           9.0957   -6.6785    9.9858 H       1  UNL1        0.0464
     56 H           8.6562   -4.9891    9.6279 H       1  UNL1        0.0464
     57 H           3.2727   -3.5118    8.0366 H       1  UNL1        0.1496
     58 H           2.5818   -3.3645   10.7551 H       1  UNL1        0.0545
     59 H           4.5726   -1.1872    9.9198 H       1  UNL1        0.0251
     60 H           4.8391   -2.3347   11.2045 H       1  UNL1        0.0251
     61 H           3.5771   -1.1545   11.4087 H       1  UNL1        0.0251
     62 H           2.8673    0.0369    9.5468 H       1  UNL1        0.0621
     63 H           0.9539    1.3412    8.8750 H       1  UNL1        0.0618
     64 H          -1.0877    0.2169    8.0196 H       1  UNL1        0.0618
     65 H          -1.2605   -2.2604    8.0987 H       1  UNL1        0.0618
     66 H           0.6120   -3.6138    8.9874 H       1  UNL1        0.0621
     67 H           4.0364   -4.6387    6.7712 H       1  UNL1        0.0644
     68 H           4.0676   -2.2912    3.6637 H       1  UNL1        0.0636
     69 H           3.7186   -0.3888    2.4472 H       1  UNL1        0.0621
@<TRIPOS>BOND
     1     1     2    1
     2     2     3    1
     3     2     4    1
     4     4     5   ar
     5     5     6   ar
     6     6     7   ar
     7     7     8    1
     8     8     9   am
     9     9    10    2
    10     9    11   am
    11    11    12    1
    12    12    13   ar
    13    13    14   ar
    14    14    15   ar
    15    15    16    1
    16    16    17    1
    17    17    18    1
    18    18    19    1
    19    19    20    1
    20    16    20    1
    21    15    21   ar
    22    21    22    1
    23    22    23    2
    24    22    24   am
    25    24    25    1
    26    25    26    1
    27    25    27    1
    28    27    28   ar
    29    28    29   ar
    30    29    30   ar
    31    30    31   ar
    32    31    32   ar
    33    27    32   ar
    34    21    33   ar
    35    12    33   ar
    36     7    34   ar
    37    34    35   ar
    38     4    35   ar
    39     1    36    1
    40     1    37    1
    41     1    38    1
    42     2    39    1
    43     3    40    1
    44     3    41    1
    45     3    42    1
    46     5    43    1
    47     6    44    1
    48     8    45    1
    49    11    46    1
    50    13    47    1
    51    14    48    1
    52    17    49    1
    53    17    50    1
    54    18    51    1
    55    18    52    1
    56    19    53    1
    57    19    54    1
    58    20    55    1
    59    20    56    1
    60    24    57    1
    61    25    58    1
    62    26    59    1
    63    26    60    1
    64    26    61    1
    65    28    62    1
    66    29    63    1
    67    30    64    1
    68    31    65    1
    69    32    66    1
    70    33    67    1
    71    34    68    1
    72    35    69    1
