@<TRIPOS>MOLECULE
*****
 47 50 0 0 0
SMALL
GASTEIGER

@<TRIPOS>ATOM
      1 C           0.9746   -0.0563   -0.0763 C.3     1  UNL1       -0.0383
      2 C           2.4658   -0.0553   -0.0590 C.ar    1  UNL1       -0.0334
      3 C           3.1835    1.1996   -0.1266 C.ar    1  UNL1       -0.0496
      4 C           4.5014    1.2208    0.1278 C.ar    1  UNL1        0.0296
      5 C           5.2359   -0.0768    0.1417 C.ar    1  UNL1        0.2909
      6 N           6.5618   -0.0463    0.0689 N.ar    1  UNL1       -0.1917
      7 C           7.2575   -1.2267   -0.1990 C.ar    1  UNL1        0.2032
      8 C           8.8146   -1.2365   -0.1081 C.3     1  UNL1        0.0850
      9 N           9.3852   -2.5398    0.2163 N.3     1  UNL1       -0.2859
     10 C           9.3167   -3.7054   -0.6569 C.3     1  UNL1        0.0001
     11 C           9.0908   -4.8402    0.3381 C.3     1  UNL1       -0.0384
     12 C           9.9586   -4.4295    1.5186 C.3     1  UNL1       -0.0320
     13 C           9.9278   -2.8811    1.5491 C.3     1  UNL1        0.0362
     14 C           9.1760   -2.3758    2.7861 C.ar    1  UNL1       -0.0300
     15 C           9.5966   -2.6072    4.0895 C.ar    1  UNL1       -0.0536
     16 C           8.7391   -2.2961    5.1736 C.ar    1  UNL1       -0.0199
     17 C           7.5501   -1.5919    4.9773 C.ar    1  UNL1        0.1169
     18 O           6.6373   -1.3166    5.9385 O.3     1  UNL1       -0.5068
     19 C           7.2193   -1.1705    3.7344 C.ar    1  UNL1       -0.0199
     20 C           7.9871   -1.6620    2.7088 C.ar    1  UNL1       -0.0536
     21 C           6.5691   -2.3798   -0.1634 C.ar    1  UNL1        0.0715
     22 C           5.1481   -2.4596    0.0235 C.ar    1  UNL1        0.2659
     23 O           4.5299   -3.5194    0.0672 O.2     1  UNL1       -0.2670
     24 N           4.5290   -1.2031    0.1073 N.ar    1  UNL1       -0.2298
     25 C           3.1464   -1.1961    0.1031 C.ar    1  UNL1        0.0215
     26 H           0.5726    0.9451   -0.2467 H       1  UNL1        0.0278
     27 H           0.6001   -0.4136    0.8887 H       1  UNL1        0.0278
     28 H           0.5970   -0.7159   -0.8653 H       1  UNL1        0.0278
     29 H           2.6521    2.1015   -0.4139 H       1  UNL1        0.0623
     30 H           5.0404    2.1551    0.2261 H       1  UNL1        0.0701
     31 H           7.0491    0.8412    0.1769 H       1  UNL1        0.4547
     32 H           9.1129   -0.5357    0.6892 H       1  UNL1        0.0536
     33 H           9.2477   -0.7820   -1.0032 H       1  UNL1        0.0536
     34 H          10.2600   -3.8569   -1.1890 H       1  UNL1        0.0427
     35 H           8.5293   -3.6835   -1.4206 H       1  UNL1        0.0427
     36 H           9.3563   -5.8216   -0.0668 H       1  UNL1        0.0278
     37 H           8.0459   -4.9141    0.6684 H       1  UNL1        0.0278
     38 H          10.9785   -4.7832    1.3257 H       1  UNL1        0.0284
     39 H           9.6064   -4.9030    2.4405 H       1  UNL1        0.0284
     40 H          10.9579   -2.5042    1.5902 H       1  UNL1        0.0512
     41 H          10.5616   -3.0704    4.2826 H       1  UNL1        0.0622
     42 H           9.0114   -2.6244    6.1684 H       1  UNL1        0.0654
     43 H           6.8921   -1.7853    6.7461 H       1  UNL1        0.2921
     44 H           6.3451   -0.5668    3.5165 H       1  UNL1        0.0654
     45 H           7.5250   -1.4721    1.7991 H       1  UNL1        0.0622
     46 H           7.0164   -3.3463   -0.0906 H       1  UNL1        0.0735
     47 H           2.6223   -2.1489    0.2089 H       1  UNL1        0.0818
@<TRIPOS>UNITY_ATOM_ATTR
6 1
charge 1
@<TRIPOS>BOND
     1     1     2    1
     2     2     3   ar
     3     3     4   ar
     4     4     5   ar
     5     5     6   ar
     6     6     7   ar
     7     7     8    1
     8     8     9    1
     9     9    10    1
    10    10    11    1
    11    11    12    1
    12    12    13    1
    13     9    13    1
    14    14    15   ar
    15    15    16   ar
    16    16    17   ar
    17    17    18    1
    18    17    19   ar
    19    19    20   ar
    20    14    20   ar
    21     7    21   ar
    22    21    22   ar
    23    22    23    2
    24    22    24   ar
    25     5    24   ar
    26    24    25   ar
    27     2    25   ar
    28    13    14    1
    29     1    26    1
    30     1    27    1
    31     1    28    1
    32     3    29    1
    33     4    30    1
    34     6    31    1
    35     8    32    1
    36     8    33    1
    37    10    34    1
    38    10    35    1
    39    11    36    1
    40    11    37    1
    41    12    38    1
    42    12    39    1
    43    13    40    1
    44    15    41    1
    45    16    42    1
    46    18    43    1
    47    19    44    1
    48    20    45    1
    49    21    46    1
    50    25    47    1
