@<TRIPOS>MOLECULE
*****
 60 62 0 0 0
SMALL
GASTEIGER

@<TRIPOS>ATOM
      1 C           0.1335    1.3108    2.7915 C.3     1  UNL1       -0.0394
      2 C           0.3285    2.7595    2.5810 C.ar    1  UNL1       -0.0450
      3 C           0.0928    3.5703    3.6832 C.ar    1  UNL1       -0.0585
      4 C           0.2436    4.9369    3.5736 C.ar    1  UNL1       -0.0615
      5 C           0.4960    5.5075    2.3297 C.ar    1  UNL1       -0.0614
      6 C           0.5906    4.7075    1.1841 C.ar    1  UNL1       -0.0561
      7 C           0.6139    3.3027    1.3099 C.ar    1  UNL1       -0.0149
      8 C           1.0425    2.4209    0.1144 C.3     1  UNL1        0.1326
      9 C          -0.0828    1.3062   -0.1066 C.2     1  UNL1        0.2389
     10 O          -1.1506    1.6887   -0.5982 O.2     1  UNL1       -0.2734
     11 N           0.0403   -0.0142    0.3683 N.am    1  UNL1       -0.3087
     12 C          -1.1423   -0.9192    0.4716 C.3     1  UNL1        0.0262
     13 C          -2.2573   -0.3189    1.3512 C.3     1  UNL1       -0.0442
     14 C          -1.7075   -1.1758   -0.9200 C.3     1  UNL1       -0.0442
     15 C          -0.7810   -2.2866    1.0939 C.3     1  UNL1       -0.0442
     16 N           2.5241    2.1441    0.0055 N.am    1  UNL1       -0.2513
     17 C           3.0475    0.8588   -0.1001 C.2     1  UNL1        0.2520
     18 O           3.9761    0.4758    0.6316 O.2     1  UNL1       -0.2696
     19 C           2.5164   -0.1085   -1.1137 C.ar    1  UNL1        0.0437
     20 C           2.8710   -1.4632   -1.0009 C.ar    1  UNL1       -0.0492
     21 C           2.2933   -2.4213   -1.8411 C.ar    1  UNL1       -0.0546
     22 C           1.3223   -2.0471   -2.7732 C.ar    1  UNL1        0.0156
     23 C           0.9674   -0.6991   -2.8904 C.ar    1  UNL1        0.2739
     24 N          -0.1904   -0.3041   -3.7159 N.pl3   1  UNL1        0.0796
     25 O          -0.7418   -1.1832   -4.3918 O.2     1  UNL1        0.0414
     26 O          -0.5605    0.8769   -3.6595 O.co2   1  UNL1       -0.5760
     27 C           1.6122    0.2724   -2.1157 C.ar    1  UNL1        0.0277
     28 C           3.4963    3.2359    0.0442 C.ar    1  UNL1        0.0391
     29 C           4.6137    3.2384   -0.8016 C.ar    1  UNL1       -0.0401
     30 C           5.5896    4.2533   -0.7162 C.ar    1  UNL1       -0.0586
     31 C           5.4135    5.3511    0.1251 C.ar    1  UNL1       -0.0433
     32 C           4.3117    5.3744    0.9518 C.ar    1  UNL1        0.0427
     33 CL          4.0565    6.6845    2.0409 Cl      1  UNL1       -0.0835
     34 C           3.4315    4.2924    0.9535 C.ar    1  UNL1       -0.0219
     35 H          -0.1971    0.9894    3.7771 H       1  UNL1        0.0278
     36 H           1.0116    0.7369    2.4970 H       1  UNL1        0.0278
     37 H          -0.7288    1.1515    2.1726 H       1  UNL1        0.0278
     38 H          -0.1836    3.1123    4.6291 H       1  UNL1        0.0620
     39 H           0.1777    5.5438    4.4684 H       1  UNL1        0.0618
     40 H           0.7060    6.5716    2.2666 H       1  UNL1        0.0618
     41 H           0.8502    5.1852    0.2378 H       1  UNL1        0.0621
     42 H           0.8814    3.0447   -0.7828 H       1  UNL1        0.0651
     43 H           0.8972   -0.3357    0.8092 H       1  UNL1        0.1493
     44 H          -2.5101    0.7021    1.0504 H       1  UNL1        0.0250
     45 H          -1.9657   -0.3026    2.4079 H       1  UNL1        0.0250
     46 H          -3.1762   -0.9042    1.3052 H       1  UNL1        0.0250
     47 H          -1.9041   -0.2492   -1.4599 H       1  UNL1        0.0250
     48 H          -2.6461   -1.7289   -0.8843 H       1  UNL1        0.0250
     49 H          -1.0027   -1.7661   -1.5010 H       1  UNL1        0.0250
     50 H          -0.3986   -2.1901    2.1167 H       1  UNL1        0.0250
     51 H          -0.0338   -2.8311    0.5080 H       1  UNL1        0.0250
     52 H          -1.6794   -2.9182    1.1444 H       1  UNL1        0.0250
     53 H           3.5855   -1.7851   -0.2411 H       1  UNL1        0.0625
     54 H           2.5776   -3.4674   -1.7448 H       1  UNL1        0.0620
     55 H           0.8258   -2.8121   -3.3669 H       1  UNL1        0.0685
     56 H           1.3010    1.3059   -2.2191 H       1  UNL1        0.0693
     57 H           4.7558    2.4540   -1.5402 H       1  UNL1        0.0636
     58 H           6.5050    4.1759   -1.2962 H       1  UNL1        0.0619
     59 H           6.1483    6.1492    0.1723 H       1  UNL1        0.0632
     60 H           2.7492    4.2613    1.7832 H       1  UNL1        0.0651
@<TRIPOS>UNITY_ATOM_ATTR
24 1
charge 1
26 1
charge -1
@<TRIPOS>BOND
     1     1     2    1
     2     2     3   ar
     3     3     4   ar
     4     4     5   ar
     5     5     6   ar
     6     6     7   ar
     7     2     7   ar
     8     9    10    2
     9     9    11   am
    10    11    12    1
    11    12    13    1
    12    12    14    1
    13    12    15    1
    14     8    16    1
    15    16    17   am
    16    17    18    2
    17    17    19    1
    18    19    20   ar
    19    20    21   ar
    20    21    22   ar
    21    22    23   ar
    22    23    24    1
    23    24    25    2
    24    24    26    1
    25    23    27   ar
    26    19    27   ar
    27    16    28    1
    28    28    29   ar
    29    29    30   ar
    30    30    31   ar
    31    31    32   ar
    32    32    33    1
    33    32    34   ar
    34    28    34   ar
    35     8     9    1
    36     8     7    1
    37     1    35    1
    38     1    36    1
    39     1    37    1
    40     3    38    1
    41     4    39    1
    42     5    40    1
    43     6    41    1
    44     8    42    1
    45    11    43    1
    46    13    44    1
    47    13    45    1
    48    13    46    1
    49    14    47    1
    50    14    48    1
    51    14    49    1
    52    15    50    1
    53    15    51    1
    54    15    52    1
    55    20    53    1
    56    21    54    1
    57    22    55    1
    58    27    56    1
    59    29    57    1
    60    30    58    1
    61    31    59    1
    62    34    60    1
