REMARK  4 active torsions:
REMARK  status: ('A' for Active; 'I' for Inactive)
REMARK    1  A    between atoms: C_2  and  C_4 
REMARK    2  A    between atoms: C_8  and  N_9 
REMARK       I    between atoms: N_9  and  C_10 
REMARK       I    between atoms: C_10  and  N_12 
REMARK    3  A    between atoms: N_12  and  N_13 
REMARK    4  A    between atoms: N_13  and  C_14 
ROOT
ATOM      1  N   UNL d   1       3.113  -3.908   3.001  0.00  0.00    -0.308 N 
ATOM      2  C   UNL d   1       1.948  -4.539   2.568  0.00  0.00     0.335 C 
ATOM      3  O   UNL d   1       1.138  -4.083   1.753  0.00  0.00    -0.246 OA
ATOM      4  N   UNL d   1       1.675  -5.775   3.152  0.00  0.00    -0.268 N 
ATOM      5  H   UNL d   1       3.742  -4.425   3.600  0.00  0.00     0.170 HD
ATOM      6  H   UNL d   1       2.420  -6.331   3.550  0.00  0.00     0.185 HD
ENDROOT
BRANCH   1   7
ATOM      7  C   UNL d   1       3.551  -2.614   2.566  0.00  0.00     0.037 A 
ATOM      8  C   UNL d   1       4.778  -2.075   2.986  0.00  0.00     0.029 A 
ATOM      9  C   UNL d   1       5.212  -0.817   2.511  0.00  0.00     0.003 A 
ATOM     10  C   UNL d   1       4.421  -0.076   1.630  0.00  0.00     0.015 A 
ATOM     11  C   UNL d   1       3.221  -0.618   1.184  0.00  0.00     0.011 A 
ATOM     12  C   UNL d   1       2.791  -1.851   1.675  0.00  0.00     0.044 A 
BRANCH  11  13
ATOM     13  C   UNL d   1       2.469   0.022   0.076  0.00  0.00     0.155 C 
ATOM     14  C   UNL d   1       0.962  -0.040   0.079  0.00  0.00     0.096 C 
ATOM     15  O   UNL d   1       3.098   0.576  -0.828  0.00  0.00    -0.293 OA
ENDBRANCH  11  13
ENDBRANCH   1   7
BRANCH   4  16
ATOM     16  N   UNL d   1       0.731  -6.546   2.398  0.00  0.00    -0.202 NA
ATOM     17  H   UNL d   1       0.015  -5.938   1.972  0.00  0.00     0.153 HD
BRANCH  16  18
ATOM     18  C   UNL d   1       0.164  -7.694   2.992  0.00  0.00     0.027 A 
ATOM     19  C   UNL d   1      -0.531  -8.593   2.161  0.00  0.00     0.025 A 
ATOM     20  C   UNL d   1      -1.121  -9.755   2.673  0.00  0.00     0.002 A 
ATOM     21  C   UNL d   1      -0.984 -10.063   4.022  0.00  0.00     0.000 A 
ATOM     22  C   UNL d   1      -0.300  -9.184   4.860  0.00  0.00     0.002 A 
ATOM     23  C   UNL d   1       0.259  -8.004   4.351  0.00  0.00     0.025 A 
ENDBRANCH  16  18
ENDBRANCH   4  16
TORSDOF 4
