REMARK  7 active torsions:
REMARK  status: ('A' for Active; 'I' for Inactive)
REMARK    1  A    between atoms: C_2  and  C_4 
REMARK    2  A    between atoms: C_7  and  N_8 
REMARK       I    between atoms: N_8  and  C_9 
REMARK       I    between atoms: C_9  and  N_11 
REMARK    3  A    between atoms: N_11  and  C_12 
REMARK    4  A    between atoms: C_15  and  N_16 
REMARK    5  A    between atoms: C_21  and  C_22 
REMARK       I    between atoms: C_22  and  N_24 
REMARK    6  A    between atoms: C_25  and  N_24 
REMARK    7  A    between atoms: C_25  and  C_27 
ROOT
ATOM      1  C   UNL d   1      10.381  -1.680  -9.926  0.00  0.00     0.037 C 
ATOM      2  C   UNL d   1       9.991  -1.419 -11.217  0.00  0.00     0.032 C 
ATOM      3  C   UNL d   1       9.706  -0.068 -11.612  0.00  0.00     0.032 C 
ATOM      4  C   UNL d   1       9.741   1.070 -10.749  0.00  0.00     0.046 C 
ATOM      5  C   UNL d   1      10.199   0.801  -9.449  0.00  0.00     0.060 C 
ATOM      6  C   UNL d   1      10.571  -0.548  -9.150  0.00  0.00     0.049 C 
ENDROOT
BRANCH   1   7
ATOM      7  N   UNL d   1      10.687  -2.966  -9.318  0.00  0.00    -0.309 N 
ATOM      8  C   UNL d   1       9.924  -3.416  -8.223  0.00  0.00     0.325 C 
ATOM      9  N   UNL d   1      10.407  -4.525  -7.524  0.00  0.00    -0.309 N 
ATOM     10  O   UNL d   1       8.879  -2.838  -7.910  0.00  0.00    -0.247 OA
ATOM     11  H   UNL d   1      11.051  -5.146  -7.994  0.00  0.00     0.170 HD
ATOM     12  H   UNL d   1      11.087  -3.677  -9.910  0.00  0.00     0.170 HD
BRANCH   9  13
ATOM     13  C   UNL d   1       9.805  -5.046  -6.312  0.00  0.00     0.036 A 
ATOM     14  C   UNL d   1      10.105  -6.340  -5.866  0.00  0.00     0.030 A 
ATOM     15  C   UNL d   1       9.415  -6.907  -4.771  0.00  0.00     0.010 A 
ATOM     16  C   UNL d   1       8.478  -6.172  -4.029  0.00  0.00    -0.055 A 
ATOM     17  C   UNL d   1       8.229  -4.863  -4.423  0.00  0.00     0.010 A 
ATOM     18  C   UNL d   1       8.884  -4.322  -5.540  0.00  0.00     0.030 A 
BRANCH  16  19
ATOM     19  C   UNL d   1       7.761  -6.759  -2.826  0.00  0.00     0.010 C 
ATOM     20  C   UNL d   1       6.904  -7.955  -3.241  0.00  0.00     0.015 C 
ATOM     21  C   UNL d   1       8.768  -7.160  -1.744  0.00  0.00     0.015 C 
ENDBRANCH  16  19
ENDBRANCH   9  13
ENDBRANCH   1   7
BRANCH   5  22
ATOM     22  C   UNL d   1      10.223   1.849  -8.339  0.00  0.00     0.254 C 
ATOM     23  O   UNL d   1       9.875   3.021  -8.471  0.00  0.00    -0.268 OA
ATOM     24  N   UNL d   1      10.608   1.569  -7.051  0.00  0.00    -0.349 N 
ATOM     25  H   UNL d   1      10.545   2.415  -6.505  0.00  0.00     0.163 HD
BRANCH  24  26
ATOM     26  C   UNL d   1      10.574   0.299  -6.370  0.00  0.00     0.114 C 
ATOM     27  C   UNL d   1       9.206  -0.375  -6.551  0.00  0.00     0.037 C 
BRANCH  26  28
ATOM     28  C   UNL d   1      10.845   0.292  -4.896  0.00  0.00    -0.036 C 
ATOM     29  C   UNL d   1      10.925  -0.962  -4.251  0.00  0.00     0.009 C 
ATOM     30  C   UNL d   1      10.893  -1.029  -2.871  0.00  0.00     0.001 C 
ATOM     31  C   UNL d   1      10.913   0.153  -2.138  0.00  0.00     0.000 C 
ATOM     32  C   UNL d   1      10.932   1.392  -2.777  0.00  0.00     0.001 C 
ATOM     33  C   UNL d   1      10.896   1.463  -4.155  0.00  0.00     0.009 C 
ENDBRANCH  26  28
ENDBRANCH  24  26
ENDBRANCH   5  22
BRANCH   4  34
ATOM     34  N   UNL d   1       9.354   2.294 -11.266  0.00  0.00    -0.380 N 
ATOM     35  C   UNL d   1      10.028   3.582 -11.084  0.00  0.00     0.123 C 
ATOM     36  C   UNL d   1       8.885   4.575 -10.873  0.00  0.00     0.021 C 
ATOM     37  C   UNL d   1       7.820   4.048 -11.822  0.00  0.00     0.021 C 
ATOM     38  C   UNL d   1       8.011   2.519 -11.819  0.00  0.00     0.123 C 
ENDBRANCH   4  34
TORSDOF 7
