REMARK  4 active torsions:
REMARK  status: ('A' for Active; 'I' for Inactive)
REMARK    1  A    between atoms: C_2  and  N_4 
REMARK       I    between atoms: N_4  and  C_5 
REMARK    2  A    between atoms: C_5  and  C_7 
REMARK       I    between atoms: C_7  and  N_9 
REMARK    3  A    between atoms: N_9  and  N_10 
REMARK       I    between atoms: N_10  and  C_11 
REMARK    4  A    between atoms: C_11  and  C_13 
ROOT
ATOM      1  N   UNL d   1       6.987   3.860  -2.693  0.00  0.00    -0.263 N 
ATOM      2  C   UNL d   1       8.370   3.985  -2.858  0.00  0.00     0.270 C 
ATOM      3  O   UNL d   1       9.162   3.184  -2.360  0.00  0.00    -0.266 OA
ATOM      4  H   UNL d   1       6.311   4.443  -3.180  0.00  0.00     0.190 HD
ENDROOT
BRANCH   1   5
ATOM      5  N   UNL d   1       6.447   2.748  -1.949  0.00  0.00    -0.259 N 
ATOM      6  C   UNL d   1       5.067   2.572  -1.811  0.00  0.00     0.327 C 
ATOM      7  O   UNL d   1       4.217   3.292  -2.333  0.00  0.00    -0.261 OA
ATOM      8  H   UNL d   1       7.113   2.119  -1.491  0.00  0.00     0.190 HD
BRANCH   6   9
ATOM      9  C   UNL d   1       4.623   1.361  -0.921  0.00  0.00     0.311 C 
ATOM     10  N   UNL d   1       3.248   1.130  -0.811  0.00  0.00    -0.349 N 
ATOM     11  H   UNL d   1       2.625   1.785  -1.276  0.00  0.00     0.163 HD
ATOM     12  O   UNL d   1       5.486   0.678  -0.377  0.00  0.00    -0.262 OA
BRANCH  10  13
ATOM     13  C   UNL d   1       2.680   0.018  -0.029  0.00  0.00     0.076 C 
ATOM     14  C   UNL d   1       1.143   0.035   0.005  0.00  0.00     0.032 C 
ATOM     15  C   UNL d   1       3.129  -1.337  -0.579  0.00  0.00     0.032 C 
ENDBRANCH  10  13
ENDBRANCH   6   9
ENDBRANCH   1   5
BRANCH   2  16
ATOM     16  C   UNL d   1       8.913   5.140  -3.676  0.00  0.00     0.034 A 
ATOM     17  C   UNL d   1       8.366   6.437  -3.601  0.00  0.00     0.017 A 
ATOM     18  C   UNL d   1       8.970   7.525  -4.271  0.00  0.00     0.009 A 
ATOM     19  C   UNL d   1      10.129   7.314  -5.005  0.00  0.00    -0.052 A 
ATOM     20  C   UNL d   1      10.676   6.032  -5.104  0.00  0.00    -0.051 A 
ATOM     21  C   UNL d   1      10.948   8.311  -5.779  0.00  0.00     0.039 C 
ATOM     22  C   UNL d   1      10.081   4.947  -4.451  0.00  0.00     0.024 A 
ATOM     23  C   UNL d   1      11.899   6.056  -5.979  0.00  0.00     0.039 C 
ATOM     24  C   UNL d   1      12.272   7.549  -5.949  0.00  0.00     0.009 C 
ENDBRANCH   2  16
TORSDOF 4
