REMARK  3 active torsions:
REMARK  status: ('A' for Active; 'I' for Inactive)
REMARK       I    between atoms: N_2  and  C_3 
REMARK    1  A    between atoms: C_3  and  C_5 
REMARK    2  A    between atoms: C_9  and  N_10 
REMARK       I    between atoms: N_10  and  C_11 
REMARK    3  A    between atoms: C_11  and  C_13 
ROOT
ATOM      1  N   UNL d   1       7.307   1.501   1.465  0.00  0.00    -0.323 N 
ATOM      2  C   UNL d   1       6.637   2.695   1.697  0.00  0.00     0.256 C 
ATOM      3  O   UNL d   1       5.421   2.887   1.645  0.00  0.00    -0.267 OA
ATOM      4  H   UNL d   1       8.310   1.465   1.609  0.00  0.00     0.169 HD
ENDROOT
BRANCH   1   5
ATOM      5  C   UNL d   1       6.662   0.275   1.136  0.00  0.00     0.035 A 
ATOM      6  C   UNL d   1       7.408  -0.906   1.028  0.00  0.00     0.029 A 
ATOM      7  C   UNL d   1       6.758  -2.128   0.784  0.00  0.00     0.003 A 
ATOM      8  C   UNL d   1       5.371  -2.173   0.601  0.00  0.00     0.017 A 
ATOM      9  C   UNL d   1       4.624  -1.002   0.704  0.00  0.00     0.034 A 
ATOM     10  C   UNL d   1       5.276   0.202   0.960  0.00  0.00     0.046 A 
BRANCH   9  11
ATOM     11  C   UNL d   1       3.138  -1.037   0.707  0.00  0.00     0.251 C 
ATOM     12  N   UNL d   1       2.478   0.002   0.081  0.00  0.00    -0.361 N 
ATOM     13  C   UNL d   1       1.036   0.059   0.067  0.00  0.00     0.149 C 
ATOM     14  H   UNL d   1       2.997   0.734  -0.390  0.00  0.00     0.162 HD
ATOM     15  O   UNL d   1       2.561  -1.962   1.276  0.00  0.00    -0.268 OA
ENDBRANCH   9  11
ENDBRANCH   1   5
BRANCH   2  16
ATOM     16  C   UNL d   1       7.419   3.901   2.018  0.00  0.00     0.034 A 
ATOM     17  C   UNL d   1       6.853   4.833   2.905  0.00  0.00     0.019 A 
ATOM     18  C   UNL d   1       7.413   6.102   3.041  0.00  0.00     0.026 A 
ATOM     19  C   UNL d   1       8.578   6.421   2.342  0.00  0.00     0.055 A 
ATOM     20 CL   UNL d   1       9.291   7.965   2.638  0.00  0.00    -0.083 Cl
ATOM     21  C   UNL d   1       9.141   5.489   1.456  0.00  0.00     0.056 A 
ATOM     22 CL   UNL d   1      10.525   5.856   0.490  0.00  0.00    -0.083 Cl
ATOM     23  C   UNL d   1       8.560   4.228   1.288  0.00  0.00     0.042 A 
ENDBRANCH   2  16
TORSDOF 3
