@<TRIPOS>MOLECULE
*****
 50 51 0 0 0
SMALL
GASTEIGER

@<TRIPOS>ATOM
      1 C           1.0272   -0.1016   -0.0290 C.3     1  UNL1       -0.0619
      2 C           2.5553   -0.0485    0.0288 C.3     1  UNL1       -0.0189
      3 C           3.0503    1.0538    0.9868 C.3     1  UNL1        0.0972
      4 C           2.4020    0.7398    2.3382 C.3     1  UNL1       -0.0278
      5 O           4.5095    1.1009    0.9208 O.3     1  UNL1       -0.4890
      6 C           5.1948    1.9558    1.7510 C.ar    1  UNL1        0.1227
      7 C           6.3795    2.5475    1.3586 C.ar    1  UNL1       -0.0198
      8 C           7.1659    3.2100    2.3286 C.ar    1  UNL1       -0.0566
      9 C           6.7161    3.3960    3.6646 C.ar    1  UNL1       -0.0402
     10 C           5.5174    2.8252    4.0671 C.ar    1  UNL1        0.0382
     11 N           4.9801    2.8637    5.4064 N.am    1  UNL1       -0.2694
     12 C           3.7814    2.2606    5.7991 C.2     1  UNL1        0.3039
     13 O           3.0050    1.6232    5.0957 O.2     1  UNL1       -0.2525
     14 N           3.4224    2.3864    7.1159 N.am    1  UNL1       -0.2991
     15 C           2.1539    1.7694    7.5373 C.3     1  UNL1        0.0134
     16 C           1.8625    1.9755    9.0106 C.3     1  UNL1       -0.0318
     17 C           0.5316    1.3456    9.4323 C.3     1  UNL1       -0.0059
     18 C           0.2878    1.5027   10.9010 C.ar    1  UNL1        0.0821
     19 N           0.2876    2.7135   11.4811 N.ar    1  UNL1       -0.1759
     20 N           0.1068    2.4428   12.7897 N.ar    1  UNL1       -0.2630
     21 C          -0.0169    1.1059   13.0644 C.ar    1  UNL1        0.1294
     22 N          -0.1808    0.6404   14.3169 N.pl3   1  UNL1       -0.3425
     23 C           0.0729    0.4752   11.8470 C.ar    1  UNL1        0.1134
     24 C          -0.0080   -0.9274   11.5996 C.1     1  UNL1        0.1044
     25 N          -0.0722   -2.0591   11.3788 N.1     1  UNL1       -0.1907
     26 C           4.8647    2.0919    3.0896 C.ar    1  UNL1        0.0013
     27 H           0.6815   -0.8707   -0.7185 H       1  UNL1        0.0231
     28 H           0.6270    0.8721   -0.3285 H       1  UNL1        0.0231
     29 H           0.5747   -0.3645    0.9316 H       1  UNL1        0.0231
     30 H           2.9578    0.1159   -0.9756 H       1  UNL1        0.0298
     31 H           2.9414   -1.0236    0.3572 H       1  UNL1        0.0298
     32 H           2.6895    2.0246    0.6301 H       1  UNL1        0.0730
     33 H           2.8734   -0.1317    2.8135 H       1  UNL1        0.0265
     34 H           1.3277    0.5875    2.3319 H       1  UNL1        0.0265
     35 H           2.4190    1.6305    2.9553 H       1  UNL1        0.0265
     36 H           6.7187    2.4702    0.3285 H       1  UNL1        0.0654
     37 H           8.1607    3.5520    2.0462 H       1  UNL1        0.0619
     38 H           7.3422    3.9513    4.3550 H       1  UNL1        0.0636
     39 H           5.5303    3.3448    6.0997 H       1  UNL1        0.1564
     40 H           3.9948    2.8789    7.7798 H       1  UNL1        0.1502
     41 H           2.1895    0.6946    7.3048 H       1  UNL1        0.0462
     42 H           1.3396    2.1903    6.9297 H       1  UNL1        0.0462
     43 H           1.8461    3.0499    9.2227 H       1  UNL1        0.0284
     44 H           2.6774    1.5412    9.6017 H       1  UNL1        0.0284
     45 H           0.5487    0.2764    9.1834 H       1  UNL1        0.0330
     46 H          -0.3064    1.7776    8.8717 H       1  UNL1        0.0330
     47 H           0.0887    3.2133   13.4479 H       1  UNL1        0.1903
     48 H          -0.2309    1.2227   15.1483 H       1  UNL1        0.1437
     49 H          -0.2482   -0.3590   14.5086 H       1  UNL1        0.1437
     50 H           4.1088    1.4580    3.4546 H       1  UNL1        0.0673
@<TRIPOS>BOND
     1     1     2    1
     2     2     3    1
     3     3     4    1
     4     3     5    1
     5     5     6    1
     6     6     7   ar
     7     7     8   ar
     8     8     9   ar
     9     9    10   ar
    10    10    11    1
    11    11    12   am
    12    12    13    2
    13    12    14   am
    14    14    15    1
    15    15    16    1
    16    16    17    1
    17    17    18    1
    18    18    19   ar
    19    19    20   ar
    20    20    21   ar
    21    21    22    1
    22    21    23   ar
    23    18    23   ar
    24    23    24    1
    25    24    25    3
    26    10    26   ar
    27     6    26   ar
    28     1    27    1
    29     1    28    1
    30     1    29    1
    31     2    30    1
    32     2    31    1
    33     3    32    1
    34     4    33    1
    35     4    34    1
    36     4    35    1
    37     7    36    1
    38     8    37    1
    39     9    38    1
    40    11    39    1
    41    14    40    1
    42    15    41    1
    43    15    42    1
    44    16    43    1
    45    16    44    1
    46    17    45    1
    47    17    46    1
    48    20    47    1
    49    22    48    1
    50    22    49    1
    51    26    50    1
