@<TRIPOS>MOLECULE
*****
 35 36 0 0 0
SMALL
GASTEIGER

@<TRIPOS>ATOM
      1 C           0.8831    0.0301    0.0015 C.3     1  UNL1       -0.0613
      2 C           2.4014    0.0178   -0.0192 C.3     1  UNL1       -0.0305
      3 C           2.9546   -0.0603   -1.4216 C.ar    1  UNL1       -0.0476
      4 C           3.1351   -1.2868   -2.0680 C.ar    1  UNL1       -0.0579
      5 C           3.7378   -1.3388   -3.3390 C.ar    1  UNL1       -0.0493
      6 C           4.0845   -0.1613   -4.0331 C.ar    1  UNL1        0.0382
      7 C           4.6062   -0.2551   -5.4527 C.2     1  UNL1        0.2601
      8 O           4.7542   -1.3570   -5.9839 O.2     1  UNL1       -0.2687
      9 N           4.8766    0.9285   -6.1426 N.am    1  UNL1       -0.2300
     10 N           5.3041    0.8837   -7.5077 N.am    1  UNL1       -0.2276
     11 C           5.6587    2.0627   -8.1776 C.2     1  UNL1        0.2957
     12 O           5.5772    3.1584   -7.6063 O.2     1  UNL1       -0.2653
     13 C           6.0668    1.9047   -9.5770 C.ar    1  UNL1        0.1978
     14 C           5.5320    1.0973  -10.5727 C.ar    1  UNL1       -0.0041
     15 C           6.2631    1.3258  -11.7615 C.ar    1  UNL1        0.0596
     16 C           7.2107    2.2659  -11.4419 C.ar    1  UNL1        0.4381
     17 N           8.2353    2.8355  -12.2760 N.pl3   1  UNL1        0.1186
     18 O           9.0040    3.6708  -11.7884 O.2     1  UNL1        0.0446
     19 O           8.2699    2.4195  -13.4456 O.co2   1  UNL1       -0.5735
     20 O           7.1027    2.6574  -10.1301 O.2     1  UNL1       -0.3954
     21 C           3.8770    1.0610   -3.3830 C.ar    1  UNL1       -0.0493
     22 C           3.3169    1.1091   -2.0970 C.ar    1  UNL1       -0.0579
     23 H           0.5175    0.1046    1.0310 H       1  UNL1        0.0233
     24 H           0.4761   -0.8852   -0.4397 H       1  UNL1        0.0233
     25 H           0.4895    0.8828   -0.5615 H       1  UNL1        0.0233
     26 H           2.7802   -0.8224    0.5759 H       1  UNL1        0.0311
     27 H           2.7792    0.9236    0.4732 H       1  UNL1        0.0311
     28 H           2.8093   -2.2086   -1.5861 H       1  UNL1        0.0620
     29 H           3.9333   -2.3168   -3.7774 H       1  UNL1        0.0625
     30 H           4.7447    1.8604   -5.7603 H       1  UNL1        0.1731
     31 H           5.4302   -0.0467   -7.9027 H       1  UNL1        0.1732
     32 H           4.6824    0.4412  -10.4554 H       1  UNL1        0.0659
     33 H           6.1248    0.8727  -12.7344 H       1  UNL1        0.0722
     34 H           4.1451    2.0061   -3.8382 H       1  UNL1        0.0625
     35 H           3.1610    2.0763   -1.6221 H       1  UNL1        0.0620
@<TRIPOS>UNITY_ATOM_ATTR
17 1
charge 1
19 1
charge -1
@<TRIPOS>BOND
     1     1     2    1
     2     2     3    1
     3     3     4   ar
     4     4     5   ar
     5     5     6   ar
     6     6     7    1
     7     7     8    2
     8     7     9   am
     9     9    10    1
    10    10    11   am
    11    11    12    2
    12    11    13    1
    13    13    14   ar
    14    14    15   ar
    15    15    16   ar
    16    16    17    1
    17    17    18    2
    18    17    19    1
    19    16    20   ar
    20    13    20   ar
    21     6    21   ar
    22    21    22   ar
    23     3    22   ar
    24     1    23    1
    25     1    24    1
    26     1    25    1
    27     2    26    1
    28     2    27    1
    29     4    28    1
    30     5    29    1
    31     9    30    1
    32    10    31    1
    33    14    32    1
    34    15    33    1
    35    21    34    1
    36    22    35    1
