REMARK  8 active torsions:
REMARK  status: ('A' for Active; 'I' for Inactive)
REMARK    1  A    between atoms: C_2  and  O_3 
REMARK    2  A    between atoms: O_3  and  C_4 
REMARK    3  A    between atoms: C_6  and  C_7 
REMARK       I    between atoms: C_7  and  N_9 
REMARK    4  A    between atoms: C_12  and  C_13 
REMARK    5  A    between atoms: C_25  and  O_26 
REMARK    6  A    between atoms: O_26  and  C_27 
REMARK    7  A    between atoms: C_29  and  O_30 
REMARK    8  A    between atoms: O_30  and  C_31 
ROOT
ATOM      1  C   UNL d   1       6.842  -3.877   2.035  0.00  0.00     0.254 C 
ATOM      2  O   UNL d   1       6.209  -4.917   1.874  0.00  0.00    -0.267 OA
ATOM      3  N   UNL d   1       8.174  -3.920   2.508  0.00  0.00    -0.348 N 
ATOM      4  C   UNL d   1       9.048  -4.931   1.969  0.00  0.00     0.126 C 
ATOM      5  C   UNL d   1       9.494  -5.949   3.035  0.00  0.00     0.028 C 
ATOM      6  C   UNL d   1      10.230  -5.285   4.259  0.00  0.00     0.036 C 
ATOM      7  C   UNL d   1       9.187  -4.206   4.776  0.00  0.00     0.028 C 
ATOM      8  C   UNL d   1       8.643  -3.222   3.701  0.00  0.00     0.126 C 
ENDROOT
BRANCH   1   9
ATOM      9  C   UNL d   1       6.255  -2.548   1.611  0.00  0.00     0.037 C 
ATOM     10  C   UNL d   1       4.904  -2.422   1.197  0.00  0.00     0.057 C 
ATOM     11  C   UNL d   1       4.298  -1.155   0.953  0.00  0.00     0.105 C 
ATOM     12  C   UNL d   1       5.114   0.000   1.129  0.00  0.00     0.135 C 
ATOM     13  C   UNL d   1       6.500  -0.142   1.422  0.00  0.00     0.105 C 
ATOM     14  C   UNL d   1       7.056  -1.407   1.615  0.00  0.00     0.057 C 
BRANCH  11  15
ATOM     15  O   UNL d   1       2.909  -1.229   0.832  0.00  0.00    -0.349 OA
BRANCH  15  16
ATOM     16  C   UNL d   1       2.227  -0.593  -0.256  0.00  0.00     0.171 C 
ATOM     17  C   UNL d   1       0.719  -0.451  -0.159  0.00  0.00     0.034 C 
ENDBRANCH  15  16
ENDBRANCH  11  15
BRANCH  12  18
ATOM     18  O   UNL d   1       4.754   1.322   1.179  0.00  0.00    -0.346 OA
BRANCH  18  19
ATOM     19  C   UNL d   1       3.548   1.699   0.645  0.00  0.00     0.171 C 
ATOM     20  C   UNL d   1       3.128   3.125   0.459  0.00  0.00     0.034 C 
ENDBRANCH  18  19
ENDBRANCH  12  18
BRANCH  13  21
ATOM     21  O   UNL d   1       7.418   0.885   1.626  0.00  0.00    -0.349 OA
BRANCH  21  22
ATOM     22  C   UNL d   1       6.907   2.222   1.537  0.00  0.00     0.171 C 
ATOM     23  C   UNL d   1       7.942   3.276   1.806  0.00  0.00     0.034 C 
ENDBRANCH  21  22
ENDBRANCH  13  21
ENDBRANCH   1   9
BRANCH   6  24
ATOM     24  C   UNL d   1      11.614  -4.680   3.892  0.00  0.00     0.303 C 
ATOM     25  N   UNL d   1      12.092  -5.170   2.565  0.00  0.00     0.124 N 
ATOM     26  C   UNL d   1      13.239  -4.699   2.521  0.00  0.00     0.258 C 
ATOM     27  H   UNL d   1      12.025  -6.221   2.621  0.00  0.00     0.320 HD
ATOM     28  C   UNL d   1      13.701  -3.243   2.471  0.00  0.00     0.024 C 
ATOM     29  C   UNL d   1      13.951  -5.219   3.724  0.00  0.00     0.033 C 
ATOM     30  C   UNL d   1      15.032  -3.088   2.460  0.00  0.00    -0.001 C 
ATOM     31  C   UNL d   1      15.847  -4.277   2.538  0.00  0.00     0.001 C 
ATOM     32  C   UNL d   1      15.400  -5.328   3.281  0.00  0.00     0.022 C 
ATOM     33  N   UNL d   1      13.047  -4.958   4.649  0.00  0.00    -0.264 NA
ATOM     34  H   UNL d   1      13.248  -4.308   5.431  0.00  0.00     0.129 HD
ENDBRANCH   6  24
TORSDOF 8
