REMARK  5 active torsions:
REMARK  status: ('A' for Active; 'I' for Inactive)
REMARK    1  A    between atoms: C_5  and  C_6 
REMARK    2  A    between atoms: C_9  and  S_10 
REMARK    3  A    between atoms: S_10  and  C_11 
REMARK    4  A    between atoms: C_11  and  C_12 
REMARK       I    between atoms: C_12  and  N_14 
REMARK    5  A    between atoms: C_15  and  N_14 
ROOT
ATOM      1  C   UNL d   1      -7.579  -1.764  -0.536  0.00  0.00     0.229 C 
ATOM      2  O   UNL d   1      -7.156  -0.608  -0.490  0.00  0.00    -0.273 OA
ATOM      3  N   UNL d   1      -6.732  -2.790  -0.113  0.00  0.00    -0.330 N 
ATOM      4  H   UNL d   1      -5.879  -2.456   0.316  0.00  0.00     0.165 HD
ENDROOT
BRANCH   1   5
ATOM      5  C   UNL d   1      -8.946  -2.141  -1.122  0.00  0.00     0.180 C 
BRANCH   5   6
ATOM      6  S   UNL d   1     -10.060  -0.867  -1.769  0.00  0.00    -0.112 SA
BRANCH   6   7
ATOM      7  C   UNL d   1     -11.557  -1.752  -2.447  0.00  0.00     0.267 C 
ATOM      8  N   UNL d   1     -12.604  -1.845  -1.455  0.00  0.00    -0.279 N 
ATOM      9  N   UNL d   1     -13.177  -3.111  -1.414  0.00  0.00    -0.158 NA
ATOM     10  H   UNL d   1     -13.160  -1.024  -1.258  0.00  0.00     0.185 HD
ATOM     11  C   UNL d   1     -12.435  -3.866  -2.215  0.00  0.00     0.157 C 
ATOM     12  N   UNL d   1     -11.523  -3.099  -2.958  0.00  0.00    -0.337 N 
ATOM     13  C   UNL d   1     -10.493  -3.534  -3.795  0.00  0.00     0.154 C 
BRANCH  11  14
ATOM     14  C   UNL d   1     -12.623  -5.383  -2.286  0.00  0.00     0.011 A 
ATOM     15  C   UNL d   1     -13.780  -5.937  -2.815  0.00  0.00     0.016 A 
ATOM     16  C   UNL d   1     -13.946  -7.343  -2.888  0.00  0.00     0.007 A 
ATOM     17  C   UNL d   1     -12.959  -8.233  -2.438  0.00  0.00    -0.062 A 
ATOM     18  C   UNL d   1     -13.105  -9.723  -2.513  0.00  0.00     0.048 C 
ATOM     19  C   UNL d   1     -11.818  -7.698  -1.878  0.00  0.00     0.007 A 
ATOM     20  C   UNL d   1     -11.702  -6.308  -1.774  0.00  0.00     0.016 A 
ENDBRANCH  11  14
ENDBRANCH   6   7
ENDBRANCH   5   6
ENDBRANCH   1   5
BRANCH   3  21
ATOM     21  C   UNL d   1      -6.978  -4.217   0.076  0.00  0.00     0.264 A 
ATOM     22  O   UNL d   1      -5.708  -4.862   0.384  0.00  0.00    -0.353 OA
ATOM     23  C   UNL d   1      -5.394  -5.845  -0.654  0.00  0.00     0.152 A 
ATOM     24  C   UNL d   1      -6.459  -5.721  -1.656  0.00  0.00    -0.017 A 
ATOM     25  C   UNL d   1      -5.434  -7.273  -0.116  0.00  0.00     0.044 C 
ATOM     26  C   UNL d   1      -7.337  -4.875  -1.175  0.00  0.00     0.066 A 
ATOM     27  C   UNL d   1      -6.641  -6.553  -2.876  0.00  0.00     0.105 C 
ATOM     28  C   UNL d   1      -8.671  -5.069  -1.645  0.00  0.00     0.266 C 
ATOM     29  O   UNL d   1      -9.548  -4.674  -0.923  0.00  0.00    -0.266 OA
ATOM     30  N   UNL d   1      -8.823  -5.668  -2.895  0.00  0.00    -0.287 N 
ATOM     31  N   UNL d   1      -7.835  -6.240  -3.643  0.00  0.00    -0.229 NA
ATOM     32  H   UNL d   1      -9.763  -5.763  -3.267  0.00  0.00     0.184 HD
ATOM     33  H   UNL d   1      -7.645  -5.724  -4.506  0.00  0.00     0.147 HD
ATOM     34  C   UNL d   1      -5.508  -6.230  -3.815  0.00  0.00     0.033 C 
ENDBRANCH   3  21
TORSDOF 5
