@<TRIPOS>MOLECULE
*****
 48 48 0 0 0
SMALL
GASTEIGER

@<TRIPOS>ATOM
      1 C           0.9798    0.0307   -0.0066 C.3     1  UNL1       -0.0306
      2 C           2.5018    0.0158   -0.0176 C.3     1  UNL1        0.0896
      3 O           3.0036   -1.0730   -0.8199 O.3     1  UNL1       -0.4649
      4 C           4.3682   -1.1444   -0.8726 C.2     1  UNL1        0.3075
      5 O           5.1263   -0.3625   -0.2945 O.2     1  UNL1       -0.2508
      6 C           4.8538   -2.2932   -1.7200 C.3     1  UNL1        0.0532
      7 C           6.4152   -2.3785   -1.7863 C.3     1  UNL1        0.0344
      8 C           6.8111   -3.5584   -2.6650 C.2     1  UNL1        0.2190
      9 O           5.8823   -4.1987   -3.1585 O.2     1  UNL1       -0.2754
     10 N           8.1742   -3.8523   -2.8797 N.am    1  UNL1       -0.2676
     11 C           8.6442   -4.9798   -3.6111 C.2     1  UNL1        0.1408
     12 S           7.5954   -6.1653   -4.2247 S.2     1  UNL1       -0.0182
     13 N          10.0615   -5.0789   -3.7236 N.am    1  UNL1       -0.2965
     14 C          10.7137   -6.1293   -4.4741 C.ar    1  UNL1        0.0343
     15 C          11.7496   -6.9042   -3.9708 C.ar    1  UNL1       -0.0404
     16 C          12.2699   -7.9631   -4.7493 C.ar    1  UNL1       -0.0583
     17 C          11.7423   -8.2740   -6.0211 C.ar    1  UNL1       -0.0404
     18 C          10.7406   -7.4703   -6.5611 C.ar    1  UNL1        0.0351
     19 N          10.2028   -7.7148   -7.8627 N.am    1  UNL1       -0.2852
     20 C           9.2158   -6.9265   -8.4522 C.2     1  UNL1        0.2198
     21 O           8.7148   -5.9239   -7.9444 O.2     1  UNL1       -0.2752
     22 C           8.7617   -7.2917   -9.8590 C.3     1  UNL1        0.0303
     23 C           8.1705   -8.6893   -9.9251 C.3     1  UNL1       -0.0544
     24 C           7.6852   -6.2693  -10.2808 C.3     1  UNL1       -0.0544
     25 C          10.2887   -6.4034   -5.7749 C.ar    1  UNL1       -0.0192
     26 H           0.6048    0.8603    0.6046 H       1  UNL1        0.0262
     27 H           0.5790   -0.9028    0.4005 H       1  UNL1        0.0262
     28 H           0.5789    0.1429   -1.0189 H       1  UNL1        0.0262
     29 H           2.8617   -0.0946    1.0118 H       1  UNL1        0.0694
     30 H           2.8617    0.9663   -0.4281 H       1  UNL1        0.0694
     31 H           4.4444   -2.1718   -2.7326 H       1  UNL1        0.0382
     32 H           4.4470   -3.2256   -1.3038 H       1  UNL1        0.0382
     33 H           6.8155   -2.5166   -0.7769 H       1  UNL1        0.0364
     34 H           6.8142   -1.4520   -2.2104 H       1  UNL1        0.0364
     35 H           8.8578   -3.2354   -2.4621 H       1  UNL1        0.1565
     36 H          10.6639   -4.5654   -3.0943 H       1  UNL1        0.1538
     37 H          12.1097   -6.7659   -2.9568 H       1  UNL1        0.0636
     38 H          13.0862   -8.5657   -4.3522 H       1  UNL1        0.0619
     39 H          12.1327   -9.1370   -6.5566 H       1  UNL1        0.0636
     40 H          10.5779   -8.4998   -8.3811 H       1  UNL1        0.1548
     41 H           9.6193   -7.1993  -10.5348 H       1  UNL1        0.0389
     42 H           7.3345   -8.7919   -9.2241 H       1  UNL1        0.0237
     43 H           8.9133   -9.4506   -9.6742 H       1  UNL1        0.0237
     44 H           7.7953   -8.8978  -10.9328 H       1  UNL1        0.0237
     45 H           6.8258   -6.3042   -9.5962 H       1  UNL1        0.0237
     46 H           7.3176   -6.4529  -11.2923 H       1  UNL1        0.0237
     47 H           8.0781   -5.2450  -10.2431 H       1  UNL1        0.0237
     48 H           9.5414   -5.7263   -6.1518 H       1  UNL1        0.0655
@<TRIPOS>BOND
     1     1     2    1
     2     2     3    1
     3     3     4    1
     4     4     5    2
     5     4     6    1
     6     6     7    1
     7     7     8    1
     8     8     9    2
     9     8    10   am
    10    10    11    1
    11    11    12    2
    12    11    13    1
    13    13    14    1
    14    14    15   ar
    15    15    16   ar
    16    16    17   ar
    17    17    18   ar
    18    18    19    1
    19    19    20   am
    20    20    21    2
    21    20    22    1
    22    22    23    1
    23    22    24    1
    24    18    25   ar
    25    14    25   ar
    26     1    26    1
    27     1    27    1
    28     1    28    1
    29     2    29    1
    30     2    30    1
    31     6    31    1
    32     6    32    1
    33     7    33    1
    34     7    34    1
    35    10    35    1
    36    13    36    1
    37    15    37    1
    38    16    38    1
    39    17    39    1
    40    19    40    1
    41    22    41    1
    42    23    42    1
    43    23    43    1
    44    23    44    1
    45    24    45    1
    46    24    46    1
    47    24    47    1
    48    25    48    1
