@<TRIPOS>MOLECULE
*****
 67 69 0 0 0
SMALL
GASTEIGER

@<TRIPOS>ATOM
      1 C          10.9242    3.1217    1.9594 C.3     1  UNL1       -0.0650
      2 C          10.4323    1.7125    1.6805 C.3     1  UNL1       -0.0525
      3 C           8.9699    1.5682    2.1086 C.3     1  UNL1       -0.0349
      4 C           8.3868    0.2459    1.6963 C.2     1  UNL1       -0.0857
      5 C           7.2451   -0.2287    2.2353 C.2     1  UNL1       -0.0585
      6 C           6.7357   -1.6526    2.0851 C.3     1  UNL1        0.1256
      7 C           5.1361   -1.5062    2.0282 C.2     1  UNL1        0.2391
      8 O           4.4807   -1.0542    2.9697 O.2     1  UNL1       -0.2734
      9 N           4.4839   -1.9915    0.8945 N.am    1  UNL1       -0.2943
     10 C           3.0176   -2.2663    0.8696 C.3     1  UNL1        0.1356
     11 S           2.3540   -3.1117   -0.6558 S.O2    1  UNL1        0.0129
     12 O           2.6788   -2.3139   -1.8068 O.2     1  UNL1       -0.1678
     13 O           2.6843   -4.5338   -0.6952 O.2     1  UNL1       -0.1678
     14 C           0.6008   -3.2062   -0.5087 C.ar    1  UNL1        0.0899
     15 C          -0.0356   -4.4014   -0.9033 C.ar    1  UNL1       -0.0366
     16 C          -1.4149   -4.4964   -0.8726 C.ar    1  UNL1       -0.0570
     17 C          -2.1566   -3.4012   -0.4362 C.ar    1  UNL1       -0.0503
     18 C          -3.6499   -3.4527   -0.4856 C.3     1  UNL1       -0.0397
     19 C          -1.5042   -2.2406    0.0192 C.ar    1  UNL1       -0.0570
     20 C          -0.1178   -2.1399   -0.0037 C.ar    1  UNL1       -0.0366
     21 N           7.2541   -2.5513    3.2057 N.am    1  UNL1       -0.2519
     22 C           6.4168   -3.3463    4.0145 C.2     1  UNL1        0.2554
     23 O           6.6165   -3.4832    5.2246 O.2     1  UNL1       -0.2695
     24 C           5.2944   -4.1307    3.4371 C.ar    1  UNL1        0.0822
     25 C           4.2582   -4.6135    4.2647 C.ar    1  UNL1       -0.0458
     26 C           3.1532   -5.2961    3.7249 C.ar    1  UNL1       -0.0574
     27 C           3.0939   -5.5455    2.3583 C.ar    1  UNL1       -0.0165
     28 C           4.2132   -5.2328    1.6013 C.ar    1  UNL1        0.1590
     29 O           4.3784   -5.6056    0.3002 O.3     1  UNL1       -0.5033
     30 C           5.2802   -4.5099    2.1083 C.ar    1  UNL1        0.1706
     31 O           6.2378   -4.1380    1.1991 O.3     1  UNL1       -0.5028
     32 C           8.6825   -2.7736    3.3921 C.ar    1  UNL1        0.0377
     33 C           9.2274   -4.0513    3.5995 C.ar    1  UNL1       -0.0402
     34 C          10.5893   -4.2120    3.9327 C.ar    1  UNL1       -0.0600
     35 C          11.4570   -3.1213    3.9435 C.ar    1  UNL1       -0.0616
     36 C          10.9452   -1.8615    3.7135 C.ar    1  UNL1       -0.0600
     37 C           9.5725   -1.7113    3.5228 C.ar    1  UNL1       -0.0402
     38 H          11.9522    3.2460    1.6079 H       1  UNL1        0.0230
     39 H          10.8971    3.3399    3.0319 H       1  UNL1        0.0230
     40 H          10.2940    3.8532    1.4440 H       1  UNL1        0.0230
     41 H          11.0712    0.9956    2.2124 H       1  UNL1        0.0266
     42 H          10.5327    1.4971    0.6108 H       1  UNL1        0.0266
     43 H           8.3664    2.3626    1.6635 H       1  UNL1        0.0307
     44 H           8.9210    1.6768    3.2025 H       1  UNL1        0.0307
     45 H           9.0378   -0.4329    1.1415 H       1  UNL1        0.0570
     46 H           6.6529    0.4257    2.8722 H       1  UNL1        0.0592
     47 H           7.1160   -2.0342    1.1281 H       1  UNL1        0.0645
     48 H           5.0432   -2.5110    0.2327 H       1  UNL1        0.1503
     49 H           2.5357   -1.2882    0.9128 H       1  UNL1        0.0710
     50 H           2.7201   -2.8219    1.7659 H       1  UNL1        0.0710
     51 H           0.5235   -5.2686   -1.2544 H       1  UNL1        0.0637
     52 H          -1.8977   -5.4113   -1.2121 H       1  UNL1        0.0621
     53 H          -4.0000   -4.4209   -0.8589 H       1  UNL1        0.0278
     54 H          -4.0169   -2.6778   -1.1648 H       1  UNL1        0.0278
     55 H          -4.0603   -3.3021    0.5154 H       1  UNL1        0.0278
     56 H          -2.0831   -1.3922    0.3737 H       1  UNL1        0.0621
     57 H           0.3687   -1.2356    0.3427 H       1  UNL1        0.0637
     58 H           4.3147   -4.4768    5.3441 H       1  UNL1        0.0626
     59 H           2.3660   -5.6691    4.3786 H       1  UNL1        0.0619
     60 H           2.2192   -6.0207    1.9224 H       1  UNL1        0.0655
     61 H           3.4842   -5.6416   -0.1134 H       1  UNL1        0.2923
     62 H           5.8926   -4.3983    0.3200 H       1  UNL1        0.2923
     63 H           8.6116   -4.9444    3.5210 H       1  UNL1        0.0636
     64 H          10.9719   -5.1900    4.2130 H       1  UNL1        0.0618
     65 H          12.5112   -3.2375    4.1768 H       1  UNL1        0.0618
     66 H          11.5730   -0.9764    3.7578 H       1  UNL1        0.0618
     67 H           9.2057   -0.7048    3.5985 H       1  UNL1        0.0636
@<TRIPOS>BOND
     1     1     2    1
     2     2     3    1
     3     3     4    1
     4     4     5    2
     5     7     8    2
     6     7     9   am
     7     9    10    1
     8    10    11    1
     9    11    12    2
    10    11    13    2
    11    11    14    1
    12    14    15   ar
    13    15    16   ar
    14    16    17   ar
    15    17    18    1
    16    17    19   ar
    17    19    20   ar
    18    14    20   ar
    19     6    21    1
    20    21    22   am
    21    22    23    2
    22    22    24    1
    23    24    25   ar
    24    25    26   ar
    25    26    27   ar
    26    27    28   ar
    27    28    29    1
    28    28    30   ar
    29    24    30   ar
    30    30    31    1
    31    21    32    1
    32    32    33   ar
    33    33    34   ar
    34    34    35   ar
    35    35    36   ar
    36    36    37   ar
    37    32    37   ar
    38     6     7    1
    39     6     5    1
    40     1    38    1
    41     1    39    1
    42     1    40    1
    43     2    41    1
    44     2    42    1
    45     3    43    1
    46     3    44    1
    47     4    45    1
    48     5    46    1
    49     6    47    1
    50     9    48    1
    51    10    49    1
    52    10    50    1
    53    15    51    1
    54    16    52    1
    55    18    53    1
    56    18    54    1
    57    18    55    1
    58    19    56    1
    59    20    57    1
    60    25    58    1
    61    26    59    1
    62    27    60    1
    63    29    61    1
    64    31    62    1
    65    33    63    1
    66    34    64    1
    67    35    65    1
    68    36    66    1
    69    37    67    1
