REMARK  5 active torsions:
REMARK  status: ('A' for Active; 'I' for Inactive)
REMARK    1  A    between atoms: N_7  and  C_8 
REMARK    2  A    between atoms: C_8  and  C_9 
REMARK    3  A    between atoms: C_10  and  O_11 
REMARK    4  A    between atoms: C_17  and  C_18 
REMARK    5  A    between atoms: C_27  and  N_28 
ROOT
ATOM      1  C   UNL d   1       3.418  -3.931  -0.423  0.00  0.00     0.036 C 
ATOM      2  C   UNL d   1       4.768  -4.253  -0.645  0.00  0.00     0.076 C 
ATOM      3  C   UNL d   1       5.158  -5.448  -1.229  0.00  0.00     0.038 C 
ATOM      4  C   UNL d   1       4.241  -6.481  -1.329  0.00  0.00     0.021 C 
ATOM      5  C   UNL d   1       2.880  -6.225  -1.145  0.00  0.00     0.050 A 
ATOM      6  C   UNL d   1       1.871  -7.265  -1.468  0.00  0.00     0.202 A 
ATOM      7  O   UNL d   1       2.257  -8.413  -1.756  0.00  0.00    -0.286 OA
ATOM      8  C   UNL d   1       0.450  -6.859  -1.465  0.00  0.00     0.101 A 
ATOM      9  C   UNL d   1       0.176  -5.595  -1.035  0.00  0.00     0.159 A 
ATOM     10  O   UNL d   1       1.128  -4.667  -0.618  0.00  0.00    -0.292 OA
ATOM     11  C   UNL d   1       2.468  -4.949  -0.736  0.00  0.00     0.102 A 
ENDROOT
BRANCH   1  12
ATOM     12  C   UNL d   1       2.999  -2.593   0.167  0.00  0.00     0.279 C 
BRANCH  12  13
ATOM     13  N   UNL d   1       3.307  -1.308  -0.656  0.00  0.00    -0.063 N 
ATOM     14  C   UNL d   1       4.804  -1.115  -0.900  0.00  0.00     0.235 C 
ATOM     15  C   UNL d   1       5.170   0.154  -1.629  0.00  0.00     0.028 C 
ATOM     16  C   UNL d   1       4.633   1.324  -0.849  0.00  0.00     0.004 C 
ATOM     17  C   UNL d   1       3.123   1.193  -0.840  0.00  0.00     0.033 C 
ATOM     18  C   UNL d   1       2.676  -0.041  -0.040  0.00  0.00     0.184 C 
ATOM     19  C   UNL d   1       1.148  -0.074  -0.032  0.00  0.00     0.040 C 
ATOM     20  H   UNL d   1       2.876  -1.471  -1.575  0.00  0.00     0.280 HD
ENDBRANCH  12  13
ENDBRANCH   1  12
BRANCH   2  21
ATOM     21  O   UNL d   1       5.826  -3.480  -0.261  0.00  0.00    -0.360 OA
ATOM     22  H   UNL d   1       5.631  -3.031   0.576  0.00  0.00     0.217 HD
ENDBRANCH   2  21
BRANCH   9  23
ATOM     23  N   UNL d   1      -1.110  -5.094  -1.016  0.00  0.00    -0.379 N 
ATOM     24  H   UNL d   1      -1.838  -5.824  -0.979  0.00  0.00     0.158 HD
ATOM     25  H   UNL d   1      -1.311  -4.277  -0.458  0.00  0.00     0.158 HD
ENDBRANCH   9  23
BRANCH   8  26
ATOM     26  C   UNL d   1      -0.693  -7.704  -1.761  0.00  0.00     0.113 C 
ATOM     27  N   UNL d   1      -1.783  -7.721  -1.000  0.00  0.00    -0.243 NA
ATOM     28  C   UNL d   1      -2.530  -8.763  -1.442  0.00  0.00     0.061 C 
ATOM     29  C   UNL d   1      -2.582 -10.080  -0.962  0.00  0.00     0.029 C 
ATOM     30  C   UNL d   1      -2.924  -8.575  -2.767  0.00  0.00     0.103 C 
ATOM     31  C   UNL d   1      -3.271 -11.045  -1.707  0.00  0.00     0.002 C 
ATOM     32  C   UNL d   1      -4.107 -10.653  -2.747  0.00  0.00    -0.002 C 
ATOM     33  C   UNL d   1      -4.003  -9.352  -3.263  0.00  0.00     0.003 C 
ATOM     34  S   UNL d   1      -1.022  -8.585  -3.292  0.00  0.00    -0.086 SA
ENDBRANCH   8  26
TORSDOF 5
