@<TRIPOS>MOLECULE
*****
 34 35 0 0 0
SMALL
GASTEIGER

@<TRIPOS>ATOM
      1 N          -3.0817    0.3789    0.0924 N.1     1  UNL1       -0.1909
      2 C          -1.9330    0.2553    0.0258 C.1     1  UNL1        0.0997
      3 C          -0.5122    0.0607   -0.0398 C.ar    1  UNL1        0.0589
      4 C           0.2494    1.2417   -0.0378 C.ar    1  UNL1       -0.0438
      5 C           1.6354    1.1966    0.0106 C.ar    1  UNL1       -0.0605
      6 C           2.2734   -0.0369    0.0557 C.ar    1  UNL1       -0.0611
      7 C           1.5213   -1.2273    0.0096 C.ar    1  UNL1       -0.0534
      8 C           0.1048   -1.2134   -0.0566 C.ar    1  UNL1       -0.0075
      9 C          -0.6253   -2.5289   -0.1269 C.2     1  UNL1       -0.0484
     10 C          -1.9603   -2.7084   -0.2421 C.2     1  UNL1        0.0022
     11 C          -2.6932   -4.0100   -0.2969 C.2     1  UNL1        0.2530
     12 O          -2.1012   -5.0832   -0.2810 O.2     1  UNL1       -0.2693
     13 N          -4.0800   -3.8879   -0.3664 N.am    1  UNL1       -0.2297
     14 N          -4.8818   -5.0695   -0.4554 N.am    1  UNL1       -0.2180
     15 C          -6.2648   -4.9663   -0.5343 C.2     1  UNL1        0.3162
     16 O          -6.8401   -3.8801   -0.5047 O.2     1  UNL1       -0.2513
     17 N          -6.9305   -6.1780   -0.6813 N.am    1  UNL1       -0.2954
     18 C          -8.3752   -6.2592   -0.7468 C.3     1  UNL1        0.0247
     19 C          -9.1220   -5.5262   -1.8355 C.3     1  UNL1       -0.0328
     20 C          -9.0853   -7.0252   -1.8431 C.3     1  UNL1       -0.0328
     21 H          -0.2540    2.2077   -0.0568 H       1  UNL1        0.0631
     22 H           2.2034    2.1238    0.0293 H       1  UNL1        0.0618
     23 H           3.3607   -0.0683    0.1248 H       1  UNL1        0.0618
     24 H           2.0761   -2.1660    0.0357 H       1  UNL1        0.0624
     25 H           0.0138   -3.4137   -0.0921 H       1  UNL1        0.0625
     26 H          -2.6453   -1.8887   -0.3143 H       1  UNL1        0.0670
     27 H          -4.5910   -3.0019   -0.3764 H       1  UNL1        0.1731
     28 H          -4.3711   -5.9451   -0.4435 H       1  UNL1        0.1744
     29 H          -6.4232   -7.0467   -0.5792 H       1  UNL1        0.1506
     30 H          -8.8354   -6.2976    0.2403 H       1  UNL1        0.0499
     31 H          -8.5321   -4.9922   -2.5720 H       1  UNL1        0.0284
     32 H         -10.0395   -5.0070   -1.5802 H       1  UNL1        0.0284
     33 H          -8.4989   -7.5083   -2.6151 H       1  UNL1        0.0284
     34 H         -10.0147   -7.5489   -1.6340 H       1  UNL1        0.0284
@<TRIPOS>BOND
     1     1     2    3
     2     2     3    1
     3     3     4   ar
     4     4     5   ar
     5     5     6   ar
     6     6     7   ar
     7     7     8   ar
     8     3     8   ar
     9     8     9    1
    10     9    10    2
    11    10    11    1
    12    11    12    2
    13    11    13   am
    14    13    14    1
    15    14    15   am
    16    15    16    2
    17    15    17   am
    18    17    18    1
    19    18    19    1
    20    19    20    1
    21    18    20    1
    22     4    21    1
    23     5    22    1
    24     6    23    1
    25     7    24    1
    26     9    25    1
    27    10    26    1
    28    13    27    1
    29    14    28    1
    30    17    29    1
    31    18    30    1
    32    19    31    1
    33    19    32    1
    34    20    33    1
    35    20    34    1
