REMARK  10 active torsions:
REMARK  status: ('A' for Active; 'I' for Inactive)
REMARK    1  A    between atoms: O_2  and  C_3 
REMARK    2  A    between atoms: C_3  and  C_4 
REMARK    3  A    between atoms: C_4  and  N_5 
REMARK       I    between atoms: N_5  and  C_6 
REMARK    4  A    between atoms: C_6  and  C_8 
REMARK    5  A    between atoms: C_12  and  N_13 
REMARK       I    between atoms: N_13  and  C_14 
REMARK    6  A    between atoms: C_14  and  C_16 
REMARK    7  A    between atoms: C_16  and  N_17 
REMARK    8  A    between atoms: N_17  and  C_18 
REMARK    9  A    between atoms: C_23  and  C_24 
REMARK       I    between atoms: C_24  and  N_26 
REMARK   10  A    between atoms: N_26  and  C_27 
ROOT
ATOM      1  C   UNL d   1       4.496   7.502  -4.708  0.00  0.00     0.223 C 
ENDROOT
BRANCH   1   2
ATOM      2  C   UNL d   1       5.036   6.111  -4.397  0.00  0.00     0.239 C 
ATOM      3  N   UNL d   1       5.999   5.599  -5.267  0.00  0.00    -0.326 N 
ATOM      4  H   UNL d   1       6.319   6.167  -6.044  0.00  0.00     0.169 HD
ATOM      5  O   UNL d   1       4.564   5.532  -3.415  0.00  0.00    -0.271 OA
BRANCH   3   6
ATOM      6  C   UNL d   1       6.619   4.330  -5.093  0.00  0.00     0.035 A 
ATOM      7  C   UNL d   1       7.629   3.889  -5.955  0.00  0.00     0.029 A 
ATOM      8  C   UNL d   1       8.276   2.662  -5.706  0.00  0.00     0.003 A 
ATOM      9  C   UNL d   1       7.875   1.838  -4.643  0.00  0.00     0.017 A 
ATOM     10  C   UNL d   1       6.854   2.264  -3.803  0.00  0.00     0.034 A 
ATOM     11  C   UNL d   1       6.261   3.499  -4.031  0.00  0.00     0.046 A 
BRANCH  10  12
ATOM     12  C   UNL d   1       6.427   1.510  -2.594  0.00  0.00     0.251 C 
ATOM     13  N   UNL d   1       5.063   1.452  -2.369  0.00  0.00    -0.355 N 
ATOM     14  H   UNL d   1       4.427   1.890  -3.024  0.00  0.00     0.162 HD
ATOM     15  O   UNL d   1       7.270   1.012  -1.858  0.00  0.00    -0.268 OA
BRANCH  13  16
ATOM     16  C   UNL d   1       4.508   0.778  -1.204  0.00  0.00     0.149 C 
BRANCH  16  17
ATOM     17  C   UNL d   1       2.979   0.779  -1.192  0.00  0.00     0.186 C 
BRANCH  17  18
ATOM     18  O   UNL d   1       2.488   0.077  -0.048  0.00  0.00    -0.394 OA
ATOM     19  C   UNL d   1       1.065   0.066  -0.027  0.00  0.00     0.201 C 
ENDBRANCH  17  18
ENDBRANCH  16  17
ENDBRANCH  13  16
ENDBRANCH  10  12
ENDBRANCH   3   6
ENDBRANCH   1   2
BRANCH   1  20
ATOM     20  N   UNL d   1       3.609   7.889  -3.607  0.00  0.00    -0.381 N 
ATOM     21  H   UNL d   1       3.414   7.144  -2.929  0.00  0.00     0.160 HD
BRANCH  20  22
ATOM     22  C   UNL d   1       2.763   8.966  -3.626  0.00  0.00     0.029 A 
ATOM     23  C   UNL d   1       2.485   9.637  -2.434  0.00  0.00     0.031 A 
ATOM     24  C   UNL d   1       1.638  10.742  -2.417  0.00  0.00     0.027 A 
ATOM     25  C   UNL d   1       1.094  11.224  -3.604  0.00  0.00     0.049 A 
ATOM     26 CL   UNL d   1       0.203  12.704  -3.434  0.00  0.00    -0.083 Cl
ATOM     27  C   UNL d   1       1.333  10.539  -4.813  0.00  0.00     0.055 A 
ATOM     28  C   UNL d   1       2.188   9.431  -4.804  0.00  0.00     0.048 A 
BRANCH  27  29
ATOM     29  C   UNL d   1       0.646  10.924  -6.065  0.00  0.00     0.253 C 
ATOM     30  O   UNL d   1      -0.201  11.813  -5.992  0.00  0.00    -0.268 OA
ATOM     31  N   UNL d   1       0.933  10.280  -7.261  0.00  0.00    -0.352 N 
ATOM     32  H   UNL d   1       1.510   9.453  -7.288  0.00  0.00     0.163 HD
BRANCH  31  33
ATOM     33  C   UNL d   1       0.286  10.642  -8.527  0.00  0.00     0.084 C 
ATOM     34  C   UNL d   1      -1.011   9.856  -8.761  0.00  0.00     0.025 C 
ATOM     35  C   UNL d   1      -1.719  10.308 -10.042  0.00  0.00     0.002 C 
ATOM     36  C   UNL d   1      -1.955  11.815 -10.059  0.00  0.00     0.000 C 
ATOM     37  C   UNL d   1      -0.638  12.572  -9.918  0.00  0.00     0.002 C 
ATOM     38  C   UNL d   1       0.061  12.156  -8.646  0.00  0.00     0.025 C 
ENDBRANCH  31  33
ENDBRANCH  27  29
ENDBRANCH  20  22
ENDBRANCH   1  20
TORSDOF 10
