@<TRIPOS>MOLECULE
*****
 57 62 0 0 0
SMALL
GASTEIGER

@<TRIPOS>ATOM
      1 C           0.9257   -0.2699   -0.2054 C.3     1  UNL1       -0.0252
      2 C           2.4989   -0.3279   -0.5465 C.2     1  UNL1        0.0228
      3 C           3.1085    0.7936   -0.9865 C.2     1  UNL1        0.0068
      4 C           2.4981    2.0748   -1.4627 C.3     1  UNL1        0.1159
      5 C           2.7111    3.3997   -0.6827 C.ar    1  UNL1        0.2671
      6 N           3.8716    4.0791   -0.5111 N.ar    1  UNL1       -0.2466
      7 C           3.6749    5.2919    0.0959 C.ar    1  UNL1        0.1283
      8 C           2.3285    5.4423    0.2201 C.ar    1  UNL1        0.1283
      9 N           1.7658    4.2880   -0.2771 N.ar    1  UNL1       -0.2466
     10 C           3.0830    2.2404   -2.8125 C.2     1  UNL1        0.0306
     11 C           4.2980    1.7286   -3.1110 C.2     1  UNL1        0.0138
     12 C           4.8260    1.8185   -4.4893 C.3     1  UNL1       -0.0067
     13 C           3.8830    2.4340   -5.5397 C.3     1  UNL1        0.0025
     14 C           3.4994    1.3191   -6.4571 C.ar    1  UNL1       -0.0064
     15 C           2.7799    0.1950   -6.1022 C.ar    1  UNL1       -0.0513
     16 C           2.6728   -0.7111   -7.1783 C.ar    1  UNL1       -0.0545
     17 C           3.2848   -0.2296   -8.3131 C.ar    1  UNL1       -0.0241
     18 S           3.9771    1.3154   -8.0861 S.2     1  UNL1       -0.1013
     19 C           2.5871    3.1244   -5.1237 C.3     1  UNL1        0.0179
     20 C           2.1656    2.9205   -3.7297 C.2     1  UNL1        0.1624
     21 O           1.0889    3.3676   -3.3304 O.2     1  UNL1       -0.2923
     22 N           5.1013    1.0533   -2.1544 N.pl3   1  UNL1       -0.3241
     23 C           4.6410    0.8913   -0.7578 C.3     1  UNL1        0.1294
     24 N           5.0039   -0.3210    0.1265 N.pl3   1  UNL1       -0.2282
     25 C           5.3005    0.1236    1.5887 C.ar    1  UNL1        0.0588
     26 C           6.4660    0.4654    2.3284 C.ar    1  UNL1       -0.0384
     27 C           6.3858    0.4903    3.7998 C.ar    1  UNL1       -0.0599
     28 C           5.1924    0.2961    4.5208 C.ar    1  UNL1       -0.0610
     29 C           4.0712    0.1063    3.8040 C.ar    1  UNL1       -0.0511
     30 C           4.1722    0.1156    2.4201 C.ar    1  UNL1        0.0199
     31 C           2.9722    0.6685    1.8725 C.2     1  UNL1        0.0735
     32 O           1.8947    0.0623    2.2604 O.co2   1  UNL1       -0.5446
     33 O           3.1021    1.7068    1.2174 O.co2   1  UNL1       -0.5446
     34 N           3.5712   -1.1640    0.0042 N.pl3   1  UNL1       -0.2663
     35 H           0.4454    0.6184   -0.6517 H       1  UNL1        0.0290
     36 H           0.5640   -0.0922    0.8198 H       1  UNL1        0.0290
     37 H           0.3559   -1.1372   -0.5307 H       1  UNL1        0.0290
     38 H           1.4030    2.0332   -1.5214 H       1  UNL1        0.0522
     39 H           4.7713    3.6763   -0.7376 H       1  UNL1        0.3104
     40 H           4.5290    5.9022    0.3294 H       1  UNL1        0.1117
     41 H           1.7033    6.2387    0.5884 H       1  UNL1        0.1117
     42 H           0.7723    4.0818   -0.3240 H       1  UNL1        0.3104
     43 H           5.1274    0.8033   -4.7911 H       1  UNL1        0.0332
     44 H           5.7398    2.4145   -4.4425 H       1  UNL1        0.0332
     45 H           4.4731    3.2064   -6.0474 H       1  UNL1        0.0362
     46 H           2.3912    0.0172   -5.1037 H       1  UNL1        0.0626
     47 H           2.1835   -1.6725   -7.1105 H       1  UNL1        0.0623
     48 H           3.3653   -0.7148   -9.2714 H       1  UNL1        0.0693
     49 H           1.7363    2.7795   -5.7283 H       1  UNL1        0.0351
     50 H           2.6904    4.2056   -5.2299 H       1  UNL1        0.0351
     51 H           5.7459    0.3396   -2.4896 H       1  UNL1        0.1479
     52 H           5.0396    1.7838   -0.2776 H       1  UNL1        0.0773
     53 H           7.4419    0.7480    1.9193 H       1  UNL1        0.0637
     54 H           7.2730    0.5785    4.4279 H       1  UNL1        0.0618
     55 H           5.0678    0.2902    5.5969 H       1  UNL1        0.0618
     56 H           3.0588    0.0128    4.2109 H       1  UNL1        0.0625
     57 H           3.2961   -1.5871    0.9077 H       1  UNL1        0.1698
@<TRIPOS>UNITY_ATOM_ATTR
9 1
charge 1
33 1
charge -1
@<TRIPOS>BOND
     1     1     2    1
     2     2     3    2
     3     3     4    1
     4     4     5    1
     5     5     6   ar
     6     6     7   ar
     7     7     8   ar
     8     8     9   ar
     9     5     9   ar
    10     4    10    1
    11    10    11    2
    12    11    12    1
    13    12    13    1
    14    14    15   ar
    15    15    16   ar
    16    16    17   ar
    17    17    18   ar
    18    14    18   ar
    19    13    19    1
    20    19    20    1
    21    10    20    1
    22    20    21    2
    23    11    22    1
    24    22    23    1
    25     3    23    1
    26    23    24    1
    27    24    25    1
    28    25    26   ar
    29    26    27   ar
    30    27    28   ar
    31    28    29   ar
    32    29    30   ar
    33    25    30   ar
    34    30    31    1
    35    31    32   ar
    36    31    33   ar
    37    24    34    1
    38     2    34    1
    39    13    14    1
    40     1    35    1
    41     1    36    1
    42     1    37    1
    43     4    38    1
    44     6    39    1
    45     7    40    1
    46     8    41    1
    47     9    42    1
    48    12    43    1
    49    12    44    1
    50    13    45    1
    51    15    46    1
    52    16    47    1
    53    17    48    1
    54    19    49    1
    55    19    50    1
    56    22    51    1
    57    23    52    1
    58    26    53    1
    59    27    54    1
    60    28    55    1
    61    29    56    1
    62    34    57    1
