REMARK  6 active torsions:
REMARK  status: ('A' for Active; 'I' for Inactive)
REMARK    1  A    between atoms: C_4  and  C_5 
REMARK       I    between atoms: C_5  and  N_7 
REMARK    2  A    between atoms: N_7  and  C_8 
REMARK    3  A    between atoms: C_12  and  S_13 
REMARK    4  A    between atoms: S_13  and  N_16 
REMARK    5  A    between atoms: N_16  and  C_17 
REMARK    6  A    between atoms: C_25  and  N_26 
ROOT
ATOM      1  C   UNL d   1      -3.992  -3.772   0.032  0.00  0.00     0.036 A 
ATOM      2  C   UNL d   1      -5.164  -3.910  -0.722  0.00  0.00     0.029 A 
ATOM      3  C   UNL d   1      -5.949  -5.065  -0.599  0.00  0.00     0.004 A 
ATOM      4  C   UNL d   1      -5.555  -6.092   0.264  0.00  0.00     0.025 A 
ATOM      5  C   UNL d   1      -4.389  -5.943   1.026  0.00  0.00     0.083 A 
ATOM      6  C   UNL d   1      -3.608  -4.794   0.904  0.00  0.00     0.054 A 
ENDROOT
BRANCH   1   7
ATOM      7  N   UNL d   1      -3.247  -2.571  -0.043  0.00  0.00    -0.323 N 
ATOM      8  C   UNL d   1      -1.857  -2.538   0.025  0.00  0.00     0.256 C 
ATOM      9  O   UNL d   1      -1.153  -3.548   0.054  0.00  0.00    -0.267 OA
ATOM     10  H   UNL d   1      -3.772  -1.739  -0.268  0.00  0.00     0.169 HD
BRANCH   8  11
ATOM     11  C   UNL d   1      -1.160  -1.206   0.005  0.00  0.00     0.033 A 
ATOM     12  C   UNL d   1       0.253  -1.196   0.007  0.00  0.00     0.026 A 
ATOM     13  C   UNL d   1       1.005   0.004   0.002  0.00  0.00    -0.028 A 
ATOM     14  C   UNL d   1       2.507  -0.087  -0.013  0.00  0.00     0.050 C 
ATOM     15  C   UNL d   1       0.305   1.226   0.002  0.00  0.00     0.108 A 
ATOM     16  C   UNL d   1      -1.104   1.222  -0.001  0.00  0.00     0.037 A 
ATOM     17  C   UNL d   1      -1.829   0.020  -0.003  0.00  0.00     0.019 A 
BRANCH  15  18
ATOM     18  N   UNL d   1       0.989   2.544  -0.001  0.00  0.00    -0.115 N 
ATOM     19  O   UNL d   1       0.272   3.555  -0.007  0.00  0.00    -0.532 OA
ATOM     20  O   UNL d   1       2.225   2.584   0.002  0.00  0.00    -0.532 OA
ENDBRANCH  15  18
ENDBRANCH   8  11
ENDBRANCH   1   7
BRANCH   5  21
ATOM     21  S   UNL d   1      -3.948  -7.201   2.218  0.00  0.00     0.284 S 
ATOM     22  O   UNL d   1      -5.031  -7.210   3.179  0.00  0.00    -0.198 OA
ATOM     23  O   UNL d   1      -3.668  -8.396   1.431  0.00  0.00    -0.198 OA
BRANCH  21  24
ATOM     24  N   UNL d   1      -2.593  -6.681   2.966  0.00  0.00    -0.147 NA
BRANCH  24  25
ATOM     25  C   UNL d   1      -1.671  -7.511   3.306  0.00  0.00     0.113 C 
ATOM     26  C   UNL d   1      -0.427  -7.055   4.061  0.00  0.00     0.080 C 
ATOM     27  C   UNL d   1       0.546  -8.214   3.798  0.00  0.00     0.027 C 
ATOM     28  C   UNL d   1      -0.355  -9.437   3.629  0.00  0.00     0.121 C 
ATOM     29  N   UNL d   1      -1.571  -8.860   3.123  0.00  0.00    -0.378 N 
ATOM     30  H   UNL d   1      -2.237  -9.379   2.554  0.00  0.00     0.160 HD
ENDBRANCH  24  25
ENDBRANCH  21  24
ENDBRANCH   5  21
TORSDOF 6
