REMARK  11 active torsions:
REMARK  status: ('A' for Active; 'I' for Inactive)
REMARK       I    between atoms: C_2  and  N_3 
REMARK       I    between atoms: C_2  and  N_13 
REMARK    1  A    between atoms: N_3  and  C_4 
REMARK    2  A    between atoms: C_4  and  C_5 
REMARK    3  A    between atoms: C_5  and  C_6 
REMARK    4  A    between atoms: C_6  and  C_7 
REMARK    5  A    between atoms: N_13  and  C_14 
REMARK    6  A    between atoms: C_15  and  C_14 
REMARK    7  A    between atoms: C_15  and  C_17 
REMARK    8  A    between atoms: C_15  and  O_16 
REMARK    9  A    between atoms: C_17  and  O_18 
REMARK   10  A    between atoms: O_18  and  C_19 
REMARK   11  A    between atoms: C_22  and  N_23 
ROOT
ATOM      1  O   UNL d   1       3.432   5.245  -0.382  0.00  0.00    -0.247 OA
ATOM      2  C   UNL d   1       3.353   4.447  -1.317  0.00  0.00     0.316 C 
ATOM      3  N   UNL d   1       2.321   4.436  -2.207  0.00  0.00    -0.343 N 
ATOM      4  N   UNL d   1       4.326   3.501  -1.490  0.00  0.00    -0.341 N 
ATOM      5  H   UNL d   1       2.341   3.814  -2.995  0.00  0.00     0.164 HD
ATOM      6  H   UNL d   1       5.127   3.680  -0.894  0.00  0.00     0.164 HD
ENDROOT
BRANCH   4   7
ATOM      7  C   UNL d   1       4.465   2.611  -2.636  0.00  0.00     0.158 C 
BRANCH   7   8
ATOM      8  C   UNL d   1       5.112   1.239  -2.394  0.00  0.00     0.160 C 
BRANCH   8   9
ATOM      9  C   UNL d   1       6.641   1.239  -2.424  0.00  0.00     0.209 C 
BRANCH   9  10
ATOM     10  O   UNL d   1       7.090   1.865  -3.628  0.00  0.00    -0.349 OA
BRANCH  10  11
ATOM     11  C   UNL d   1       8.438   1.849  -3.849  0.00  0.00     0.069 A 
ATOM     12  C   UNL d   1       8.967   2.982  -4.475  0.00  0.00     0.039 A 
ATOM     13  C   UNL d   1      10.312   3.020  -4.855  0.00  0.00     0.039 A 
ATOM     14  C   UNL d   1      11.143   1.938  -4.543  0.00  0.00     0.103 A 
ATOM     15  C   UNL d   1      10.617   0.795  -3.929  0.00  0.00     0.039 A 
ATOM     16  C   UNL d   1       9.260   0.752  -3.592  0.00  0.00     0.039 A 
BRANCH  14  17
ATOM     17  N   UNL d   1      12.585   2.021  -4.811  0.00  0.00    -0.116 N 
ATOM     18  O   UNL d   1      13.016   3.059  -5.333  0.00  0.00    -0.532 OA
ATOM     19  O   UNL d   1      13.290   1.059  -4.473  0.00  0.00    -0.532 OA
ENDBRANCH  14  17
ENDBRANCH  10  11
ENDBRANCH   9  10
ENDBRANCH   8   9
BRANCH   8  20
ATOM     20  O   UNL d   1       4.629   0.618  -1.203  0.00  0.00    -0.392 OA
ATOM     21  H   UNL d   1       4.827   1.210  -0.456  0.00  0.00     0.210 HD
ENDBRANCH   8  20
ENDBRANCH   7   8
ENDBRANCH   4   7
BRANCH   3  22
ATOM     22  C   UNL d   1       1.177   5.317  -2.106  0.00  0.00     0.125 C 
BRANCH  22  23
ATOM     23  C   UNL d   1       0.171   5.059  -3.227  0.00  0.00     0.024 C 
BRANCH  23  24
ATOM     24  C   UNL d   1      -1.032   5.989  -3.101  0.00  0.00     0.040 C 
BRANCH  24  25
ATOM     25  C   UNL d   1      -2.062   5.757  -4.177  0.00  0.00    -0.058 A 
ATOM     26  C   UNL d   1      -2.284   6.717  -5.171  0.00  0.00     0.007 A 
ATOM     27  C   UNL d   1      -3.349   6.571  -6.061  0.00  0.00     0.001 A 
ATOM     28  C   UNL d   1      -4.139   5.424  -6.024  0.00  0.00     0.000 A 
ATOM     29  C   UNL d   1      -3.888   4.435  -5.076  0.00  0.00     0.001 A 
ATOM     30  C   UNL d   1      -2.859   4.604  -4.151  0.00  0.00     0.007 A 
ENDBRANCH  24  25
ENDBRANCH  23  24
ENDBRANCH  22  23
ENDBRANCH   3  22
TORSDOF 11
