REMARK  8 active torsions:
REMARK  status: ('A' for Active; 'I' for Inactive)
REMARK    1  A    between atoms: C_2  and  C_3 
REMARK       I    between atoms: C_2  and  N_19 
REMARK    2  A    between atoms: C_3  and  C_4 
REMARK    3  A    between atoms: C_5  and  C_4 
REMARK    4  A    between atoms: C_8  and  C_9 
REMARK       I    between atoms: C_9  and  N_11 
REMARK    5  A    between atoms: N_11  and  C_12 
REMARK    6  A    between atoms: N_19  and  C_20 
REMARK    7  A    between atoms: C_20  and  C_21 
REMARK    8  A    between atoms: C_21  and  C_22 
ROOT
ATOM      1  C   UNL d   1       4.986  -2.714   2.217  0.00  0.00     0.105 C 
ENDROOT
BRANCH   1   2
ATOM      2  C   UNL d   1       6.457  -2.434   2.120  0.00  0.00     0.217 C 
ATOM      3  O   UNL d   1       7.021  -1.487   2.670  0.00  0.00    -0.274 OA
ATOM      4  N   UNL d   1       7.174  -3.342   1.395  0.00  0.00    -0.361 N 
ATOM      5  H   UNL d   1       8.171  -3.144   1.371  0.00  0.00     0.162 HD
BRANCH   4   6
ATOM      6  C   UNL d   1       6.619  -4.504   0.735  0.00  0.00     0.127 C 
BRANCH   6   7
ATOM      7  C   UNL d   1       7.686  -5.296   0.026  0.00  0.00     0.056 C 
BRANCH   7   8
ATOM      8  C   UNL d   1       7.218  -6.527  -0.677  0.00  0.00    -0.048 A 
ATOM      9  C   UNL d   1       8.081  -7.303  -1.332  0.00  0.00    -0.004 A 
ATOM     10  C   UNL d   1       9.485  -7.195  -1.516  0.00  0.00     0.037 A 
ATOM     11  C   UNL d   1       7.280  -8.358  -1.961  0.00  0.00     0.038 A 
ATOM     12  C   UNL d   1      10.080  -8.056  -2.349  0.00  0.00     0.035 A 
ATOM     13 CL   UNL d   1      11.735  -7.832  -2.757  0.00  0.00    -0.084 Cl
ATOM     14  C   UNL d   1       9.334  -9.151  -2.956  0.00  0.00     0.026 A 
ATOM     15  C   UNL d   1       8.002  -9.327  -2.808  0.00  0.00     0.031 A 
ATOM     16  N   UNL d   1       6.040  -8.257  -1.661  0.00  0.00    -0.385 N 
ATOM     17  C   UNL d   1       5.819  -7.068  -0.789  0.00  0.00     0.155 A 
ATOM     18  H   UNL d   1       5.338  -8.921  -1.986  0.00  0.00     0.160 HD
ENDBRANCH   7   8
ENDBRANCH   6   7
ENDBRANCH   4   6
ENDBRANCH   1   2
BRANCH   1  19
ATOM     19  C   UNL d   1       4.226  -1.716   3.071  0.00  0.00     0.041 C 
BRANCH  19  20
ATOM     20  C   UNL d   1       2.726  -2.050   3.156  0.00  0.00     0.135 C 
ATOM     21  N   UNL d   1       2.426  -3.485   3.218  0.00  0.00    -0.245 NA
ATOM     22  N   UNL d   1       2.383  -3.963   4.578  0.00  0.00    -0.237 NA
ATOM     23  H   UNL d   1       2.978  -4.054   2.586  0.00  0.00     0.142 HD
ATOM     24  C   UNL d   1       2.492  -2.857   5.549  0.00  0.00     0.226 C 
ATOM     25  H   UNL d   1       3.012  -4.729   4.822  0.00  0.00     0.142 HD
ATOM     26  S   UNL d   1       2.078  -1.338   4.675  0.00  0.00    -0.117 SA
BRANCH  24  27
ATOM     27  C   UNL d   1       1.577  -3.091   6.756  0.00  0.00     0.251 C 
ATOM     28  O   UNL d   1       0.963  -4.148   6.912  0.00  0.00    -0.270 OA
ATOM     29  N   UNL d   1       1.562  -2.031   7.667  0.00  0.00    -0.325 N 
ATOM     30  H   UNL d   1       1.897  -1.127   7.348  0.00  0.00     0.169 HD
BRANCH  29  31
ATOM     31  C   UNL d   1       0.830  -2.079   8.869  0.00  0.00     0.034 A 
ATOM     32  C   UNL d   1       0.181  -0.938   9.351  0.00  0.00     0.029 A 
ATOM     33  C   UNL d   1      -0.499  -0.992  10.574  0.00  0.00     0.002 A 
ATOM     34  C   UNL d   1      -0.550  -2.184  11.299  0.00  0.00     0.000 A 
ATOM     35  C   UNL d   1       0.101  -3.316  10.820  0.00  0.00     0.002 A 
ATOM     36  C   UNL d   1       0.787  -3.259   9.612  0.00  0.00     0.029 A 
ENDBRANCH  29  31
ENDBRANCH  24  27
ENDBRANCH  19  20
ENDBRANCH   1  19
TORSDOF 8
