@<TRIPOS>MOLECULE
*****
 65 67 0 0 0
SMALL
GASTEIGER

@<TRIPOS>ATOM
      1 C           2.9935   -0.4419    0.2859 C.3     1  UNL1        0.0366
      2 O           2.9511    0.6378    1.1078 O.3     1  UNL1       -0.3796
      3 C           1.8231    0.7900    1.9256 C.3     1  UNL1        0.0815
      4 C           2.1520    2.1411    2.3909 C.3     1  UNL1        0.1160
      5 O           0.9580    2.4957    2.9945 O.3     1  UNL1       -0.4588
      6 C           0.4321    3.7360    3.0163 C.2     1  UNL1        0.3419
      7 O          -0.3540    3.9266    3.9056 O.2     1  UNL1       -0.2449
      8 C           0.9398    4.8025    2.1122 C.ar    1  UNL1        0.0910
      9 C           1.3186    4.7813    0.7812 C.ar    1  UNL1        0.0869
     10 N           1.3085    3.7682   -0.1921 N.am    1  UNL1       -0.2749
     11 C           0.4596    2.6637   -0.0377 C.2     1  UNL1        0.2627
     12 O          -0.5952    2.6774    0.5931 O.2     1  UNL1       -0.2696
     13 C           0.8755    1.3720   -0.7506 C.3     1  UNL1        0.0451
     14 N           0.3257   -0.2237   -0.1988 N.4     1  UNL1        0.2393
     15 C           0.5014   -1.5689   -0.9790 C.3     1  UNL1        0.0077
     16 C           1.9258   -2.2817   -1.3859 C.3     1  UNL1        0.0198
     17 C           2.7462   -3.0760   -0.2791 C.ar    1  UNL1       -0.0417
     18 C           2.1916   -3.4022    0.9889 C.ar    1  UNL1       -0.0584
     19 C           2.9962   -3.7231    2.1030 C.ar    1  UNL1       -0.0615
     20 C           4.3658   -3.8828    1.9599 C.ar    1  UNL1       -0.0617
     21 C           4.9557   -3.5519    0.7445 C.ar    1  UNL1       -0.0615
     22 C           4.1667   -3.1392   -0.3555 C.ar    1  UNL1       -0.0584
     23 C          -0.4009   -1.4408   -2.1320 C.ar    1  UNL1        0.0004
     24 C          -0.6783   -0.2129   -2.7299 C.ar    1  UNL1       -0.0532
     25 C          -1.7495    0.0225   -3.5260 C.ar    1  UNL1       -0.0613
     26 C          -2.3040   -1.1076   -4.0574 C.ar    1  UNL1       -0.0617
     27 C          -1.9327   -2.3899   -3.6096 C.ar    1  UNL1       -0.0613
     28 C          -1.0350   -2.5621   -2.5813 C.ar    1  UNL1       -0.0532
     29 S           1.9902    6.2845    0.2964 S.2     1  UNL1       -0.0678
     30 C           1.5861    7.0780    1.7997 C.ar    1  UNL1        0.0791
     31 C           1.8601    8.5196    1.9630 C.2     1  UNL1        0.2485
     32 N           1.5576    9.1424    3.1550 N.am    1  UNL1       -0.3249
     33 O           2.3514    9.2337    1.0956 O.2     1  UNL1       -0.2698
     34 C           1.0367    6.1488    2.6678 C.ar    1  UNL1       -0.0154
     35 C           0.5579    6.3516    4.0647 C.3     1  UNL1       -0.0376
     36 H           3.9776   -0.6745   -0.0888 H       1  UNL1        0.0524
     37 H           2.4825   -0.2208   -0.6312 H       1  UNL1        0.0524
     38 H           2.4634   -1.2107    0.8100 H       1  UNL1        0.0524
     39 H           1.5840   -0.0027    2.6464 H       1  UNL1        0.0593
     40 H           0.8433    0.9420    1.4710 H       1  UNL1        0.0593
     41 H           2.4588    2.7234    1.5166 H       1  UNL1        0.0721
     42 H           3.0029    2.0572    3.0510 H       1  UNL1        0.0721
     43 H           1.9089    3.9036   -1.0087 H       1  UNL1        0.1555
     44 H           1.9318    1.3626   -1.0134 H       1  UNL1        0.0912
     45 H           0.3374    1.6069   -1.6314 H       1  UNL1        0.0912
     46 H          -0.6856   -0.0877    0.0059 H       1  UNL1        0.2025
     47 H           0.6263   -0.5370    0.7281 H       1  UNL1        0.2025
     48 H           0.0346   -2.2887   -0.2813 H       1  UNL1        0.0907
     49 H           1.7903   -2.9365   -2.2614 H       1  UNL1        0.0372
     50 H           2.5869   -1.5383   -1.8566 H       1  UNL1        0.0372
     51 H           1.1474   -3.2329    1.2250 H       1  UNL1        0.0620
     52 H           2.5609   -3.7948    3.1018 H       1  UNL1        0.0618
     53 H           4.9672   -4.2326    2.7994 H       1  UNL1        0.0618
     54 H           6.0451   -3.5564    0.6801 H       1  UNL1        0.0618
     55 H           4.7101   -2.7130   -1.2019 H       1  UNL1        0.0620
     56 H           0.0279    0.5767   -2.7714 H       1  UNL1        0.0622
     57 H          -1.9784    1.0411   -3.8281 H       1  UNL1        0.0618
     58 H          -2.9698   -0.9830   -4.8969 H       1  UNL1        0.0618
     59 H          -2.3431   -3.2737   -4.0716 H       1  UNL1        0.0618
     60 H          -0.7660   -3.5378   -2.1821 H       1  UNL1        0.0622
     61 H           1.1670    8.7581    3.9881 H       1  UNL1        0.1453
     62 H           1.7426   10.1322    3.2328 H       1  UNL1        0.1453
     63 H           0.6097    7.3311    4.4812 H       1  UNL1        0.0278
     64 H           1.1430    5.7178    4.7395 H       1  UNL1        0.0278
     65 H          -0.5092    6.1154    4.1083 H       1  UNL1        0.0278
@<TRIPOS>UNITY_ATOM_ATTR
14 1
charge 1
@<TRIPOS>BOND
     1     1     2    1
     2     2     3    1
     3     3     4    1
     4     4     5    1
     5     5     6    1
     6     6     7    2
     7     6     8    1
     8     8     9   ar
     9     9    10    1
    10    10    11   am
    11    11    12    2
    12    11    13    1
    13    13    14    1
    14    16    17    1
    15    17    18   ar
    16    18    19   ar
    17    19    20   ar
    18    20    21   ar
    19    21    22   ar
    20    17    22   ar
    21    15    23    1
    22    23    24   ar
    23    24    25   ar
    24    25    26   ar
    25    26    27   ar
    26    27    28   ar
    27    23    28   ar
    28     9    29   ar
    29    29    30   ar
    30    30    31    1
    31    31    32   am
    32    31    33    2
    33    30    34   ar
    34     8    34   ar
    35    34    35    1
    36    15    16    1
    37    15    14    1
    38     1    36    1
    39     1    37    1
    40     1    38    1
    41     3    39    1
    42     3    40    1
    43     4    41    1
    44     4    42    1
    45    10    43    1
    46    13    44    1
    47    13    45    1
    48    14    46    1
    49    14    47    1
    50    15    48    1
    51    16    49    1
    52    16    50    1
    53    18    51    1
    54    19    52    1
    55    20    53    1
    56    21    54    1
    57    22    55    1
    58    24    56    1
    59    25    57    1
    60    26    58    1
    61    27    59    1
    62    28    60    1
    63    32    61    1
    64    32    62    1
    65    35    63    1
    66    35    64    1
    67    35    65    1
