@<TRIPOS>MOLECULE
*****
 54 55 0 0 0
SMALL
GASTEIGER

@<TRIPOS>ATOM
      1 O           1.1274   -0.3163   -0.1981 O.2     1  UNL1       -0.2754
      2 C           2.3373   -0.1275   -0.0826 C.2     1  UNL1        0.2185
      3 C           2.9181    1.0645    0.6565 C.3     1  UNL1        0.0248
      4 C           1.9661    2.0575    1.2729 C.3     1  UNL1       -0.0347
      5 C           2.7369    3.2064    1.9533 C.3     1  UNL1        0.0454
      6 C           1.7481    4.1801    2.5383 C.2     1  UNL1        0.3071
      7 O           0.5237    4.0494    2.4571 O.2     1  UNL1       -0.2509
      8 O           2.3609    5.2182    3.1672 O.3     1  UNL1       -0.4646
      9 C           1.4248    6.1511    3.7326 C.3     1  UNL1        0.0928
     10 C           2.1814    7.2777    4.4224 C.3     1  UNL1       -0.0146
     11 C           1.2112    8.2793    5.0403 C.3     1  UNL1       -0.0246
     12 C           1.8902    9.4350    5.7300 C.ar    1  UNL1       -0.0472
     13 C           2.7674    9.2328    6.8046 C.ar    1  UNL1       -0.0586
     14 C           3.2265   10.3188    7.5509 C.ar    1  UNL1       -0.0615
     15 C           2.8812   11.6169    7.1803 C.ar    1  UNL1       -0.0617
     16 C           2.0539   11.8302    6.0804 C.ar    1  UNL1       -0.0615
     17 C           1.5558   10.7445    5.3631 C.ar    1  UNL1       -0.0586
     18 N           3.2577   -1.0330   -0.6426 N.am    1  UNL1       -0.2676
     19 C           4.6611   -0.9645   -0.8235 C.2     1  UNL1        0.1409
     20 S           5.6114    0.4147   -0.5397 S.2     1  UNL1       -0.0182
     21 N           5.2274   -2.1588   -1.3136 N.am    1  UNL1       -0.2936
     22 C           6.6496   -2.3555   -1.3149 C.ar    1  UNL1        0.0811
     23 C           7.3422   -2.6919   -2.4826 C.ar    1  UNL1        0.0403
     24 C           8.7477   -2.8235   -2.4214 C.ar    1  UNL1        0.2751
     25 N           9.4821   -3.4420   -3.5347 N.pl3   1  UNL1        0.0797
     26 O           8.8391   -3.7601   -4.5433 O.2     1  UNL1        0.0414
     27 O          10.6927   -3.6606   -3.3737 O.co2   1  UNL1       -0.5760
     28 C           9.4669   -2.4874   -1.2628 C.ar    1  UNL1        0.0192
     29 C           8.7771   -2.1471   -0.1085 C.ar    1  UNL1       -0.0119
     30 C           7.3869   -2.1577   -0.1264 C.ar    1  UNL1        0.1384
     31 O           6.7247   -2.0070    1.0657 O.3     1  UNL1       -0.5049
     32 H           3.4611    1.6543   -0.0818 H       1  UNL1        0.0359
     33 H           3.5686    0.6732    1.4475 H       1  UNL1        0.0359
     34 H           1.3212    1.5522    1.9974 H       1  UNL1        0.0275
     35 H           1.3240    2.4679    0.4846 H       1  UNL1        0.0275
     36 H           3.3723    3.7296    1.2260 H       1  UNL1        0.0378
     37 H           3.3799    2.8138    2.7511 H       1  UNL1        0.0378
     38 H           0.7913    5.6326    4.4639 H       1  UNL1        0.0697
     39 H           0.7924    6.5629    2.9358 H       1  UNL1        0.0697
     40 H           2.8359    7.7816    3.7012 H       1  UNL1        0.0301
     41 H           2.8419    6.8506    5.1852 H       1  UNL1        0.0301
     42 H           0.5597    7.7865    5.7743 H       1  UNL1        0.0314
     43 H           0.5436    8.6626    4.2571 H       1  UNL1        0.0314
     44 H           3.0810    8.2307    7.0879 H       1  UNL1        0.0620
     45 H           3.8349   10.1507    8.4357 H       1  UNL1        0.0618
     46 H           3.2545   12.4625    7.7506 H       1  UNL1        0.0618
     47 H           1.7709   12.8396    5.7956 H       1  UNL1        0.0618
     48 H           0.8877   10.9249    4.5241 H       1  UNL1        0.0620
     49 H           2.7648   -1.8157   -1.0574 H       1  UNL1        0.1565
     50 H           4.6800   -2.7538   -1.9248 H       1  UNL1        0.1539
     51 H           6.8232   -2.8062   -3.4316 H       1  UNL1        0.0705
     52 H          10.5536   -2.5404   -1.2277 H       1  UNL1        0.0686
     53 H           9.3199   -1.9374    0.8076 H       1  UNL1        0.0657
     54 H           7.2183   -1.3583    1.5964 H       1  UNL1        0.2922
@<TRIPOS>UNITY_ATOM_ATTR
25 1
charge 1
27 1
charge -1
@<TRIPOS>BOND
     1     1     2    2
     2     2     3    1
     3     3     4    1
     4     4     5    1
     5     5     6    1
     6     6     7    2
     7     6     8    1
     8     8     9    1
     9     9    10    1
    10    10    11    1
    11    11    12    1
    12    12    13   ar
    13    13    14   ar
    14    14    15   ar
    15    15    16   ar
    16    16    17   ar
    17    12    17   ar
    18     2    18   am
    19    18    19    1
    20    19    20    2
    21    19    21    1
    22    21    22    1
    23    22    23   ar
    24    23    24   ar
    25    24    25    1
    26    25    26    2
    27    25    27    1
    28    24    28   ar
    29    28    29   ar
    30    29    30   ar
    31    22    30   ar
    32    30    31    1
    33     3    32    1
    34     3    33    1
    35     4    34    1
    36     4    35    1
    37     5    36    1
    38     5    37    1
    39     9    38    1
    40     9    39    1
    41    10    40    1
    42    10    41    1
    43    11    42    1
    44    11    43    1
    45    13    44    1
    46    14    45    1
    47    15    46    1
    48    16    47    1
    49    17    48    1
    50    18    49    1
    51    21    50    1
    52    23    51    1
    53    28    52    1
    54    29    53    1
    55    31    54    1
