REMARK  7 active torsions:
REMARK  status: ('A' for Active; 'I' for Inactive)
REMARK    1  A    between atoms: C_6  and  N_7 
REMARK       I    between atoms: N_7  and  C_8 
REMARK    2  A    between atoms: C_8  and  C_10 
REMARK    3  A    between atoms: C_10  and  N_11 
REMARK    4  A    between atoms: N_11  and  C_12 
REMARK    5  A    between atoms: C_17  and  S_18 
REMARK    6  A    between atoms: S_18  and  C_19 
REMARK    7  A    between atoms: C_19  and  C_20 
REMARK       I    between atoms: C_20  and  N_21 
ROOT
ATOM      1  N   UNL d   1      -3.418  -5.592  -0.542  0.00  0.00    -0.380 N 
ATOM      2  H   UNL d   1      -4.064  -4.982  -0.027  0.00  0.00     0.160 HD
ENDROOT
BRANCH   1   3
ATOM      3  C   UNL d   1      -2.100  -5.009  -0.715  0.00  0.00     0.223 C 
BRANCH   3   4
ATOM      4  C   UNL d   1      -2.081  -3.535  -0.254  0.00  0.00     0.239 C 
ATOM      5  N   UNL d   1      -0.851  -2.864  -0.187  0.00  0.00    -0.325 N 
ATOM      6  H   UNL d   1       0.002  -3.404  -0.107  0.00  0.00     0.169 HD
ATOM      7  O   UNL d   1      -3.172  -3.050   0.066  0.00  0.00    -0.271 OA
BRANCH   5   8
ATOM      8  C   UNL d   1      -0.705  -1.435  -0.057  0.00  0.00     0.041 A 
ATOM      9  C   UNL d   1      -1.856  -0.634  -0.038  0.00  0.00     0.030 A 
ATOM     10  C   UNL d   1      -1.823   0.751   0.020  0.00  0.00     0.003 A 
ATOM     11  C   UNL d   1      -0.611   1.403   0.028  0.00  0.00     0.007 A 
ATOM     12  C   UNL d   1       0.583   0.667   0.009  0.00  0.00    -0.054 A 
ATOM     13  C   UNL d   1       1.865   1.464  -0.011  0.00  0.00     0.049 C 
ATOM     14  C   UNL d   1       0.553  -0.769  -0.006  0.00  0.00    -0.029 A 
ATOM     15  C   UNL d   1       1.882  -1.487   0.021  0.00  0.00     0.051 C 
ENDBRANCH   5   8
ENDBRANCH   3   4
ENDBRANCH   1   3
BRANCH   1  16
ATOM     16  C   UNL d   1      -3.514  -6.944  -0.174  0.00  0.00     0.045 A 
ATOM     17  C   UNL d   1      -4.554  -7.563  -0.906  0.00  0.00     0.030 A 
ATOM     18  C   UNL d   1      -4.882  -8.902  -0.773  0.00  0.00     0.002 A 
ATOM     19  C   UNL d   1      -4.137  -9.689   0.084  0.00  0.00     0.002 A 
ATOM     20  C   UNL d   1      -3.123  -9.107   0.862  0.00  0.00     0.021 A 
ATOM     21  C   UNL d   1      -2.796  -7.717   0.792  0.00  0.00     0.027 A 
BRANCH  21  22
ATOM     22  S   UNL d   1      -1.465  -7.313   2.030  0.00  0.00    -0.118 SA
BRANCH  22  23
ATOM     23  C   UNL d   1      -1.041  -5.546   1.907  0.00  0.00     0.182 C 
BRANCH  23  24
ATOM     24  C   UNL d   1       0.045  -4.944   2.715  0.00  0.00     0.225 C 
ATOM     25  N   UNL d   1       0.777  -5.807   3.433  0.00  0.00    -0.369 N 
ATOM     26  H   UNL d   1       0.535  -6.791   3.388  0.00  0.00     0.159 HD
ATOM     27  H   UNL d   1       1.615  -5.481   3.888  0.00  0.00     0.159 HD
ATOM     28  O   UNL d   1       0.389  -3.760   2.554  0.00  0.00    -0.273 OA
ENDBRANCH  23  24
ENDBRANCH  22  23
ENDBRANCH  21  22
ENDBRANCH   1  16
TORSDOF 7
