@<TRIPOS>MOLECULE
*****
 31 32 0 0 0
SMALL
GASTEIGER

@<TRIPOS>ATOM
      1 O           1.0142    0.1106    0.1109 O.2     1  UNL1       -0.2683
      2 C           2.2429   -0.0075    0.1572 C.2     1  UNL1        0.2668
      3 N           2.9456   -0.5835    1.2169 N.am    1  UNL1       -0.2029
      4 N           2.2403   -1.1167    2.2759 N.2     1  UNL1       -0.1873
      5 C           2.9013   -1.5993    3.2807 C.2     1  UNL1        0.0569
      6 C           2.1895   -2.1454    4.4671 C.ar    1  UNL1        0.0480
      7 C           1.0973   -3.0012    4.3011 C.ar    1  UNL1        0.1334
      8 F           0.7572   -3.4572    3.0878 F       1  UNL1       -0.2048
      9 C           0.3516   -3.4502    5.3970 C.ar    1  UNL1       -0.0257
     10 C           0.6933   -3.0497    6.6859 C.ar    1  UNL1       -0.0576
     11 C           1.8055   -2.2287    6.8727 C.ar    1  UNL1       -0.0426
     12 C           2.5583   -1.7859    5.7702 C.ar    1  UNL1        0.0523
     13 CL          3.9120   -0.7637    6.0983 Cl      1  UNL1       -0.0828
     14 C           3.0249    0.5491   -0.9900 C.ar    1  UNL1        0.0799
     15 C           2.6112    1.7766   -1.5481 C.ar    1  UNL1       -0.0426
     16 C           3.2447    2.3113   -2.6807 C.ar    1  UNL1       -0.0192
     17 C           4.2816    1.6026   -3.2746 C.ar    1  UNL1        0.1204
     18 O           4.9343    2.0711   -4.3782 O.3     1  UNL1       -0.5066
     19 C           4.6909    0.3762   -2.7542 C.ar    1  UNL1        0.0221
     20 C           4.0719   -0.1427   -1.6069 C.ar    1  UNL1        0.1325
     21 O           4.4873   -1.3441   -1.1035 O.3     1  UNL1       -0.5059
     22 H           3.9588   -0.6395    1.1935 H       1  UNL1        0.1776
     23 H           4.0052   -1.5844    3.3223 H       1  UNL1        0.0853
     24 H          -0.5001   -4.1057    5.2330 H       1  UNL1        0.0646
     25 H           0.0988   -3.3747    7.5382 H       1  UNL1        0.0619
     26 H           2.0707   -1.9222    7.8836 H       1  UNL1        0.0632
     27 H           1.7785    2.3185   -1.1010 H       1  UNL1        0.0627
     28 H           2.9065    3.2615   -3.0860 H       1  UNL1        0.0654
     29 H           4.5703    2.9374   -4.6292 H       1  UNL1        0.2921
     30 H           5.4878   -0.1594   -3.2618 H       1  UNL1        0.0691
     31 H           5.1101   -1.7494   -1.7317 H       1  UNL1        0.2922
@<TRIPOS>BOND
     1     1     2    2
     2     2     3   am
     3     3     4    1
     4     4     5    2
     5     5     6    1
     6     6     7   ar
     7     7     8    1
     8     7     9   ar
     9     9    10   ar
    10    10    11   ar
    11    11    12   ar
    12     6    12   ar
    13    12    13    1
    14     2    14    1
    15    14    15   ar
    16    15    16   ar
    17    16    17   ar
    18    17    18    1
    19    17    19   ar
    20    19    20   ar
    21    14    20   ar
    22    20    21    1
    23     3    22    1
    24     5    23    1
    25     9    24    1
    26    10    25    1
    27    11    26    1
    28    15    27    1
    29    16    28    1
    30    18    29    1
    31    19    30    1
    32    21    31    1
