@<TRIPOS>MOLECULE
*****
 44 44 0 0 0
SMALL
GASTEIGER

@<TRIPOS>ATOM
      1 C           1.0244   -0.0257    0.0962 C.3     1  UNL1       -0.0627
      2 C           2.5591   -0.0076    0.1158 C.3     1  UNL1       -0.0463
      3 C           3.0334    1.3835    0.5349 C.3     1  UNL1       -0.0627
      4 C           3.1028   -1.1035    1.0598 C.3     1  UNL1       -0.0424
      5 C           4.6440   -1.1922    1.1221 C.3     1  UNL1        0.0256
      6 C           5.1339   -2.2855    2.0820 C.2     1  UNL1        0.2291
      7 O           4.3635   -3.0037    2.7211 O.2     1  UNL1       -0.2743
      8 N           6.5129   -2.4083    2.1974 N.am    1  UNL1       -0.2332
      9 N           7.0606   -3.3938    3.0814 N.am    1  UNL1       -0.2182
     10 C           8.4352   -3.5264    3.2028 C.2     1  UNL1        0.3161
     11 O           9.2197   -2.8144    2.5730 O.2     1  UNL1       -0.2513
     12 N           8.8484   -4.5139    4.0787 N.am    1  UNL1       -0.2950
     13 C          10.2760   -4.7826    4.3343 C.3     1  UNL1        0.0473
     14 C          10.5623   -5.9161    5.3495 C.3     1  UNL1        0.1051
     15 O          11.9731   -6.0041    5.6074 O.3     1  UNL1       -0.4904
     16 C          12.4337   -7.0753    6.3340 C.ar    1  UNL1        0.1206
     17 C          13.6326   -6.8667    7.0283 C.ar    1  UNL1       -0.0199
     18 C          14.2986   -7.9296    7.6513 C.ar    1  UNL1       -0.0583
     19 C          13.7356   -9.2023    7.6449 C.ar    1  UNL1       -0.0615
     20 C          12.5215   -9.4116    6.9942 C.ar    1  UNL1       -0.0583
     21 C          11.8750   -8.3543    6.3360 C.ar    1  UNL1       -0.0199
     22 H           0.6328    0.7370   -0.5873 H       1  UNL1        0.0232
     23 H           0.6134    0.1781    1.0914 H       1  UNL1        0.0232
     24 H           0.6424   -0.9965   -0.2357 H       1  UNL1        0.0232
     25 H           2.9114   -0.2080   -0.9042 H       1  UNL1        0.0296
     26 H           2.7007    1.6159    1.5524 H       1  UNL1        0.0232
     27 H           2.6389    2.1527   -0.1369 H       1  UNL1        0.0232
     28 H           4.1231    1.4606    0.5055 H       1  UNL1        0.0232
     29 H           2.7011   -2.0738    0.7381 H       1  UNL1        0.0272
     30 H           2.7083   -0.9300    2.0695 H       1  UNL1        0.0272
     31 H           5.0574   -0.2395    1.4685 H       1  UNL1        0.0359
     32 H           5.0323   -1.3875    0.1156 H       1  UNL1        0.0359
     33 H           7.1854   -1.8277    1.6982 H       1  UNL1        0.1728
     34 H           6.3821   -3.9577    3.5850 H       1  UNL1        0.1744
     35 H           8.1538   -5.0606    4.5660 H       1  UNL1        0.1504
     36 H          10.7460   -3.8524    4.6754 H       1  UNL1        0.0496
     37 H          10.7525   -5.0246    3.3752 H       1  UNL1        0.0496
     38 H          10.1642   -6.8486    4.9393 H       1  UNL1        0.0712
     39 H          10.0643   -5.6961    6.2994 H       1  UNL1        0.0712
     40 H          14.0640   -5.8701    7.0791 H       1  UNL1        0.0654
     41 H          15.2669   -7.7688    8.1199 H       1  UNL1        0.0619
     42 H          14.2444  -10.0284    8.1367 H       1  UNL1        0.0618
     43 H          12.0923  -10.4107    6.9680 H       1  UNL1        0.0619
     44 H          10.9598   -8.5806    5.8032 H       1  UNL1        0.0654
@<TRIPOS>BOND
     1     1     2    1
     2     2     3    1
     3     2     4    1
     4     4     5    1
     5     5     6    1
     6     6     7    2
     7     6     8   am
     8     8     9    1
     9     9    10   am
    10    10    11    2
    11    10    12   am
    12    12    13    1
    13    13    14    1
    14    14    15    1
    15    15    16    1
    16    16    17   ar
    17    17    18   ar
    18    18    19   ar
    19    19    20   ar
    20    20    21   ar
    21    16    21   ar
    22     1    22    1
    23     1    23    1
    24     1    24    1
    25     2    25    1
    26     3    26    1
    27     3    27    1
    28     3    28    1
    29     4    29    1
    30     4    30    1
    31     5    31    1
    32     5    32    1
    33     8    33    1
    34     9    34    1
    35    12    35    1
    36    13    36    1
    37    13    37    1
    38    14    38    1
    39    14    39    1
    40    17    40    1
    41    18    41    1
    42    19    42    1
    43    20    43    1
    44    21    44    1
