REMARK  7 active torsions:
REMARK  status: ('A' for Active; 'I' for Inactive)
REMARK    1  A    between atoms: C_2  and  C_3 
REMARK    2  A    between atoms: C_6  and  N_7 
REMARK    3  A    between atoms: C_11  and  S_12 
REMARK    4  A    between atoms: S_12  and  N_15 
REMARK    5  A    between atoms: N_15  and  N_16 
REMARK       I    between atoms: N_16  and  C_17 
REMARK    6  A    between atoms: C_17  and  C_19 
REMARK    7  A    between atoms: C_24  and  O_25 
ROOT
ATOM      1  S   UNL d   1       2.572   3.005  -0.306  0.00  0.00     0.276 S 
ATOM      2  O   UNL d   1       1.311   3.692  -0.083  0.00  0.00    -0.199 OA
ATOM      3  O   UNL d   1       3.781   3.737  -0.592  0.00  0.00    -0.199 OA
ENDROOT
BRANCH   1   4
ATOM      4  C   UNL d   1       2.921   2.065   1.198  0.00  0.00     0.089 A 
ATOM      5  C   UNL d   1       3.130   2.828   2.370  0.00  0.00     0.062 A 
ATOM      6  C   UNL d   1       3.421   2.181   3.587  0.00  0.00     0.104 A 
ATOM      7  C   UNL d   1       3.506   0.789   3.650  0.00  0.00     0.037 A 
ATOM      8  C   UNL d   1       3.362   0.045   2.486  0.00  0.00     0.011 A 
ATOM      9  C   UNL d   1       3.013   0.660   1.269  0.00  0.00    -0.035 A 
BRANCH   6  10
ATOM     10  N   UNL d   1       3.702   2.958   4.804  0.00  0.00    -0.116 N 
ATOM     11  O   UNL d   1       3.973   2.330   5.838  0.00  0.00    -0.532 OA
ATOM     12  O   UNL d   1       3.674   4.193   4.718  0.00  0.00    -0.532 OA
ENDBRANCH   6  10
BRANCH   9  13
ATOM     13  C   UNL d   1       2.570  -0.267   0.177  0.00  0.00     0.035 C 
ATOM     14  C   UNL d   1       1.033  -0.207   0.125  0.00  0.00     0.010 C 
ENDBRANCH   9  13
ENDBRANCH   1   4
BRANCH   1  15
ATOM     15  N   UNL d   1       2.278   1.958  -1.611  0.00  0.00    -0.220 N 
ATOM     16  H   UNL d   1       1.867   1.056  -1.432  0.00  0.00     0.200 HD
BRANCH  15  17
ATOM     17  N   UNL d   1       1.715   2.425  -2.873  0.00  0.00    -0.256 N 
ATOM     18  C   UNL d   1       1.922   1.615  -3.983  0.00  0.00     0.273 C 
ATOM     19  O   UNL d   1       2.166   0.414  -3.942  0.00  0.00    -0.266 OA
ATOM     20  H   UNL d   1       1.580   3.426  -2.973  0.00  0.00     0.191 HD
BRANCH  18  21
ATOM     21  C   UNL d   1       1.843   2.326  -5.274  0.00  0.00     0.067 A 
ATOM     22  C   UNL d   1       0.861   1.839  -6.157  0.00  0.00     0.020 A 
ATOM     23  C   UNL d   1       0.670   2.432  -7.403  0.00  0.00     0.001 A 
ATOM     24  C   UNL d   1       1.411   3.556  -7.747  0.00  0.00     0.003 A 
ATOM     25  C   UNL d   1       2.398   4.032  -6.880  0.00  0.00     0.038 A 
ATOM     26  C   UNL d   1       2.656   3.412  -5.645  0.00  0.00     0.084 A 
BRANCH  26  27
ATOM     27  O   UNL d   1       3.721   3.990  -5.005  0.00  0.00    -0.355 OA
ATOM     28  C   UNL d   1       4.171   3.479  -3.762  0.00  0.00     0.210 C 
ENDBRANCH  26  27
ENDBRANCH  18  21
ENDBRANCH  15  17
ENDBRANCH   1  15
TORSDOF 7
