REMARK  6 active torsions:
REMARK  status: ('A' for Active; 'I' for Inactive)
REMARK    1  A    between atoms: C_5  and  C_6 
REMARK       I    between atoms: C_6  and  N_8 
REMARK    2  A    between atoms: N_8  and  N_9 
REMARK       I    between atoms: N_9  and  C_10 
REMARK    3  A    between atoms: C_10  and  C_12 
REMARK    4  A    between atoms: C_13  and  C_12 
REMARK    5  A    between atoms: C_13  and  C_15 
REMARK    6  A    between atoms: C_18  and  O_19 
ROOT
ATOM      1  C   UNL d   1      -2.988  -3.280   1.191  0.00  0.00     0.272 C 
ATOM      2  O   UNL d   1      -3.678  -3.271   0.156  0.00  0.00    -0.266 OA
ATOM      3  N   UNL d   1      -2.629  -4.464   1.843  0.00  0.00    -0.263 N 
ATOM      4  H   UNL d   1      -2.183  -4.567   2.747  0.00  0.00     0.190 HD
ENDROOT
BRANCH   3   5
ATOM      5  N   UNL d   1      -3.118  -5.621   1.281  0.00  0.00    -0.267 N 
ATOM      6  C   UNL d   1      -2.996  -6.877   1.822  0.00  0.00     0.236 C 
ATOM      7  O   UNL d   1      -2.373  -7.058   2.870  0.00  0.00    -0.272 OA
ATOM      8  H   UNL d   1      -3.909  -5.347   0.733  0.00  0.00     0.190 HD
BRANCH   6   9
ATOM      9  C   UNL d   1      -3.637  -8.082   1.065  0.00  0.00     0.109 C 
BRANCH   9  10
ATOM     10  C   UNL d   1      -4.466  -7.936  -0.257  0.00  0.00    -0.007 C 
ATOM     11  C   UNL d   1      -4.884  -6.513  -0.553  0.00  0.00     0.011 C 
BRANCH  10  12
ATOM     12  C   UNL d   1      -5.743  -8.817  -0.282  0.00  0.00    -0.019 C 
ATOM     13  C   UNL d   1      -6.588  -8.523  -1.534  0.00  0.00     0.010 C 
ATOM     14  C   UNL d   1      -5.394 -10.302  -0.264  0.00  0.00     0.010 C 
ENDBRANCH  10  12
ENDBRANCH   9  10
ENDBRANCH   6   9
ENDBRANCH   3   5
BRANCH   1  15
ATOM     15  C   UNL d   1      -2.533  -1.998   1.765  0.00  0.00     0.066 A 
ATOM     16  C   UNL d   1      -1.821  -2.018   2.969  0.00  0.00     0.020 A 
ATOM     17  C   UNL d   1      -1.335  -0.845   3.531  0.00  0.00     0.008 A 
ATOM     18  C   UNL d   1      -1.546   0.376   2.894  0.00  0.00    -0.059 A 
ATOM     19  C   UNL d   1      -1.004   1.644   3.473  0.00  0.00     0.048 C 
ATOM     20  C   UNL d   1      -2.273   0.411   1.697  0.00  0.00     0.044 A 
ATOM     21  C   UNL d   1      -2.773  -0.764   1.137  0.00  0.00     0.082 A 
BRANCH  21  22
ATOM     22  O   UNL d   1      -3.480  -0.603  -0.026  0.00  0.00    -0.360 OA
ATOM     23  H   UNL d   1      -3.794  -1.480  -0.331  0.00  0.00     0.217 HD
ENDBRANCH  21  22
ENDBRANCH   1  15
TORSDOF 6
