REMARK  5 active torsions:
REMARK  status: ('A' for Active; 'I' for Inactive)
REMARK    1  A    between atoms: C_3  and  N_4 
REMARK    2  A    between atoms: C_3  and  C_13 
REMARK    3  A    between atoms: N_4  and  N_5 
REMARK       I    between atoms: N_5  and  C_6 
REMARK    4  A    between atoms: C_6  and  C_8 
REMARK    5  A    between atoms: C_16  and  O_17 
ROOT
ATOM      1  C   UNL d   1       1.122  -0.053  -0.211  0.00  0.00     0.038 C 
ATOM      2  C   UNL d   1       2.593   0.044   0.017  0.00  0.00     0.001 C 
ATOM      3  C   UNL d   1       3.189   0.520   1.135  0.00  0.00     0.054 C 
ENDROOT
BRANCH   3   4
ATOM      4  N   UNL d   1       2.521   0.978   2.282  0.00  0.00    -0.297 N 
ATOM      5  H   UNL d   1       3.086   1.339   3.054  0.00  0.00     0.187 HD
BRANCH   4   6
ATOM      6  N   UNL d   1       1.116   0.979   2.489  0.00  0.00    -0.265 N 
ATOM      7  C   UNL d   1       0.465   1.519   3.583  0.00  0.00     0.277 C 
ATOM      8  O   UNL d   1       1.071   2.014   4.538  0.00  0.00    -0.265 OA
ATOM      9  H   UNL d   1       0.530   0.769   1.705  0.00  0.00     0.190 HD
BRANCH   7  10
ATOM     10  C   UNL d   1      -1.005   1.432   3.477  0.00  0.00     0.074 A 
ATOM     11  C   UNL d   1      -1.800   0.401   2.986  0.00  0.00     0.025 A 
ATOM     12  C   UNL d   1      -3.203   0.672   3.088  0.00  0.00     0.009 A 
ATOM     13  C   UNL d   1      -3.445   1.921   3.611  0.00  0.00     0.050 A 
ATOM     14  S   UNL d   1      -1.990   2.739   4.006  0.00  0.00    -0.097 SA
ENDBRANCH   7  10
ENDBRANCH   4   6
ENDBRANCH   3   4
BRANCH   3  15
ATOM     15  C   UNL d   1       4.706   0.525   1.131  0.00  0.00    -0.008 A 
ATOM     16  C   UNL d   1       5.461   0.970   0.016  0.00  0.00     0.016 A 
ATOM     17  C   UNL d   1       6.872   0.962   0.011  0.00  0.00     0.037 A 
ATOM     18  C   UNL d   1       7.554   0.506   1.130  0.00  0.00     0.065 A 
ATOM     19  C   UNL d   1       6.845   0.041   2.230  0.00  0.00     0.037 A 
ATOM     20  C   UNL d   1       5.437   0.049   2.230  0.00  0.00     0.016 A 
BRANCH  18  21
ATOM     21  O   UNL d   1       8.917   0.492   1.205  0.00  0.00    -0.361 OA
ATOM     22  H   UNL d   1       9.297   0.876   0.398  0.00  0.00     0.217 HD
ENDBRANCH  18  21
ENDBRANCH   3  15
TORSDOF 5
