@<TRIPOS>MOLECULE
*****
 49 50 0 0 0
SMALL
GASTEIGER

@<TRIPOS>ATOM
      1 C           1.3616  -16.8614   -0.1857 C.3     0  UNK0       -0.0531
      2 C           0.4371  -16.6614   -1.4084 C.3     0  UNK0        0.0230
      3 C           0.0985  -18.0267   -2.0073 C.3     0  UNK0       -0.0531
      4 C          -0.8731  -16.0095   -0.9008 C.3     0  UNK0       -0.0531
      5 C           1.1216  -15.7272   -2.3787 C.ar    0  UNK0        0.1445
      6 C           1.4368  -14.4113   -2.2219 C.ar    0  UNK0        0.0230
      7 C           2.2130  -14.0179   -3.3230 C.ar    0  UNK0        0.1691
      8 N           2.8063  -12.7536   -3.4821 N.am    0  UNK0       -0.2515
      9 C           3.0504  -11.9921   -2.3495 C.2     0  UNK0        0.3054
     10 O           3.0001  -12.4632   -1.2397 O.2     0  UNK0       -0.2525
     11 N           3.1965  -10.6354   -2.5473 N.am    1  UNK1       -0.2913
     12 C           3.0893   -9.6169   -1.4397 C.3     1  UNK1        0.0776
     13 C           3.9302   -9.8874   -0.1397 C.3     1  UNK1        0.0653
     14 O           3.6418  -11.0047    0.6802 O.3     1  UNK1       -0.3931
     15 C           1.6119   -9.0610   -1.1527 C.3     1  UNK1        0.1006
     16 O           1.7059   -7.6882   -0.7351 O.3     1  UNK1       -0.3853
     17 C           0.8210   -9.8748   -0.1334 C.ar    1  UNK1       -0.0169
     18 C           0.4697   -9.4180    1.1455 C.ar    1  UNK1       -0.0497
     19 C           0.2197  -10.3340    2.1820 C.ar    1  UNK1        0.0159
     20 C           0.2985  -11.7058    1.9281 C.ar    1  UNK1        0.2732
     21 N           0.0636  -12.6968    2.9813 N.pl3   1  UNK1        0.0796
     22 O          -0.3232  -12.2793    4.0803 O.2     1  UNK1        0.0414
     23 O           0.2271  -13.8940    2.6991 O.co2   1  UNK1       -0.5760
     24 C           0.5438  -12.1493    0.6387 C.ar    1  UNK1        0.0159
     25 C           0.6506  -11.2300   -0.4038 C.ar    1  UNK1       -0.0497
     26 N           2.2709  -15.0282   -4.2048 N.ar    0  UNK0       -0.0627
     27 O           1.6158  -16.1215   -3.5886 O.2     0  UNK0       -0.3573
     28 H           0.8893  -17.4921    0.5764 H       0  UNK0        0.0239
     29 H           1.6070  -15.9052    0.2946 H       0  UNK0        0.0239
     30 H           2.3077  -17.3316   -0.4758 H       0  UNK0        0.0239
     31 H          -0.3882  -18.6670   -1.2596 H       0  UNK0        0.0239
     32 H           0.9970  -18.5486   -2.3513 H       0  UNK0        0.0239
     33 H          -0.5875  -17.9320   -2.8554 H       0  UNK0        0.0239
     34 H          -1.3673  -16.6359   -0.1487 H       0  UNK0        0.0239
     35 H          -1.5812  -15.8437   -1.7204 H       0  UNK0        0.0239
     36 H          -0.6903  -15.0367   -0.4284 H       0  UNK0        0.0239
     37 H           1.1837  -13.8508   -1.3529 H       0  UNK0        0.0688
     38 H           3.3121  -12.6062   -4.3393 H       0  UNK0        0.1579
     39 H           3.6984  -10.3484   -3.3758 H       1  UNK1        0.1507
     40 H           3.6073   -8.7507   -1.8832 H       1  UNK1        0.0550
     41 H           3.8371   -9.0305    0.5319 H       1  UNK1        0.0576
     42 H           4.9829   -9.9924   -0.4082 H       1  UNK1        0.0576
     43 H           2.6916  -11.0373    0.8477 H       1  UNK1        0.2095
     44 H           1.0548   -9.0347   -2.0973 H       1  UNK1        0.0663
     45 H           2.1565   -7.6573    0.1257 H       1  UNK1        0.2103
     46 H           0.4175   -8.3530    1.3623 H       1  UNK1        0.0623
     47 H           0.0223   -9.9672    3.1859 H       1  UNK1        0.0685
     48 H           0.7641  -13.1969    0.4594 H       1  UNK1        0.0685
     49 H           0.7959  -11.5850   -1.4178 H       1  UNK1        0.0623
@<TRIPOS>UNITY_ATOM_ATTR
21 1
charge 1
23 1
charge -1
@<TRIPOS>BOND
     1     1     2    1
     2     2     3    1
     3     2     4    1
     4     2     5    1
     5     5     6   ar
     6     6     7   ar
     7     7     8    1
     8     8     9   am
     9     9    10    2
    10     9    11   am
    11    11    12    1
    12    12    13    1
    13    13    14    1
    14    15    17    1
    15    17    18   ar
    16    18    19   ar
    17    19    20   ar
    18    20    21    1
    19    21    22    2
    20    21    23    1
    21    20    24   ar
    22    24    25   ar
    23    17    25   ar
    24     7    26   ar
    25    26    27   ar
    26     5    27   ar
    27    15    16    1
    28    15    12    1
    29     1    28    1
    30     1    29    1
    31     1    30    1
    32     3    31    1
    33     3    32    1
    34     3    33    1
    35     4    34    1
    36     4    35    1
    37     4    36    1
    38     6    37    1
    39     8    38    1
    40    11    39    1
    41    12    40    1
    42    13    41    1
    43    13    42    1
    44    14    43    1
    45    15    44    1
    46    16    45    1
    47    18    46    1
    48    19    47    1
    49    24    48    1
    50    25    49    1
