@<TRIPOS>MOLECULE
*****
 49 52 0 0 0
SMALL
GASTEIGER

@<TRIPOS>ATOM
      1 C           2.5179   -0.1946   -0.0104 C.3     1  UNL1       -0.0390
      2 C           1.0316   -0.0178    0.0016 C.ar    1  UNL1       -0.0384
      3 C           0.2697   -1.2074    0.0049 C.ar    1  UNL1       -0.0581
      4 C          -1.1196   -1.1802    0.0002 C.ar    1  UNL1       -0.0615
      5 C          -1.7738    0.0433   -0.0060 C.ar    1  UNL1       -0.0610
      6 C          -1.0323    1.2373   -0.0008 C.ar    1  UNL1       -0.0494
      7 C           0.3843    1.2398    0.0013 C.ar    1  UNL1        0.0396
      8 C           1.0622    2.6162   -0.0018 C.2     1  UNL1        0.2447
      9 O           0.3873    3.6283   -0.0021 O.2     1  UNL1       -0.2702
     10 N           2.4450    2.6912   -0.0030 N.am    1  UNL1       -0.3027
     11 C           3.2499    3.9100   -0.0101 C.3     1  UNL1        0.0887
     12 C           4.7455    3.4848   -0.0094 C.2     1  UNL1        0.2344
     13 O           5.0386    2.2855    0.0041 O.2     1  UNL1       -0.2737
     14 N           5.6808    4.5148    0.0357 N.am    1  UNL1       -0.2842
     15 C           7.0900    4.2984   -0.0090 C.ar    1  UNL1        0.0341
     16 C           7.9602    5.0997    0.7179 C.ar    1  UNL1       -0.0404
     17 C           9.3518    4.9099    0.5877 C.ar    1  UNL1       -0.0593
     18 C           9.9022    3.8972   -0.2438 C.ar    1  UNL1       -0.0510
     19 C           9.0578    3.0697   -0.9799 C.ar    1  UNL1        0.0190
     20 C           9.4098    2.0355   -2.0034 C.ar    1  UNL1        0.1393
     21 N           8.4810    1.7645   -2.8931 N.ar    1  UNL1       -0.2277
     22 C           9.0212    0.9674   -3.8245 C.ar    1  UNL1        0.0895
     23 C           8.4846    0.7113   -5.0797 C.ar    1  UNL1       -0.0342
     24 C           9.0607   -0.2488   -5.8896 C.ar    1  UNL1       -0.0596
     25 C          10.1534   -0.9701   -5.4144 C.ar    1  UNL1       -0.0597
     26 C          10.7728   -0.6581   -4.1650 C.ar    1  UNL1       -0.0362
     27 C          10.2269    0.4259   -3.4176 C.ar    1  UNL1        0.0665
     28 N          10.5627    1.3024   -2.3566 N.ar    1  UNL1       -0.3379
     29 C           7.6535    3.3137   -0.8329 C.ar    1  UNL1       -0.0298
     30 H           2.8321   -1.2397   -0.0103 H       1  UNL1        0.0278
     31 H           2.9388    0.2501    0.8976 H       1  UNL1        0.0278
     32 H           2.9203    0.2464   -0.9289 H       1  UNL1        0.0278
     33 H           0.7722   -2.1740    0.0066 H       1  UNL1        0.0620
     34 H          -1.6803   -2.1122   -0.0012 H       1  UNL1        0.0618
     35 H          -2.8616    0.0684   -0.0166 H       1  UNL1        0.0618
     36 H          -1.5842    2.1768   -0.0014 H       1  UNL1        0.0625
     37 H           3.0345    1.8840   -0.0083 H       1  UNL1        0.1495
     38 H           3.0116    4.4790    0.8903 H       1  UNL1        0.0558
     39 H           3.0117    4.4705   -0.9157 H       1  UNL1        0.0558
     40 H           5.3575    5.4515    0.2443 H       1  UNL1        0.1549
     41 H           7.5827    5.8282    1.4337 H       1  UNL1        0.0636
     42 H          10.0167    5.5707    1.1454 H       1  UNL1        0.0618
     43 H          10.9820    3.8071   -0.2993 H       1  UNL1        0.0625
     44 H           7.6468    1.3189   -5.3865 H       1  UNL1        0.0639
     45 H           8.6203   -0.4331   -6.8654 H       1  UNL1        0.0618
     46 H          10.5341   -1.7686   -6.0562 H       1  UNL1        0.0618
     47 H          11.5944   -1.2906   -3.8325 H       1  UNL1        0.0639
     48 H          11.5049    1.5781   -2.1133 H       1  UNL1        0.1674
     49 H           6.9685    2.7299   -1.4482 H       1  UNL1        0.0643
@<TRIPOS>BOND
     1     1     2    1
     2     2     3   ar
     3     3     4   ar
     4     4     5   ar
     5     5     6   ar
     6     6     7   ar
     7     2     7   ar
     8     7     8    1
     9     8     9    2
    10     8    10   am
    11    10    11    1
    12    11    12    1
    13    12    13    2
    14    12    14   am
    15    14    15    1
    16    15    16   ar
    17    16    17   ar
    18    17    18   ar
    19    18    19   ar
    20    19    20    1
    21    20    21   ar
    22    21    22   ar
    23    22    23   ar
    24    23    24   ar
    25    24    25   ar
    26    25    26   ar
    27    26    27   ar
    28    22    27   ar
    29    27    28   ar
    30    20    28   ar
    31    19    29   ar
    32    15    29   ar
    33     1    30    1
    34     1    31    1
    35     1    32    1
    36     3    33    1
    37     4    34    1
    38     5    35    1
    39     6    36    1
    40    10    37    1
    41    11    38    1
    42    11    39    1
    43    14    40    1
    44    16    41    1
    45    17    42    1
    46    18    43    1
    47    23    44    1
    48    24    45    1
    49    25    46    1
    50    26    47    1
    51    28    48    1
    52    29    49    1
