REMARK  12 active torsions:
REMARK  status: ('A' for Active; 'I' for Inactive)
REMARK    1  A    between atoms: C_2  and  C_3 
REMARK    2  A    between atoms: C_3  and  C_4 
REMARK    3  A    between atoms: C_4  and  C_5 
REMARK    4  A    between atoms: C_5  and  C_6 
REMARK    5  A    between atoms: C_6  and  C_7 
REMARK    6  A    between atoms: C_7  and  C_8 
REMARK    7  A    between atoms: C_8  and  C_9 
REMARK    8  A    between atoms: C_9  and  N_10 
REMARK    9  A    between atoms: C_11  and  N_12 
REMARK   10  A    between atoms: N_12  and  N_13 
REMARK   11  A    between atoms: C_14  and  C_15 
REMARK   12  A    between atoms: C_19  and  N_20 
ROOT
ATOM      1  N   UNL d   1      10.520   2.762   5.128  0.00  0.00    -0.171 N 
ATOM      2  C   UNL d   1      11.320   1.941   5.908  0.00  0.00     0.725 A 
ATOM      3  N   UNL d   1      12.604   2.205   5.655  0.00  0.00    -0.042 NA
ATOM      4  C   UNL d   1      12.613   3.182   4.682  0.00  0.00     0.186 A 
ATOM      5  C   UNL d   1      11.339   3.537   4.346  0.00  0.00     0.166 A 
ATOM      6  C   UNL d   1      11.036   4.515   3.360  0.00  0.00     0.280 A 
ATOM      7  O   UNL d   1       9.907   4.869   3.021  0.00  0.00    -0.265 OA
ATOM      8  N   UNL d   1      12.151   5.064   2.790  0.00  0.00    -0.273 N 
ATOM      9  C   UNL d   1      13.461   4.766   3.082  0.00  0.00     0.330 A 
ATOM     10  O   UNL d   1      14.344   5.370   2.471  0.00  0.00    -0.246 OA
ATOM     11  N   UNL d   1      13.699   3.793   4.059  0.00  0.00    -0.286 N 
ATOM     12  C   UNL d   1      15.075   3.473   4.378  0.00  0.00     0.163 C 
ATOM     13  H   UNL d   1      12.001   5.768   2.084  0.00  0.00     0.173 HD
ENDROOT
BRANCH   2  14
ATOM     14  N   UNL d   1      10.805   1.018   6.790  0.00  0.00    -0.107 N 
ATOM     15  H   UNL d   1      11.489   0.497   7.338  0.00  0.00     0.208 HD
BRANCH  14  16
ATOM     16  N   UNL d   1       9.465   0.741   6.927  0.00  0.00    -0.172 NA
ATOM     17  C   UNL d   1       9.043  -0.048   7.863  0.00  0.00     0.150 C 
BRANCH  17  18
ATOM     18  C   UNL d   1       7.574  -0.256   8.064  0.00  0.00    -0.015 A 
ATOM     19  C   UNL d   1       7.062  -0.344   9.366  0.00  0.00     0.013 A 
ATOM     20  C   UNL d   1       5.685  -0.509   9.585  0.00  0.00     0.003 A 
ATOM     21  C   UNL d   1       4.807  -0.602   8.507  0.00  0.00     0.036 A 
ATOM     22  C   UNL d   1       5.317  -0.527   7.207  0.00  0.00     0.103 A 
ATOM     23  C   UNL d   1       6.696  -0.345   6.976  0.00  0.00     0.049 A 
BRANCH  22  24
ATOM     24  N   UNL d   1       4.395  -0.685   6.077  0.00  0.00    -0.116 N 
ATOM     25  O   UNL d   1       3.181  -0.753   6.318  0.00  0.00    -0.532 OA
ATOM     26  O   UNL d   1       4.892  -0.770   4.949  0.00  0.00    -0.532 OA
ENDBRANCH  22  24
ENDBRANCH  17  18
ENDBRANCH  14  16
ENDBRANCH   2  14
BRANCH   1  27
ATOM     27  C   UNL d   1       9.077   2.814   5.054  0.00  0.00     0.148 C 
BRANCH  27  28
ATOM     28  C   UNL d   1       8.564   2.058   3.840  0.00  0.00     0.021 C 
BRANCH  28  29
ATOM     29  C   UNL d   1       7.047   2.065   3.831  0.00  0.00     0.002 C 
BRANCH  29  30
ATOM     30  C   UNL d   1       6.536   1.369   2.584  0.00  0.00     0.000 C 
BRANCH  30  31
ATOM     31  C   UNL d   1       5.020   1.399   2.551  0.00  0.00     0.000 C 
BRANCH  31  32
ATOM     32  C   UNL d   1       4.508   0.671   1.322  0.00  0.00     0.000 C 
BRANCH  32  33
ATOM     33  C   UNL d   1       2.988   0.658   1.325  0.00  0.00    -0.000 C 
BRANCH  33  34
ATOM     34  C   UNL d   1       2.464  -0.039   0.079  0.00  0.00    -0.005 C 
ATOM     35  C   UNL d   1       0.949  -0.043   0.074  0.00  0.00     0.005 C 
ENDBRANCH  33  34
ENDBRANCH  32  33
ENDBRANCH  31  32
ENDBRANCH  30  31
ENDBRANCH  29  30
ENDBRANCH  28  29
ENDBRANCH  27  28
ENDBRANCH   1  27
TORSDOF 12
