REMARK  3 active torsions:
REMARK  status: ('A' for Active; 'I' for Inactive)
REMARK       I    between atoms: C_2  and  N_3 
REMARK    1  A    between atoms: C_15  and  C_2 
REMARK    2  A    between atoms: N_3  and  N_4 
REMARK    3  A    between atoms: C_5  and  C_6 
ROOT
ATOM      1  N   UNL d   1      -0.719   0.143  -2.064  0.00  0.00    -0.184 NA
ATOM      2  C   UNL d   1      -1.827   0.171  -1.388  0.00  0.00     0.152 C 
ENDROOT
BRANCH   1   3
ATOM      3  N   UNL d   1       0.479   0.092  -1.369  0.00  0.00    -0.247 N 
ATOM      4  C   UNL d   1       1.697   0.131  -2.064  0.00  0.00     0.242 C 
ATOM      5  O   UNL d   1       1.764   0.206  -3.288  0.00  0.00    -0.271 OA
ATOM      6  H   UNL d   1       0.461   0.020  -0.360  0.00  0.00     0.192 HD
BRANCH   4   7
ATOM      7  C   UNL d   1       2.934   0.067  -1.191  0.00  0.00     0.088 A 
ATOM      8  C   UNL d   1       4.274   0.755  -1.450  0.00  0.00     0.004 A 
ATOM      9  C   UNL d   1       4.715   1.502  -2.671  0.00  0.00     0.006 C 
ATOM     10  C   UNL d   1       4.202  -0.750  -1.481  0.00  0.00     0.004 A 
ATOM     11  C   UNL d   1       4.637   0.712  -3.967  0.00  0.00     0.000 C 
ATOM     12  C   UNL d   1       5.205  -0.690  -3.811  0.00  0.00     0.000 C 
ATOM     13  C   UNL d   1       4.449  -1.498  -2.758  0.00  0.00     0.006 C 
ENDBRANCH   4   7
ENDBRANCH   1   3
BRANCH   2  14
ATOM     14  C   UNL d   1      -3.101   0.231  -2.100  0.00  0.00     0.011 A 
ATOM     15  C   UNL d   1      -4.215   0.971  -1.735  0.00  0.00     0.102 A 
ATOM     16  N   UNL d   1      -5.192   0.791  -2.691  0.00  0.00    -0.364 N 
ATOM     17  C   UNL d   1      -4.783  -0.139  -3.618  0.00  0.00     0.043 A 
ATOM     18  H   UNL d   1      -6.095   1.248  -2.701  0.00  0.00     0.165 HD
ATOM     19  C   UNL d   1      -5.453  -0.693  -4.720  0.00  0.00     0.030 A 
ATOM     20  C   UNL d   1      -3.477  -0.496  -3.275  0.00  0.00     0.004 A 
ATOM     21  C   UNL d   1      -4.777  -1.668  -5.464  0.00  0.00     0.002 A 
ATOM     22  C   UNL d   1      -3.478  -2.049  -5.137  0.00  0.00     0.001 A 
ATOM     23  C   UNL d   1      -2.817  -1.462  -4.057  0.00  0.00     0.014 A 
ENDBRANCH   2  14
TORSDOF 3
