REMARK  13 active torsions:
REMARK  status: ('A' for Active; 'I' for Inactive)
REMARK    1  A    between atoms: C_2  and  C_3 
REMARK    2  A    between atoms: C_3  and  N_4 
REMARK       I    between atoms: N_4  and  C_5 
REMARK    3  A    between atoms: C_17  and  N_4 
REMARK    4  A    between atoms: C_5  and  C_7 
REMARK    5  A    between atoms: C_7  and  C_8 
REMARK    6  A    between atoms: C_17  and  C_29 
REMARK    7  A    between atoms: C_17  and  C_18 
REMARK       I    between atoms: C_18  and  N_20 
REMARK    8  A    between atoms: N_20  and  C_21 
REMARK    9  A    between atoms: C_21  and  C_24 
REMARK   10  A    between atoms: C_24  and  C_25 
REMARK   11  A    between atoms: C_30  and  O_31 
REMARK   12  A    between atoms: C_33  and  O_34 
REMARK   13  A    between atoms: C_36  and  O_37 
ROOT
ATOM      1  C   UNL d   1       5.484  -1.654   2.191  0.00  0.00     0.218 C 
ENDROOT
BRANCH   1   2
ATOM      2  C   UNL d   1       6.974  -1.457   1.967  0.00  0.00     0.040 C 
ATOM      3  C   UNL d   1       7.891  -2.491   1.849  0.00  0.00     0.080 C 
ATOM      4  C   UNL d   1       9.226  -2.310   1.543  0.00  0.00     0.073 C 
ATOM      5  C   UNL d   1       9.712  -1.027   1.425  0.00  0.00     0.071 C 
ATOM      6  C   UNL d   1       8.882   0.061   1.623  0.00  0.00     0.073 C 
ATOM      7  C   UNL d   1       7.538  -0.158   1.925  0.00  0.00     0.080 C 
BRANCH   3   8
ATOM      8  O   UNL d   1       7.595  -3.753   2.223  0.00  0.00    -0.360 OA
ATOM      9  H   UNL d   1       6.862  -3.607   2.849  0.00  0.00     0.217 HD
ENDBRANCH   3   8
BRANCH   5  10
ATOM     10  O   UNL d   1      11.031  -0.811   1.184  0.00  0.00    -0.361 OA
ATOM     11  H   UNL d   1      11.457  -1.683   1.115  0.00  0.00     0.217 HD
ENDBRANCH   5  10
BRANCH   7  12
ATOM     12  O   UNL d   1       6.791   0.943   2.267  0.00  0.00    -0.360 OA
ATOM     13  H   UNL d   1       7.291   1.750   2.041  0.00  0.00     0.217 HD
ENDBRANCH   7  12
ENDBRANCH   1   2
BRANCH   1  14
ATOM     14  C   UNL d   1       4.665  -0.922   1.085  0.00  0.00     0.246 C 
ATOM     15  O   UNL d   1       4.097  -1.573   0.213  0.00  0.00    -0.271 OA
ATOM     16  N   UNL d   1       4.604   0.474   1.162  0.00  0.00    -0.351 N 
ATOM     17  H   UNL d   1       5.124   0.934   1.905  0.00  0.00     0.163 HD
BRANCH  16  18
ATOM     18  C   UNL d   1       4.015   1.261   0.075  0.00  0.00     0.026 C 
ATOM     19  C   UNL d   1       4.728   0.803  -1.209  0.00  0.00     0.038 C 
ATOM     20  C   UNL d   1       2.522   0.916   0.096  0.00  0.00     0.038 C 
BRANCH  18  21
ATOM     21  C   UNL d   1       4.236   2.821   0.276  0.00  0.00     0.038 C 
BRANCH  21  22
ATOM     22  C   UNL d   1       3.656   3.812  -0.815  0.00  0.00    -0.049 C 
ATOM     23  C   UNL d   1       4.277   3.609  -2.207  0.00  0.00     0.014 C 
ATOM     24  C   UNL d   1       2.126   3.741  -0.925  0.00  0.00     0.014 C 
ATOM     25  C   UNL d   1       3.974   5.274  -0.440  0.00  0.00     0.014 C 
ENDBRANCH  21  22
ENDBRANCH  18  21
ENDBRANCH  16  18
ENDBRANCH   1  14
BRANCH   1  26
ATOM     26  N   UNL d   1       4.752  -3.010   2.333  0.00  0.00    -0.334 N 
ATOM     27  C   UNL d   1       3.451  -2.704   2.787  0.00  0.00     0.225 C 
ATOM     28  O   UNL d   1       3.195  -1.599   3.306  0.00  0.00    -0.273 OA
BRANCH  26  29
ATOM     29  C   UNL d   1       5.114  -4.335   1.634  0.00  0.00     0.127 C 
BRANCH  29  30
ATOM     30  C   UNL d   1       4.095  -5.471   1.549  0.00  0.00     0.015 C 
ATOM     31  C   UNL d   1       4.561  -6.841   1.129  0.00  0.00     0.006 C 
ENDBRANCH  29  30
ENDBRANCH  26  29
BRANCH  27  32
ATOM     32  C   UNL d   1       2.356  -3.687   2.588  0.00  0.00     0.141 C 
BRANCH  32  33
ATOM     33  C   UNL d   1       1.019  -3.205   2.987  0.00  0.00    -0.047 A 
ATOM     34  C   UNL d   1       0.424  -2.152   2.268  0.00  0.00     0.010 A 
ATOM     35  C   UNL d   1      -0.829  -1.706   2.636  0.00  0.00     0.040 A 
ATOM     36  C   UNL d   1      -1.427  -2.345   3.702  0.00  0.00     0.105 A 
ATOM     37  C   UNL d   1      -0.827  -3.378   4.391  0.00  0.00     0.105 A 
ATOM     38  O   UNL d   1      -2.653  -2.059   4.208  0.00  0.00    -0.323 OA
ATOM     39  C   UNL d   1       0.403  -3.840   4.060  0.00  0.00     0.047 A 
ATOM     40  O   UNL d   1      -1.577  -3.864   5.405  0.00  0.00    -0.323 OA
ATOM     41  C   UNL d   1      -2.691  -2.962   5.333  0.00  0.00     0.352 A 
ENDBRANCH  32  33
ENDBRANCH  27  32
ENDBRANCH   1  26
TORSDOF 13
