@<TRIPOS>MOLECULE
*****
 44 46 0 0 0
SMALL
GASTEIGER

@<TRIPOS>ATOM
      1 O           1.1004    0.0254    0.0306 O.2     1  UNL1       -0.2749
      2 C           2.3285    0.0163   -0.1069 C.2     1  UNL1        0.2236
      3 C           3.0540   -0.0440   -1.4644 C.3     1  UNL1        0.0777
      4 S           1.8721   -0.1409   -2.8465 S.3     1  UNL1       -0.0750
      5 C           2.8868   -0.1324   -4.2680 C.ar    1  UNL1        0.2105
      6 N           3.1994   -1.2568   -4.9223 N.ar    1  UNL1       -0.1443
      7 N           3.7950   -0.7640   -6.0297 N.ar    1  UNL1       -0.2446
      8 C           3.8550    0.6072   -6.0100 C.ar    1  UNL1        0.2317
      9 N           4.4435    1.3376   -7.0026 N.pl3   1  UNL1       -0.2054
     10 N           4.4834    2.7061   -6.9125 N.2     1  UNL1       -0.1875
     11 C           4.9925    3.3808   -7.8946 C.2     1  UNL1        0.0542
     12 C           5.0081    4.8695   -7.8533 C.ar    1  UNL1        0.0143
     13 C           5.2840    5.5038   -6.6314 C.ar    1  UNL1       -0.0516
     14 C           5.2812    6.8984   -6.5388 C.ar    1  UNL1       -0.0597
     15 C           5.0058    7.6700   -7.6658 C.ar    1  UNL1       -0.0419
     16 C           4.7423    7.0476   -8.8910 C.ar    1  UNL1        0.0599
     17 CL          4.4306    8.0832  -10.2440 Cl      1  UNL1       -0.0820
     18 C           4.7400    5.6430   -8.9948 C.ar    1  UNL1        0.0679
     19 CL          4.3621    4.8769  -10.5048 Cl      1  UNL1       -0.0814
     20 N           3.2724    1.0172   -4.9001 N.ar    1  UNL1       -0.1865
     21 N           3.0807    0.0647    1.0424 N.am    1  UNL1       -0.3105
     22 C           4.5212    0.0678    1.1434 C.3     1  UNL1        0.0369
     23 C           5.0029    0.1279    2.5733 C.ar    1  UNL1       -0.0289
     24 C           5.2141    1.3608    3.2073 C.ar    1  UNL1       -0.0556
     25 C           5.6465    1.4154    4.5375 C.ar    1  UNL1       -0.0417
     26 C           5.8723    0.2380    5.2553 C.ar    1  UNL1        0.0593
     27 CL          6.3669    0.3798    6.9049 Cl      1  UNL1       -0.0820
     28 C           5.6825   -0.9982    4.6307 C.ar    1  UNL1        0.0596
     29 CL          5.9788   -2.4971    5.4392 Cl      1  UNL1       -0.0820
     30 C           5.2429   -1.0500    3.3000 C.ar    1  UNL1       -0.0373
     31 H           3.6900   -0.9344   -1.4727 H       1  UNL1        0.0475
     32 H           3.6736    0.8525   -1.5634 H       1  UNL1        0.0475
     33 H           4.1332   -1.4114   -6.7311 H       1  UNL1        0.1919
     34 H           4.8510    0.8834   -7.8187 H       1  UNL1        0.1774
     35 H           5.4175    2.8954   -8.7914 H       1  UNL1        0.0852
     36 H           5.5057    4.9118   -5.7447 H       1  UNL1        0.0624
     37 H           5.4883    7.3845   -5.5871 H       1  UNL1        0.0618
     38 H           4.9951    8.7561   -7.5835 H       1  UNL1        0.0633
     39 H           2.5268    0.1035    1.8927 H       1  UNL1        0.1490
     40 H           4.9001    0.9267    0.5801 H       1  UNL1        0.0512
     41 H           4.8989   -0.8352    0.6534 H       1  UNL1        0.0512
     42 H           5.0459    2.2927    2.6695 H       1  UNL1        0.0621
     43 H           5.8025    2.3828    5.0109 H       1  UNL1        0.0633
     44 H           5.0920   -2.0189    2.8270 H       1  UNL1        0.0636
@<TRIPOS>BOND
     1     1     2    2
     2     2     3    1
     3     3     4    1
     4     4     5    1
     5     5     6   ar
     6     6     7   ar
     7     7     8   ar
     8     8     9    1
     9     9    10    1
    10    10    11    2
    11    11    12    1
    12    12    13   ar
    13    13    14   ar
    14    14    15   ar
    15    15    16   ar
    16    16    17    1
    17    16    18   ar
    18    12    18   ar
    19    18    19    1
    20     8    20   ar
    21     5    20   ar
    22     2    21   am
    23    21    22    1
    24    22    23    1
    25    23    24   ar
    26    24    25   ar
    27    25    26   ar
    28    26    27    1
    29    26    28   ar
    30    28    29    1
    31    28    30   ar
    32    23    30   ar
    33     3    31    1
    34     3    32    1
    35     7    33    1
    36     9    34    1
    37    11    35    1
    38    13    36    1
    39    14    37    1
    40    15    38    1
    41    21    39    1
    42    22    40    1
    43    22    41    1
    44    24    42    1
    45    25    43    1
    46    30    44    1
