REMARK  7 active torsions:
REMARK  status: ('A' for Active; 'I' for Inactive)
REMARK    1  A    between atoms: O_1  and  C_2 
REMARK    2  A    between atoms: C_2  and  C_3 
REMARK    3  A    between atoms: C_3  and  O_4 
REMARK    4  A    between atoms: N_8  and  C_9 
REMARK    5  A    between atoms: N_13  and  C_14 
REMARK    6  A    between atoms: C_17  and  O_18 
REMARK    7  A    between atoms: O_18  and  C_19 
ROOT
ATOM      1  C   UNL d   1       1.961  -3.699  -4.825  0.00  0.00     0.737 A 
ATOM      2  N   UNL d   1       0.949  -4.511  -5.096  0.00  0.00     0.030 NA
ATOM      3  N   UNL d   1       1.038  -4.832  -6.429  0.00  0.00     0.033 NA
ATOM      4  N   UNL d   1       2.084  -4.251  -6.997  0.00  0.00     0.016 NA
ATOM      5  N   UNL d   1       2.712  -3.592  -5.999  0.00  0.00    -0.070 N 
ENDROOT
BRANCH   5   6
ATOM      6  C   UNL d   1       4.026  -3.124  -6.166  0.00  0.00     0.072 A 
ATOM      7  C   UNL d   1       4.354  -2.332  -7.269  0.00  0.00     0.034 A 
ATOM      8  C   UNL d   1       5.659  -1.843  -7.386  0.00  0.00     0.039 A 
ATOM      9  C   UNL d   1       6.616  -2.129  -6.401  0.00  0.00     0.076 A 
ATOM     10  C   UNL d   1       6.273  -2.957  -5.328  0.00  0.00     0.039 A 
ATOM     11  C   UNL d   1       4.987  -3.466  -5.216  0.00  0.00     0.034 A 
BRANCH   9  12
ATOM     12  O   UNL d   1       7.838  -1.502  -6.547  0.00  0.00    -0.311 OA
BRANCH  12  13
ATOM     13  C   UNL d   1       8.845  -1.777  -5.649  0.00  0.00     0.076 A 
ATOM     14  C   UNL d   1       9.419  -0.711  -4.954  0.00  0.00     0.037 A 
ATOM     15  C   UNL d   1      10.507  -0.941  -4.108  0.00  0.00     0.003 A 
ATOM     16  C   UNL d   1      10.981  -2.240  -3.915  0.00  0.00     0.000 A 
ATOM     17  C   UNL d   1      10.398  -3.305  -4.600  0.00  0.00     0.003 A 
ATOM     18  C   UNL d   1       9.358  -3.068  -5.497  0.00  0.00     0.037 A 
ENDBRANCH  12  13
ENDBRANCH   9  12
ENDBRANCH   5   6
BRANCH   1  19
ATOM     19  N   UNL d   1       2.274  -3.088  -3.637  0.00  0.00    -0.213 N 
ATOM     20  C   UNL d   1       2.184  -3.862  -2.405  0.00  0.00     0.141 C 
ATOM     21  C   UNL d   1       3.331  -3.523  -1.439  0.00  0.00     0.023 C 
ATOM     22  C   UNL d   1       2.953  -2.400  -0.468  0.00  0.00     0.042 C 
ATOM     23  C   UNL d   1       2.955  -0.996  -1.098  0.00  0.00     0.080 C 
ATOM     24  C   UNL d   1       2.070  -0.937  -2.365  0.00  0.00     0.060 C 
ATOM     25  C   UNL d   1       2.654  -1.668  -3.582  0.00  0.00     0.144 C 
BRANCH  23  26
ATOM     26  C   UNL d   1       2.462   0.036  -0.052  0.00  0.00     0.201 C 
BRANCH  26  27
ATOM     27  O   UNL d   1       1.048  -0.003   0.086  0.00  0.00    -0.398 OA
ATOM     28  H   UNL d   1       0.789   0.746   0.649  0.00  0.00     0.209 HD
ENDBRANCH  26  27
ENDBRANCH  23  26
BRANCH  23  29
ATOM     29  O   UNL d   1       4.304  -0.645  -1.448  0.00  0.00    -0.388 OA
ATOM     30  H   UNL d   1       4.886  -0.859  -0.697  0.00  0.00     0.210 HD
ENDBRANCH  23  29
ENDBRANCH   1  19
TORSDOF 7
