@<TRIPOS>MOLECULE
*****
 65 67 0 0 0
SMALL
GASTEIGER

@<TRIPOS>ATOM
      1 C           0.9919    0.1126    0.4313 C.3     1  UNL1       -0.0245
      2 C           2.4754    0.0873    0.1649 C.3     1  UNL1       -0.0343
      3 N           2.8965   -1.1119   -0.6839 N.4     1  UNL1        0.2424
      4 C           2.3536   -1.1023   -2.1385 C.3     1  UNL1        0.0275
      5 C           0.8641   -1.1229   -2.2915 C.ar    1  UNL1        0.1564
      6 N           0.2531   -0.0158   -2.5576 N.ar    1  UNL1       -0.2211
      7 C          -1.0850   -0.0771   -2.3629 C.ar    1  UNL1        0.1166
      8 S          -1.9784    1.3389   -2.1484 S.2     1  UNL1       -0.0617
      9 C          -3.4541    0.4655   -2.0170 C.ar    1  UNL1        0.1018
     10 C          -4.6546    1.2846   -1.9336 C.2     1  UNL1        0.3465
     11 O          -4.6711    2.4988   -1.8341 O.2     1  UNL1       -0.2444
     12 O          -5.7713    0.5049   -2.0081 O.3     1  UNL1       -0.4581
     13 C          -7.0363    1.1871   -1.9981 C.3     1  UNL1        0.0978
     14 C          -7.1934    2.0295   -3.2590 C.3     1  UNL1       -0.0280
     15 C          -8.1453    0.1351   -1.9630 C.3     1  UNL1       -0.0280
     16 C          -3.2401   -0.9122   -2.0326 C.ar    1  UNL1       -0.0149
     17 C          -4.2731   -1.9911   -1.9872 C.3     1  UNL1       -0.0376
     18 C          -1.8354   -1.2032   -2.1288 C.ar    1  UNL1        0.0756
     19 C          -1.1269   -2.4683   -2.0536 C.ar    1  UNL1        0.2602
     20 O          -1.6450   -3.5690   -1.9848 O.2     1  UNL1       -0.2671
     21 N           0.2445   -2.3246   -2.0304 N.ar    1  UNL1       -0.3061
     22 C           4.4312   -1.1770   -0.6978 C.3     1  UNL1       -0.0016
     23 C           4.9545   -2.4008   -1.4810 C.3     1  UNL1        0.1285
     24 O           4.5633   -2.3643   -2.8512 O.3     1  UNL1       -0.3831
     25 C           6.4675   -2.4269   -1.4381 C.3     1  UNL1        0.1204
     26 O           6.9348   -3.6119   -2.0845 O.3     1  UNL1       -0.4889
     27 C           8.3009   -3.7024   -2.1688 C.ar    1  UNL1        0.1235
     28 C           8.8264   -3.9928   -3.4324 C.ar    1  UNL1       -0.0197
     29 C          10.2069   -3.9565   -3.6357 C.ar    1  UNL1       -0.0583
     30 C          11.0631   -3.9120   -2.5421 C.ar    1  UNL1       -0.0613
     31 C          10.5389   -3.7737   -1.2631 C.ar    1  UNL1       -0.0554
     32 C           9.1665   -3.5748   -1.0720 C.ar    1  UNL1       -0.0088
     33 C           8.7146   -3.2037    0.3038 C.3     1  UNL1       -0.0362
     34 H           0.6971    0.9301    1.0900 H       1  UNL1        0.0281
     35 H           0.6049   -0.8413    0.7987 H       1  UNL1        0.0281
     36 H           0.4765    0.3651   -0.4704 H       1  UNL1        0.0281
     37 H           2.9976    0.0030    1.1248 H       1  UNL1        0.0812
     38 H           2.8136    0.9871   -0.3578 H       1  UNL1        0.0812
     39 H           2.5561   -1.9626   -0.2164 H       1  UNL1        0.2039
     40 H           2.6250   -2.0477   -2.5883 H       1  UNL1        0.0897
     41 H           2.8048   -0.2409   -2.6392 H       1  UNL1        0.0897
     42 H          -7.1014    1.7987   -1.0908 H       1  UNL1        0.0728
     43 H          -7.1010    1.4017   -4.1519 H       1  UNL1        0.0265
     44 H          -6.4176    2.7939   -3.3429 H       1  UNL1        0.0265
     45 H          -8.1599    2.5378   -3.2692 H       1  UNL1        0.0265
     46 H          -8.0933   -0.5237   -2.8383 H       1  UNL1        0.0265
     47 H          -9.1308    0.6125   -1.9516 H       1  UNL1        0.0265
     48 H          -8.0600   -0.5076   -1.0808 H       1  UNL1        0.0265
     49 H          -5.2940   -1.6207   -1.9856 H       1  UNL1        0.0278
     50 H          -4.1532   -2.6103   -1.0943 H       1  UNL1        0.0278
     51 H          -4.1744   -2.6177   -2.8796 H       1  UNL1        0.0278
     52 H           0.7475   -3.2035   -2.0214 H       1  UNL1        0.1702
     53 H           4.7586   -1.2076    0.3505 H       1  UNL1        0.0841
     54 H           4.7754   -0.2403   -1.1521 H       1  UNL1        0.0841
     55 H           4.5535   -3.3178   -1.0300 H       1  UNL1        0.0681
     56 H           5.0134   -1.6266   -3.3006 H       1  UNL1        0.2102
     57 H           6.6700   -2.4317   -0.3764 H       1  UNL1        0.0725
     58 H           6.8870   -1.5339   -1.9195 H       1  UNL1        0.0725
     59 H           8.1753   -4.2299   -4.2705 H       1  UNL1        0.0654
     60 H          10.6181   -3.9767   -4.6417 H       1  UNL1        0.0619
     61 H          12.1383   -3.9923   -2.6777 H       1  UNL1        0.0618
     62 H          11.2103   -3.7910   -0.4079 H       1  UNL1        0.0621
     63 H           9.5152   -3.2463    1.0416 H       1  UNL1        0.0279
     64 H           7.9057   -3.8658    0.6285 H       1  UNL1        0.0279
     65 H           8.4018   -2.1530    0.2975 H       1  UNL1        0.0279
@<TRIPOS>UNITY_ATOM_ATTR
3 1
charge 1
@<TRIPOS>BOND
     1     1     2    1
     2     2     3    1
     3     3     4    1
     4     4     5    1
     5     5     6   ar
     6     6     7   ar
     7     7     8   ar
     8     8     9   ar
     9     9    10    1
    10    10    11    2
    11    10    12    1
    12    12    13    1
    13    13    14    1
    14    13    15    1
    15     9    16   ar
    16    16    17    1
    17    16    18   ar
    18     7    18   ar
    19    18    19   ar
    20    19    20    2
    21    19    21   ar
    22     5    21   ar
    23     3    22    1
    24    22    23    1
    25    23    24    1
    26    23    25    1
    27    25    26    1
    28    26    27    1
    29    27    28   ar
    30    28    29   ar
    31    29    30   ar
    32    30    31   ar
    33    31    32   ar
    34    27    32   ar
    35    32    33    1
    36     1    34    1
    37     1    35    1
    38     1    36    1
    39     2    37    1
    40     2    38    1
    41     3    39    1
    42     4    40    1
    43     4    41    1
    44    13    42    1
    45    14    43    1
    46    14    44    1
    47    14    45    1
    48    15    46    1
    49    15    47    1
    50    15    48    1
    51    17    49    1
    52    17    50    1
    53    17    51    1
    54    21    52    1
    55    22    53    1
    56    22    54    1
    57    23    55    1
    58    24    56    1
    59    25    57    1
    60    25    58    1
    61    28    59    1
    62    29    60    1
    63    30    61    1
    64    31    62    1
    65    33    63    1
    66    33    64    1
    67    33    65    1
