REMARK  4 active torsions:
REMARK  status: ('A' for Active; 'I' for Inactive)
REMARK    1  A    between atoms: N_2  and  C_3 
REMARK    2  A    between atoms: C_8  and  C_9 
REMARK       I    between atoms: C_9  and  N_11 
REMARK    3  A    between atoms: N_11  and  C_12 
REMARK    4  A    between atoms: C_16  and  C_17 
ROOT
ATOM      1  C   UNL d   1       1.508   1.137   2.664  0.00  0.00     0.258 C 
ATOM      2  O   UNL d   1       1.092   1.836   3.572  0.00  0.00    -0.267 OA
ATOM      3  N   UNL d   1       0.924  -0.064   2.282  0.00  0.00    -0.323 N 
ATOM      4  H   UNL d   1       1.478  -0.652   1.663  0.00  0.00     0.169 HD
ENDROOT
BRANCH   3   5
ATOM      5  C   UNL d   1      -0.454  -0.358   2.404  0.00  0.00     0.035 C 
ATOM      6  C   UNL d   1      -0.914  -1.633   2.061  0.00  0.00     0.029 C 
ATOM      7  C   UNL d   1      -2.258  -1.968   2.248  0.00  0.00     0.003 C 
ATOM      8  C   UNL d   1      -3.141  -1.033   2.785  0.00  0.00     0.016 C 
ATOM      9  C   UNL d   1      -2.725   0.287   2.990  0.00  0.00     0.050 C 
ATOM     10  C   UNL d   1      -1.386   0.618   2.761  0.00  0.00     0.045 C 
BRANCH   9  11
ATOM     11  C   UNL d   1      -3.692   1.329   3.482  0.00  0.00     0.417 C 
ATOM     12  F   UNL d   1      -4.795   1.426   2.687  0.00  0.00    -0.166 F 
ATOM     13  F   UNL d   1      -4.155   1.052   4.731  0.00  0.00    -0.166 F 
ATOM     14  F   UNL d   1      -3.171   2.585   3.541  0.00  0.00    -0.166 F 
ENDBRANCH   9  11
ENDBRANCH   3   5
BRANCH   1  15
ATOM     15  C   UNL d   1       2.735   1.573   1.918  0.00  0.00     0.058 A 
ATOM     16  C   UNL d   1       3.534   2.523   2.592  0.00  0.00     0.019 A 
ATOM     17  C   UNL d   1       4.736   2.980   2.058  0.00  0.00     0.001 A 
ATOM     18  C   UNL d   1       5.149   2.502   0.823  0.00  0.00     0.002 A 
ATOM     19  C   UNL d   1       4.333   1.606   0.110  0.00  0.00     0.030 A 
ATOM     20  C   UNL d   1       3.132   1.085   0.656  0.00  0.00     0.043 A 
BRANCH  20  21
ATOM     21  N   UNL d   1       2.434   0.092  -0.039  0.00  0.00    -0.393 N 
ATOM     22  C   UNL d   1       1.068   0.262  -0.534  0.00  0.00     0.146 C 
ATOM     23  H   UNL d   1       3.021  -0.546  -0.571  0.00  0.00     0.159 HD
ENDBRANCH  20  21
ENDBRANCH   1  15
TORSDOF 4
