@<TRIPOS>MOLECULE
*****
 42 43 0 0 0
SMALL
GASTEIGER

@<TRIPOS>ATOM
      1 C           1.1105    0.0202   -0.0890 C.3     1  UNL1       -0.0612
      2 C           2.6476   -0.0057   -0.0860 C.3     1  UNL1       -0.0311
      3 C           3.1173   -0.9967    0.9792 C.3     1  UNL1       -0.0612
      4 C           3.2046   -0.3751   -1.4792 C.3     1  UNL1        0.0154
      5 N           4.6692   -0.3780   -1.5708 N.am    1  UNL1       -0.2980
      6 C           5.3222   -0.7183   -2.7391 C.2     1  UNL1        0.3160
      7 O           4.7360   -1.0182   -3.7746 O.2     1  UNL1       -0.2513
      8 N           6.7069   -0.6879   -2.6538 N.am    1  UNL1       -0.2180
      9 N           7.4776   -1.0111   -3.8063 N.am    1  UNL1       -0.2291
     10 C           8.8667   -1.0920   -3.7125 C.2     1  UNL1        0.2616
     11 O           9.4989   -0.8399   -2.6994 O.2     1  UNL1       -0.2686
     12 C           9.5898   -1.4782   -4.9502 C.ar    1  UNL1        0.0563
     13 C           9.2781   -0.8604   -6.1358 C.ar    1  UNL1       -0.0449
     14 C          10.0847   -1.1111   -7.2319 C.ar    1  UNL1       -0.0212
     15 C          11.0828   -2.0773   -7.2453 C.ar    1  UNL1        0.1189
     16 N          11.7562   -2.4229   -8.4317 N.pl3   1  UNL1       -0.3262
     17 C          11.4793   -1.9323   -9.7957 C.3     1  UNL1        0.0221
     18 C          10.2316   -1.2232  -10.2607 C.3     1  UNL1       -0.0329
     19 C          11.5146   -0.4486  -10.0625 C.3     1  UNL1       -0.0329
     20 N          11.4076   -2.6848   -6.0870 N.ar    1  UNL1       -0.2398
     21 C          10.6928   -2.3319   -4.9614 C.ar    1  UNL1        0.0418
     22 H           0.7212    0.3005    0.8981 H       1  UNL1        0.0233
     23 H           0.6954   -0.9637   -0.3362 H       1  UNL1        0.0233
     24 H           0.7222    0.7437   -0.8130 H       1  UNL1        0.0233
     25 H           3.0016    0.9963    0.1885 H       1  UNL1        0.0311
     26 H           2.7641   -2.0083    0.7521 H       1  UNL1        0.0233
     27 H           2.7352   -0.7195    1.9679 H       1  UNL1        0.0233
     28 H           4.2082   -1.0224    1.0433 H       1  UNL1        0.0233
     29 H           2.8296    0.3361   -2.2254 H       1  UNL1        0.0465
     30 H           2.8454   -1.3686   -1.7738 H       1  UNL1        0.0465
     31 H           5.2112   -0.1458   -0.7526 H       1  UNL1        0.1503
     32 H           7.2267   -0.4707   -1.8105 H       1  UNL1        0.1744
     33 H           6.9448   -1.2833   -4.6311 H       1  UNL1        0.1732
     34 H           8.4933   -0.1199   -6.2397 H       1  UNL1        0.0627
     35 H           9.9273   -0.4453   -8.0551 H       1  UNL1        0.0652
     36 H          12.4969   -3.1011   -8.2657 H       1  UNL1        0.1477
     37 H          11.9134   -2.5892  -10.5482 H       1  UNL1        0.0498
     38 H           9.3663   -1.1720   -9.6163 H       1  UNL1        0.0284
     39 H           9.8623   -1.3424  -11.2717 H       1  UNL1        0.0284
     40 H          11.7035    0.1776   -9.1953 H       1  UNL1        0.0284
     41 H          12.0092   -0.0699  -10.9483 H       1  UNL1        0.0284
     42 H          11.0608   -2.7751   -4.0401 H       1  UNL1        0.0838
@<TRIPOS>BOND
     1     1     2    1
     2     2     3    1
     3     2     4    1
     4     4     5    1
     5     5     6   am
     6     6     7    2
     7     6     8   am
     8     8     9    1
     9     9    10   am
    10    10    11    2
    11    10    12    1
    12    12    13   ar
    13    13    14   ar
    14    14    15   ar
    15    15    16    1
    16    16    17    1
    17    17    18    1
    18    18    19    1
    19    17    19    1
    20    15    20   ar
    21    20    21   ar
    22    12    21   ar
    23     1    22    1
    24     1    23    1
    25     1    24    1
    26     2    25    1
    27     3    26    1
    28     3    27    1
    29     3    28    1
    30     4    29    1
    31     4    30    1
    32     5    31    1
    33     8    32    1
    34     9    33    1
    35    13    34    1
    36    14    35    1
    37    16    36    1
    38    17    37    1
    39    18    38    1
    40    18    39    1
    41    19    40    1
    42    19    41    1
    43    21    42    1
