REMARK  5 active torsions:
REMARK  status: ('A' for Active; 'I' for Inactive)
REMARK    1  A    between atoms: C_8  and  C_9 
REMARK       I    between atoms: C_9  and  N_11 
REMARK    2  A    between atoms: N_11  and  C_12 
REMARK    3  A    between atoms: C_14  and  S_15 
REMARK    4  A    between atoms: S_15  and  N_18 
REMARK    5  A    between atoms: C_25  and  O_26 
ROOT
ATOM      1  C   UNL d   1       4.455  -1.378  -0.084  0.00  0.00     0.274 C 
ATOM      2  O   UNL d   1       5.485  -0.706  -0.153  0.00  0.00    -0.266 OA
ATOM      3  N   UNL d   1       4.398  -2.774  -0.157  0.00  0.00    -0.319 N 
ATOM      4  H   UNL d   1       3.509  -3.206  -0.373  0.00  0.00     0.169 HD
ENDROOT
BRANCH   3   5
ATOM      5  C   UNL d   1       5.574  -3.562  -0.163  0.00  0.00     0.070 C 
ATOM      6  C   UNL d   1       5.714  -4.642  -1.069  0.00  0.00     0.057 C 
ATOM      7  C   UNL d   1       6.956  -5.281  -1.181  0.00  0.00     0.082 C 
ATOM      8  C   UNL d   1       8.004  -4.798  -0.413  0.00  0.00     0.028 C 
ATOM      9  C   UNL d   1       7.839  -3.882   0.612  0.00  0.00     0.040 C 
ATOM     10  C   UNL d   1       6.621  -3.254   0.727  0.00  0.00     0.092 C 
BRANCH   7  11
ATOM     11  S   UNL d   1       7.228  -6.649  -2.321  0.00  0.00     0.260 S 
ATOM     12  O   UNL d   1       6.281  -7.686  -1.945  0.00  0.00    -0.200 OA
ATOM     13  O   UNL d   1       7.217  -6.074  -3.645  0.00  0.00    -0.200 OA
BRANCH  11  14
ATOM     14  N   UNL d   1       8.791  -7.289  -2.051  0.00  0.00    -0.307 N 
ATOM     15  C   UNL d   1       9.132  -8.021  -0.810  0.00  0.00     0.135 C 
ATOM     16  C   UNL d   1      10.116  -7.113  -0.090  0.00  0.00     0.022 C 
ATOM     17  C   UNL d   1      10.879  -6.440  -1.238  0.00  0.00     0.022 C 
ATOM     18  C   UNL d   1       9.984  -6.535  -2.486  0.00  0.00     0.135 C 
ENDBRANCH  11  14
ENDBRANCH   7  11
BRANCH  10  19
ATOM     19  O   UNL d   1       6.437  -2.361   1.748  0.00  0.00    -0.358 OA
ATOM     20  H   UNL d   1       7.302  -2.032   2.041  0.00  0.00     0.217 HD
ENDBRANCH  10  19
ENDBRANCH   3   5
BRANCH   1  21
ATOM     21  C   UNL d   1       3.155  -0.638  -0.014  0.00  0.00     0.127 A 
ATOM     22  C   UNL d   1       3.176   0.753   0.052  0.00  0.00     0.038 A 
ATOM     23  C   UNL d   1       1.970   1.443   0.051  0.00  0.00     0.023 A 
ATOM     24  C   UNL d   1       0.779   0.719   0.003  0.00  0.00     0.079 A 
ATOM     25  C   UNL d   1      -0.519   1.404  -0.008  0.00  0.00     0.265 A 
ATOM     26  C   UNL d   1       0.831  -0.666  -0.027  0.00  0.00     0.150 A 
ATOM     27  N   UNL d   1      -1.645   0.599  -0.014  0.00  0.00    -0.270 N 
ATOM     28  O   UNL d   1      -0.542   2.633  -0.009  0.00  0.00    -0.267 OA
ATOM     29  C   UNL d   1      -2.952   1.237  -0.006  0.00  0.00     0.164 C 
ATOM     30  C   UNL d   1      -1.619  -0.791   0.001  0.00  0.00     0.332 A 
ATOM     31  N   UNL d   1      -0.371  -1.394  -0.020  0.00  0.00    -0.287 N 
ATOM     32  O   UNL d   1      -2.656  -1.457   0.035  0.00  0.00    -0.246 OA
ATOM     33  C   UNL d   1      -0.308  -2.844   0.034  0.00  0.00     0.163 C 
ATOM     34  N   UNL d   1       2.006  -1.357  -0.051  0.00  0.00    -0.224 NA
ENDBRANCH   1  21
TORSDOF 5
