@<TRIPOS>MOLECULE
*****
 51 51 0 0 0
SMALL
GASTEIGER

@<TRIPOS>ATOM
      1 C           1.0239    0.0963    0.0123 C.1     1  UNL1       -0.1176
      2 C           2.3278    0.0963    0.0123 C.1     1  UNL1       -0.0866
      3 C           3.8478    0.0963    0.0123 C.3     1  UNL1        0.0732
      4 N           4.4088   -0.8906   -0.9342 N.am    1  UNL1       -0.3044
      5 C           5.7829   -1.0464   -1.0836 C.2     1  UNL1        0.2152
      6 O           6.5710   -0.3650   -0.4299 O.2     1  UNL1       -0.2757
      7 C           6.2742   -2.1071   -2.1010 C.3     1  UNL1        0.0396
      8 C           7.8277   -2.1815   -2.1718 C.3     1  UNL1        0.0213
      9 N           8.4075   -3.1698   -3.1169 N.am    1  UNL1       -0.2978
     10 C           9.7817   -3.3211   -3.2690 C.2     1  UNL1        0.3160
     11 O          10.6078   -2.6606   -2.6343 O.2     1  UNL1       -0.2513
     12 N          10.1758   -4.2790   -4.1994 N.am    1  UNL1       -0.2181
     13 N          11.5817   -4.4914   -4.4556 N.am    1  UNL1       -0.2301
     14 C          11.9997   -5.4697   -5.3695 C.2     1  UNL1        0.2696
     15 O          11.1712   -6.1248   -6.0072 O.2     1  UNL1       -0.2702
     16 C          13.5662   -5.6742   -5.5250 C.3     1  UNL1        0.1741
     17 C          14.1113   -5.9919   -4.1317 C.3     1  UNL1       -0.0190
     18 O          13.8559   -6.6838   -6.5358 O.3     1  UNL1       -0.4798
     19 C          15.1460   -7.0492   -6.8419 C.ar    1  UNL1        0.1218
     20 C          15.4873   -7.2892   -8.1794 C.ar    1  UNL1       -0.0165
     21 C          16.7589   -7.8129   -8.5227 C.ar    1  UNL1       -0.0165
     22 C          17.7373   -8.0167   -7.5456 C.ar    1  UNL1        0.1207
     23 O          18.9767   -8.4409   -7.9498 O.3     1  UNL1       -0.4922
     24 C          19.9713   -8.5113   -6.9155 C.3     1  UNL1        0.0868
     25 C          21.3078   -8.8835   -7.5239 C.3     1  UNL1       -0.0307
     26 C          17.3867   -7.8040   -6.2242 C.ar    1  UNL1       -0.0165
     27 C          16.0974   -7.3919   -5.8892 C.ar    1  UNL1       -0.0165
     28 H          -0.0419    0.0989    0.0148 H       1  UNL1        0.1228
     29 H           4.2241   -0.1456    1.0117 H       1  UNL1        0.0599
     30 H           4.2241    1.0848   -0.2711 H       1  UNL1        0.0599
     31 H           3.7651   -1.4531   -1.4742 H       1  UNL1        0.1496
     32 H           5.8731   -1.8571   -3.0898 H       1  UNL1        0.0374
     33 H           5.8728   -3.0846   -1.8102 H       1  UNL1        0.0374
     34 H           8.2282   -2.4152   -1.1777 H       1  UNL1        0.0467
     35 H           8.2284   -1.1984   -2.4483 H       1  UNL1        0.0467
     36 H           7.7897   -3.7422   -3.6724 H       1  UNL1        0.1503
     37 H           9.5374   -4.8525   -4.7422 H       1  UNL1        0.1744
     38 H          12.2131   -3.9300   -3.8857 H       1  UNL1        0.1729
     39 H          13.9823   -4.7249   -5.8847 H       1  UNL1        0.0829
     40 H          13.8384   -7.0119   -3.8358 H       1  UNL1        0.0270
     41 H          13.7641   -5.3010   -3.3635 H       1  UNL1        0.0270
     42 H          15.1961   -5.8802   -4.0912 H       1  UNL1        0.0270
     43 H          14.7675   -7.0992   -8.9733 H       1  UNL1        0.0655
     44 H          16.9754   -8.0753   -9.5569 H       1  UNL1        0.0655
     45 H          19.6979   -9.2810   -6.1827 H       1  UNL1        0.0694
     46 H          20.0771   -7.5406   -6.4127 H       1  UNL1        0.0694
     47 H          21.2328   -9.8352   -8.0574 H       1  UNL1        0.0262
     48 H          22.0741   -8.9722   -6.7469 H       1  UNL1        0.0262
     49 H          21.6253   -8.1251   -8.2455 H       1  UNL1        0.0262
     50 H          18.0668   -7.9950   -5.4022 H       1  UNL1        0.0655
     51 H          15.8831   -7.4399   -4.8366 H       1  UNL1        0.0655
@<TRIPOS>BOND
     1     1     2    3
     2     2     3    1
     3     3     4    1
     4     4     5   am
     5     5     6    2
     6     5     7    1
     7     7     8    1
     8     8     9    1
     9     9    10   am
    10    10    11    2
    11    10    12   am
    12    12    13    1
    13    13    14   am
    14    14    15    2
    15    14    16    1
    16    16    17    1
    17    16    18    1
    18    18    19    1
    19    19    20   ar
    20    20    21   ar
    21    21    22   ar
    22    22    23    1
    23    23    24    1
    24    24    25    1
    25    22    26   ar
    26    26    27   ar
    27    19    27   ar
    28     1    28    1
    29     3    29    1
    30     3    30    1
    31     4    31    1
    32     7    32    1
    33     7    33    1
    34     8    34    1
    35     8    35    1
    36     9    36    1
    37    12    37    1
    38    13    38    1
    39    16    39    1
    40    17    40    1
    41    17    41    1
    42    17    42    1
    43    20    43    1
    44    21    44    1
    45    24    45    1
    46    24    46    1
    47    25    47    1
    48    25    48    1
    49    25    49    1
    50    26    50    1
    51    27    51    1
