@<TRIPOS>MOLECULE
*****
 64 66 0 0 0
SMALL
GASTEIGER

@<TRIPOS>ATOM
      1 C           0.9686    0.0028    0.0227 C.3     1  UNL1       -0.0652
      2 C           2.4588   -0.2355    0.1061 C.3     1  UNL1       -0.0528
      3 C           2.8541   -0.5679    1.5683 C.3     1  UNL1       -0.0189
      4 C           4.3589   -0.7604    1.6629 C.3     1  UNL1        0.0897
      5 O           4.9774   -0.6654    2.9318 O.3     1  UNL1       -0.4901
      6 C           6.3631   -0.5104    2.9469 C.ar    1  UNL1        0.1412
      7 C           6.9441   -1.4746    3.8072 C.ar    1  UNL1       -0.0181
      8 C           8.2847   -1.4157    4.1902 C.ar    1  UNL1       -0.0582
      9 C           9.0997   -0.4339    3.6559 C.ar    1  UNL1       -0.0598
     10 C           8.5569    0.5108    2.7799 C.ar    1  UNL1       -0.0373
     11 C           7.1879    0.5264    2.3974 C.ar    1  UNL1        0.0698
     12 N           6.8372    1.6960    1.6814 N.pl3   1  UNL1       -0.3326
     13 C           5.5710    1.7900    1.0143 C.3     1  UNL1        0.0862
     14 C           5.2552    2.9026    0.0665 C.2     1  UNL1        0.2343
     15 O           6.1235    3.6031   -0.4213 O.2     1  UNL1       -0.2738
     16 N           3.8815    2.9307   -0.2593 N.am    1  UNL1       -0.2842
     17 C           3.3877    3.7817   -1.2521 C.ar    1  UNL1        0.0342
     18 C           2.1713    4.4222   -1.0618 C.ar    1  UNL1       -0.0391
     19 C           1.7837    5.3985   -1.9734 C.ar    1  UNL1       -0.0409
     20 C           2.6044    5.7285   -3.0645 C.ar    1  UNL1        0.0532
     21 CL          2.0942    7.1185   -3.9600 Cl      1  UNL1       -0.0828
     22 C           3.7724    4.9879   -3.3261 C.ar    1  UNL1        0.0567
     23 C           4.6019    5.2126   -4.5517 C.2     1  UNL1        0.2458
     24 O           4.2640    6.0316   -5.3817 O.2     1  UNL1       -0.2701
     25 N           5.7514    4.4429   -4.7316 N.am    1  UNL1       -0.3085
     26 C           6.6062    4.6703   -5.8904 C.3     1  UNL1        0.0234
     27 C           7.1773    6.0964   -5.8706 C.3     1  UNL1       -0.0345
     28 C           8.1107    6.3545   -7.0416 C.3     1  UNL1       -0.0514
     29 C           9.2385    5.3352   -7.0786 C.3     1  UNL1       -0.0529
     30 C           8.6859    3.9138   -7.1221 C.3     1  UNL1       -0.0514
     31 C           7.7456    3.6408   -5.9479 C.3     1  UNL1       -0.0345
     32 C           4.1391    4.0071   -2.4042 C.ar    1  UNL1       -0.0270
     33 H           0.6631    0.2548   -0.9967 H       1  UNL1        0.0230
     34 H           0.6684    0.8267    0.6801 H       1  UNL1        0.0230
     35 H           0.4496   -0.9042    0.3371 H       1  UNL1        0.0230
     36 H           2.9641    0.6564   -0.2746 H       1  UNL1        0.0264
     37 H           2.7756   -1.0316   -0.5752 H       1  UNL1        0.0264
     38 H           2.3184   -1.4354    1.9442 H       1  UNL1        0.0298
     39 H           2.5728    0.2960    2.1941 H       1  UNL1        0.0298
     40 H           4.4961    0.1863    1.2790 H       1  UNL1        0.0696
     41 H           4.8473   -1.4237    0.9430 H       1  UNL1        0.0696
     42 H           6.3253   -2.2719    4.2159 H       1  UNL1        0.0655
     43 H           8.6807   -2.1140    4.9240 H       1  UNL1        0.0619
     44 H          10.1497   -0.3803    3.9342 H       1  UNL1        0.0618
     45 H           9.2211    1.2978    2.4236 H       1  UNL1        0.0637
     46 H           7.5884    2.1325    1.1514 H       1  UNL1        0.1467
     47 H           4.8151    1.8646    1.8065 H       1  UNL1        0.0557
     48 H           5.5620    0.9587    0.2918 H       1  UNL1        0.0557
     49 H           3.1982    2.5312    0.3778 H       1  UNL1        0.1549
     50 H           1.5719    4.2589   -0.1707 H       1  UNL1        0.0636
     51 H           0.8550    5.9414   -1.8119 H       1  UNL1        0.0633
     52 H           6.0431    3.7363   -4.0776 H       1  UNL1        0.1493
     53 H           5.9728    4.5429   -6.7781 H       1  UNL1        0.0498
     54 H           7.7046    6.2652   -4.9230 H       1  UNL1        0.0283
     55 H           6.3795    6.8433   -5.9127 H       1  UNL1        0.0283
     56 H           8.5190    7.3674   -6.9624 H       1  UNL1        0.0266
     57 H           7.5398    6.3081   -7.9774 H       1  UNL1        0.0266
     58 H           9.8721    5.4583   -6.1915 H       1  UNL1        0.0265
     59 H           9.8689    5.5191   -7.9548 H       1  UNL1        0.0265
     60 H           9.5140    3.1971   -7.1119 H       1  UNL1        0.0266
     61 H           8.1422    3.7655   -8.0634 H       1  UNL1        0.0266
     62 H           8.3193    3.6670   -5.0117 H       1  UNL1        0.0283
     63 H           7.3385    2.6258   -6.0330 H       1  UNL1        0.0283
     64 H           5.0249    3.3994   -2.5427 H       1  UNL1        0.0644
@<TRIPOS>BOND
     1     1     2    1
     2     2     3    1
     3     3     4    1
     4     4     5    1
     5     5     6    1
     6     6     7   ar
     7     7     8   ar
     8     8     9   ar
     9     9    10   ar
    10    10    11   ar
    11     6    11   ar
    12    11    12    1
    13    12    13    1
    14    13    14    1
    15    14    15    2
    16    14    16   am
    17    16    17    1
    18    17    18   ar
    19    18    19   ar
    20    19    20   ar
    21    20    21    1
    22    20    22   ar
    23    22    23    1
    24    23    24    2
    25    23    25   am
    26    25    26    1
    27    26    27    1
    28    27    28    1
    29    28    29    1
    30    29    30    1
    31    30    31    1
    32    26    31    1
    33    22    32   ar
    34    17    32   ar
    35     1    33    1
    36     1    34    1
    37     1    35    1
    38     2    36    1
    39     2    37    1
    40     3    38    1
    41     3    39    1
    42     4    40    1
    43     4    41    1
    44     7    42    1
    45     8    43    1
    46     9    44    1
    47    10    45    1
    48    12    46    1
    49    13    47    1
    50    13    48    1
    51    16    49    1
    52    18    50    1
    53    19    51    1
    54    25    52    1
    55    26    53    1
    56    27    54    1
    57    27    55    1
    58    28    56    1
    59    28    57    1
    60    29    58    1
    61    29    59    1
    62    30    60    1
    63    30    61    1
    64    31    62    1
    65    31    63    1
    66    32    64    1
