@<TRIPOS>MOLECULE
*****
 28 30 0 0 0
SMALL
GASTEIGER

@<TRIPOS>ATOM
      1 O           0.9900   -0.0030   -0.0783 O.2     1  UNL1       -0.2665
      2 C           2.2181   -0.0701   -0.0645 C.2     1  UNL1        0.2831
      3 N           2.9852    0.1371    1.0664 N.am    1  UNL1       -0.1891
      4 O           2.2849    0.5687    2.2235 O.3     1  UNL1       -0.2763
      5 C           3.1985    0.8790    3.3065 C.3     1  UNL1        0.0842
      6 C           2.8855    2.1824    4.0965 C.3     1  UNL1       -0.0243
      7 C           3.2991    1.4356    5.3804 C.3     1  UNL1       -0.0482
      8 C           2.9290    0.1325    4.6443 C.3     1  UNL1       -0.0243
      9 C           2.9860   -0.3538   -1.2738 C.ar    1  UNL1        0.1078
     10 C           2.6872    0.0678   -2.5732 C.ar    1  UNL1        0.0112
     11 C           3.6979   -0.4928   -3.3700 C.ar    1  UNL1        0.1530
     12 O           4.0687   -0.5083   -4.6776 O.2     1  UNL1       -0.4613
     13 C           5.1828   -1.2995   -4.7090 C.ar    1  UNL1        0.0946
     14 C           5.5253   -1.7931   -3.4691 C.ar    1  UNL1        0.0002
     15 C           4.5417   -1.2343   -2.6276 C.ar    1  UNL1        0.0855
     16 N           4.1101   -1.1707   -1.3290 N.ar    1  UNL1       -0.3480
     17 H           3.9826    0.2862    1.0214 H       1  UNL1        0.1828
     18 H           4.2554    0.8278    3.0098 H       1  UNL1        0.0620
     19 H           1.8285    2.4726    4.0857 H       1  UNL1        0.0291
     20 H           3.4927    3.0559    3.8440 H       1  UNL1        0.0291
     21 H           2.7063    1.6613    6.2715 H       1  UNL1        0.0267
     22 H           4.3621    1.5256    5.6349 H       1  UNL1        0.0267
     23 H           1.8836   -0.1640    4.7897 H       1  UNL1        0.0291
     24 H           3.5711   -0.7269    4.8538 H       1  UNL1        0.0291
     25 H           1.8586    0.6930   -2.8772 H       1  UNL1        0.0677
     26 H           5.6228   -1.4201   -5.6913 H       1  UNL1        0.1030
     27 H           6.3522   -2.4435   -3.2284 H       1  UNL1        0.0670
     28 H           4.5358   -1.6927   -0.5739 H       1  UNL1        0.1661
@<TRIPOS>BOND
     1     1     2    2
     2     2     3   am
     3     3     4    1
     4     4     5    1
     5     5     6    1
     6     6     7    1
     7     7     8    1
     8     5     8    1
     9     2     9    1
    10     9    10   ar
    11    10    11   ar
    12    11    12   ar
    13    12    13   ar
    14    13    14   ar
    15    14    15   ar
    16    11    15   ar
    17    15    16   ar
    18     9    16   ar
    19     3    17    1
    20     5    18    1
    21     6    19    1
    22     6    20    1
    23     7    21    1
    24     7    22    1
    25     8    23    1
    26     8    24    1
    27    10    25    1
    28    13    26    1
    29    14    27    1
    30    16    28    1
