@<TRIPOS>MOLECULE
*****
 57 61 0 0 0
SMALL
GASTEIGER

@<TRIPOS>ATOM
      1 N           2.1127   -0.0906   -0.4744 N.pl3   1  UNL1       -0.3375
      2 C           0.7380   -0.0778   -0.5424 C.ar    1  UNL1        0.2064
      3 N           0.0318    0.9909   -0.1566 N.ar    1  UNL1       -0.0319
      4 O          -1.2818    0.5614   -0.0330 O.2     1  UNL1       -0.2388
      5 N          -1.3772   -0.8223   -0.1744 N.ar    1  UNL1       -0.0272
      6 C          -0.1779   -1.2016   -0.6427 C.ar    1  UNL1        0.2407
      7 N           0.1646   -2.5714   -0.4369 N.ar    1  UNL1       -0.1830
      8 N          -0.1467   -3.7135   -1.1007 N.ar    1  UNL1       -0.0581
      9 N           0.4908   -4.7537   -0.5271 N.ar    1  UNL1       -0.1279
     10 C           1.1242   -4.3074    0.6073 C.ar    1  UNL1        0.1399
     11 C           1.9490   -5.2858    1.5499 C.3     1  UNL1        0.0155
     12 N           2.5440   -4.6539    2.8464 N.4     1  UNL1        0.2397
     13 C           3.6098   -3.4352    2.4152 C.3     1  UNL1       -0.0315
     14 C           3.6965   -2.3580    3.5669 C.3     1  UNL1       -0.0123
     15 C           2.4213   -2.0463    4.5026 C.3     1  UNL1       -0.0434
     16 C           1.6037   -3.2510    4.9453 C.3     1  UNL1       -0.0123
     17 C           1.2215   -4.2942    3.8556 C.3     1  UNL1       -0.0315
     18 C           0.8540   -2.9105    0.6589 C.ar    1  UNL1        0.1608
     19 C           1.1960   -1.9801    1.6642 C.2     1  UNL1        0.2838
     20 O           1.5761   -2.5976    2.5574 O.2     1  UNL1       -0.2667
     21 N           1.1762   -0.6062    1.8889 N.am    1  UNL1       -0.2016
     22 N           2.1032   -0.0296    2.8132 N.2     1  UNL1       -0.1874
     23 C           1.6991    1.0169    3.4808 C.2     1  UNL1        0.0534
     24 C           2.2431    1.4969    4.8271 C.ar    1  UNL1        0.0022
     25 C           3.5513    1.2259    5.2653 C.ar    1  UNL1       -0.0525
     26 C           4.0046    1.6706    6.5235 C.ar    1  UNL1       -0.0606
     27 C           3.1581    2.3846    7.3707 C.ar    1  UNL1       -0.0540
     28 C           1.8481    2.6728    6.9712 C.ar    1  UNL1       -0.0173
     29 C           1.0086    3.4281    7.8125 C.ar    1  UNL1       -0.0540
     30 C          -0.3018    3.7179    7.4382 C.ar    1  UNL1       -0.0612
     31 C          -0.7932    3.2409    6.2339 C.ar    1  UNL1       -0.0611
     32 C           0.0248    2.4873    5.3956 C.ar    1  UNL1       -0.0534
     33 C           1.3710    2.2095    5.7058 C.ar    1  UNL1       -0.0092
     34 H           2.5350    0.7438   -0.0443 H       1  UNL1        0.1439
     35 H           2.6213   -0.8788   -0.0752 H       1  UNL1        0.1439
     36 H           2.8058   -5.7486    1.0263 H       1  UNL1        0.0884
     37 H           1.3471   -6.1438    1.9030 H       1  UNL1        0.0884
     38 H           3.1110   -5.3091    3.3913 H       1  UNL1        0.2037
     39 H           3.3091   -2.9923    1.4344 H       1  UNL1        0.0814
     40 H           4.5710   -3.8639    2.0733 H       1  UNL1        0.0814
     41 H           4.0800   -1.4193    3.1144 H       1  UNL1        0.0317
     42 H           4.4730   -2.7011    4.2405 H       1  UNL1        0.0317
     43 H           1.5736   -1.4898    4.0853 H       1  UNL1        0.0269
     44 H           2.6542   -1.2938    5.2523 H       1  UNL1        0.0269
     45 H           0.6583   -2.8212    5.3399 H       1  UNL1        0.0317
     46 H           2.1574   -3.7081    5.7473 H       1  UNL1        0.0317
     47 H           0.3550   -3.9662    3.2261 H       1  UNL1        0.0814
     48 H           0.8021   -5.2212    4.2601 H       1  UNL1        0.0814
     49 H           0.2929   -0.1334    1.7657 H       1  UNL1        0.1776
     50 H           0.8254    1.5433    3.0850 H       1  UNL1        0.0851
     51 H           4.2410    0.6633    4.6452 H       1  UNL1        0.0624
     52 H           5.0273    1.4776    6.8498 H       1  UNL1        0.0618
     53 H           3.5303    2.7176    8.3425 H       1  UNL1        0.0624
     54 H           1.3707    3.8189    8.7636 H       1  UNL1        0.0624
     55 H          -0.9411    4.3143    8.0840 H       1  UNL1        0.0618
     56 H          -1.8125    3.4596    5.9275 H       1  UNL1        0.0618
     57 H          -0.4312    2.1283    4.4813 H       1  UNL1        0.0624
@<TRIPOS>UNITY_ATOM_ATTR
12 1
charge 1
@<TRIPOS>BOND
     1     1     2    1
     2     2     3   ar
     3     3     4   ar
     4     4     5   ar
     5     5     6   ar
     6     2     6   ar
     7     6     7    1
     8     7     8   ar
     9     8     9   ar
    10     9    10   ar
    11    10    11    1
    12    11    12    1
    13    12    13    1
    14    13    14    1
    15    14    15    1
    16    15    16    1
    17    16    17    1
    18    12    17    1
    19    10    18   ar
    20     7    18   ar
    21    18    19    1
    22    19    20    2
    23    19    21   am
    24    21    22    1
    25    22    23    2
    26    23    24    1
    27    24    25   ar
    28    25    26   ar
    29    26    27   ar
    30    27    28   ar
    31    28    29   ar
    32    29    30   ar
    33    30    31   ar
    34    31    32   ar
    35    32    33   ar
    36    24    33   ar
    37    28    33   ar
    38     1    34    1
    39     1    35    1
    40    11    36    1
    41    11    37    1
    42    12    38    1
    43    13    39    1
    44    13    40    1
    45    14    41    1
    46    14    42    1
    47    15    43    1
    48    15    44    1
    49    16    45    1
    50    16    46    1
    51    17    47    1
    52    17    48    1
    53    21    49    1
    54    23    50    1
    55    25    51    1
    56    26    52    1
    57    27    53    1
    58    29    54    1
    59    30    55    1
    60    31    56    1
    61    32    57    1
