@<TRIPOS>MOLECULE
*****
 55 58 0 0 0
SMALL
GASTEIGER

@<TRIPOS>ATOM
      1 O           0.9240    0.3653    0.1709 O.2     1  UNL1       -0.2524
      2 C           2.1129    0.0163    0.1622 C.2     1  UNL1        0.3060
      3 N           2.5615   -1.2034   -0.2334 N.am    1  UNL1       -0.2471
      4 C           1.8651   -2.1447   -1.0020 C.ar    1  UNL1        0.1870
      5 N           2.3269   -3.3493   -1.2905 N.ar    1  UNL1       -0.1276
      6 N           1.6186   -3.9494   -2.3374 N.ar    1  UNL1       -0.1718
      7 C           0.6321   -3.1882   -2.7786 C.ar    1  UNL1       -0.0358
      8 S          -0.3574   -3.5490   -4.1225 S.3     1  UNL1       -0.7303
      9 S           0.4460   -1.7370   -1.8584 S.2     1  UNL1       -0.0627
     10 N           3.0055    0.9409    0.6613 N.am    1  UNL1       -0.2875
     11 C           4.4901    1.0982    0.5993 C.3     1  UNL1        0.1049
     12 C           4.9687    1.2676   -0.8413 C.3     1  UNL1       -0.0006
     13 C           4.7289    0.1333   -1.7744 C.ar    1  UNL1       -0.0451
     14 C           3.7571    0.2278   -2.7696 C.ar    1  UNL1       -0.0585
     15 C           3.4280   -0.9139   -3.4843 C.ar    1  UNL1       -0.0615
     16 C           4.0822   -2.1227   -3.2222 C.ar    1  UNL1       -0.0617
     17 C           5.0468   -2.2144   -2.2207 C.ar    1  UNL1       -0.0615
     18 C           5.4063   -1.0759   -1.5251 C.ar    1  UNL1       -0.0585
     19 C           5.0693    2.3046    1.4984 C.2     1  UNL1        0.2364
     20 O           4.3049    2.9840    2.1920 O.2     1  UNL1       -0.2736
     21 N           6.4654    2.4681    1.6391 N.am    1  UNL1       -0.2970
     22 C           7.0621    2.8832    2.9247 C.3     1  UNL1        0.0307
     23 C           8.2296    1.9079    3.3045 C.3     1  UNL1        0.0331
     24 N           9.2003    1.7151    2.1896 N.pl3   1  UNL1       -0.2750
     25 C          10.5259    2.0476    2.2945 C.ar    1  UNL1        0.2719
     26 C          11.1666    3.0442    1.5445 C.ar    1  UNL1        0.0264
     27 C          12.5411    3.2683    1.6874 C.ar    1  UNL1       -0.0486
     28 C          13.2816    2.4700    2.5476 C.ar    1  UNL1        0.0022
     29 C          12.6234    1.4764    3.2548 C.ar    1  UNL1        0.1710
     30 N          11.2967    1.3126    3.1172 N.ar    1  UNL1       -0.1981
     31 C           8.5764    1.4702    0.8687 C.3     1  UNL1        0.0331
     32 C           7.4850    2.5142    0.5822 C.3     1  UNL1        0.0307
     33 H           3.5329   -1.4348   -0.1412 H       1  UNL1        0.1584
     34 H           2.4995    1.7467    1.0184 H       1  UNL1        0.1510
     35 H           4.8887    0.1870    1.0580 H       1  UNL1        0.0598
     36 H           6.0421    1.2283   -0.8368 H       1  UNL1        0.0336
     37 H           4.6632    2.2343   -1.2575 H       1  UNL1        0.0336
     38 H           3.1589    1.1288   -2.8949 H       1  UNL1        0.0620
     39 H           2.5346   -0.9210   -4.1095 H       1  UNL1        0.0618
     40 H           3.6839   -3.0382   -3.6606 H       1  UNL1        0.0618
     41 H           5.3752   -3.1935   -1.8796 H       1  UNL1        0.0618
     42 H           6.0900   -1.1642   -0.6843 H       1  UNL1        0.0620
     43 H           6.3156    2.9184    3.7229 H       1  UNL1        0.0480
     44 H           7.4690    3.8956    2.7939 H       1  UNL1        0.0480
     45 H           7.7904    0.9234    3.5079 H       1  UNL1        0.0481
     46 H           8.7318    2.2423    4.2187 H       1  UNL1        0.0481
     47 H          10.6025    3.6690    0.8572 H       1  UNL1        0.0698
     48 H          13.0337    4.0618    1.1243 H       1  UNL1        0.0622
     49 H          14.3553    2.6174    2.6578 H       1  UNL1        0.0677
     50 H          13.1405    0.7980    3.9266 H       1  UNL1        0.1376
     51 H          10.8307    0.5585    3.6128 H       1  UNL1        0.4542
     52 H           8.1130    0.4751    0.9184 H       1  UNL1        0.0481
     53 H           9.3106    1.4413    0.0579 H       1  UNL1        0.0481
     54 H           7.1021    2.4620   -0.4231 H       1  UNL1        0.0480
     55 H           7.9207    3.5207    0.5994 H       1  UNL1        0.0480
@<TRIPOS>UNITY_ATOM_ATTR
8 1
charge -1
30 1
charge 1
@<TRIPOS>BOND
     1     1     2    2
     2     2     3   am
     3     3     4    1
     4     4     5   ar
     5     5     6   ar
     6     6     7   ar
     7     7     8    1
     8     7     9   ar
     9     4     9   ar
    10     2    10   am
    11    10    11    1
    12    11    12    1
    13    12    13    1
    14    13    14   ar
    15    14    15   ar
    16    15    16   ar
    17    16    17   ar
    18    17    18   ar
    19    13    18   ar
    20    11    19    1
    21    19    20    2
    22    19    21   am
    23    21    22    1
    24    22    23    1
    25    23    24    1
    26    24    25    1
    27    25    26   ar
    28    26    27   ar
    29    27    28   ar
    30    28    29   ar
    31    29    30   ar
    32    25    30   ar
    33    24    31    1
    34    31    32    1
    35    21    32    1
    36     3    33    1
    37    10    34    1
    38    11    35    1
    39    12    36    1
    40    12    37    1
    41    14    38    1
    42    15    39    1
    43    16    40    1
    44    17    41    1
    45    18    42    1
    46    22    43    1
    47    22    44    1
    48    23    45    1
    49    23    46    1
    50    26    47    1
    51    27    48    1
    52    28    49    1
    53    29    50    1
    54    30    51    1
    55    31    52    1
    56    31    53    1
    57    32    54    1
    58    32    55    1
