@<TRIPOS>MOLECULE
*****
 59 62 0 0 0
SMALL
GASTEIGER

@<TRIPOS>ATOM
      1 C           2.5097    0.0033   -0.0095 C.3     1  UNL1       -0.0397
      2 C           1.0147   -0.0021    0.0044 C.ar    1  UNL1       -0.0504
      3 C           0.3107   -1.2119    0.0021 C.ar    1  UNL1       -0.0582
      4 C          -1.0756   -1.2029   -0.0393 C.ar    1  UNL1       -0.0523
      5 C          -1.7554    0.0169   -0.0993 C.ar    1  UNL1        0.0010
      6 C          -3.1889    0.0325   -0.1280 C.ar    1  UNL1        0.0803
      7 C          -3.8947   -0.5196    0.9054 C.ar    1  UNL1        0.0049
      8 S          -5.4862   -0.0322    0.7088 S.2     1  UNL1       -0.0582
      9 C          -5.2371    0.5732   -0.8940 C.ar    1  UNL1        0.1860
     10 N          -6.3156    1.0262   -1.7768 N.am    1  UNL1       -0.1460
     11 N          -7.8074    1.0294   -1.4084 N.am    1  UNL1       -0.2081
     12 C          -8.3396    0.1091   -0.5371 C.2     1  UNL1        0.3167
     13 O          -7.7027   -0.8174   -0.0488 O.2     1  UNL1       -0.2513
     14 N          -9.6311    0.2440   -0.0948 N.am    1  UNL1       -0.2954
     15 C         -10.0160   -0.5673    1.1164 C.3     1  UNL1        0.0246
     16 C          -9.8590   -2.1114    0.9421 C.3     1  UNL1       -0.0345
     17 C         -10.0474   -2.9011    2.2392 C.3     1  UNL1       -0.0514
     18 C          -9.1609   -2.3795    3.3641 C.3     1  UNL1       -0.0529
     19 C          -9.4408   -0.9045    3.6195 C.3     1  UNL1       -0.0514
     20 C          -9.2276   -0.0698    2.3617 C.3     1  UNL1       -0.0345
     21 C          -5.8508    1.7000   -2.9748 C.2     1  UNL1        0.3291
     22 O          -4.6605    1.8605   -3.2561 O.2     1  UNL1       -0.2503
     23 N          -6.8230    2.2344   -3.8524 N.am    1  UNL1       -0.2678
     24 C          -6.4670    2.9297   -5.0745 C.ar    1  UNL1        0.0349
     25 C          -5.4203    2.4982   -5.9057 C.ar    1  UNL1       -0.0391
     26 C          -5.1246    3.1451   -7.1210 C.ar    1  UNL1       -0.0416
     27 C          -5.8555    4.2594   -7.5132 C.ar    1  UNL1        0.0411
     28 CL         -5.4862    5.0570   -8.9953 Cl      1  UNL1       -0.0835
     29 C          -6.8897    4.7210   -6.7033 C.ar    1  UNL1       -0.0416
     30 C          -7.2036    4.0508   -5.4992 C.ar    1  UNL1       -0.0391
     31 N          -3.9347    0.6333   -1.1365 N.ar    1  UNL1       -0.2232
     32 C          -1.0668    1.2274   -0.0517 C.ar    1  UNL1       -0.0523
     33 C           0.3203    1.2165   -0.0040 C.ar    1  UNL1       -0.0582
     34 H           2.9091   -1.0153    0.0019 H       1  UNL1        0.0278
     35 H           2.8893    0.5315    0.8693 H       1  UNL1        0.0278
     36 H           2.8645    0.4975   -0.9190 H       1  UNL1        0.0278
     37 H           0.8310   -2.1656    0.0158 H       1  UNL1        0.0620
     38 H          -1.6246   -2.1418   -0.0363 H       1  UNL1        0.0624
     39 H          -3.5388   -1.0493    1.7811 H       1  UNL1        0.0716
     40 H          -8.4170    1.3044   -2.1631 H       1  UNL1        0.1751
     41 H         -10.3585    0.5073   -0.7484 H       1  UNL1        0.1506
     42 H         -11.0822   -0.3687    1.2902 H       1  UNL1        0.0499
     43 H          -8.8693   -2.3979    0.5784 H       1  UNL1        0.0283
     44 H         -10.5513   -2.4757    0.1761 H       1  UNL1        0.0283
     45 H          -9.8125   -3.9583    2.0612 H       1  UNL1        0.0266
     46 H         -11.0957   -2.8503    2.5474 H       1  UNL1        0.0266
     47 H          -8.1020   -2.5267    3.1100 H       1  UNL1        0.0265
     48 H          -9.3441   -2.9532    4.2804 H       1  UNL1        0.0265
     49 H          -8.7674   -0.5437    4.4070 H       1  UNL1        0.0266
     50 H         -10.4654   -0.7750    3.9831 H       1  UNL1        0.0266
     51 H          -8.1483   -0.0844    2.1831 H       1  UNL1        0.0283
     52 H          -9.4726    0.9806    2.5568 H       1  UNL1        0.0283
     53 H          -7.7524    2.4122   -3.5214 H       1  UNL1        0.1564
     54 H          -4.8285    1.6248   -5.6433 H       1  UNL1        0.0636
     55 H          -4.3260    2.7651   -7.7548 H       1  UNL1        0.0633
     56 H          -7.4512    5.6037   -7.0059 H       1  UNL1        0.0633
     57 H          -7.9981    4.4671   -4.8868 H       1  UNL1        0.0636
     58 H          -1.6140    2.1679   -0.0475 H       1  UNL1        0.0624
     59 H           0.8552    2.1621    0.0094 H       1  UNL1        0.0620
@<TRIPOS>BOND
     1     1     2    1
     2     2     3   ar
     3     3     4   ar
     4     4     5   ar
     5     5     6    1
     6     6     7   ar
     7     7     8   ar
     8     8     9   ar
     9     9    10    1
    10    10    11    1
    11    11    12   am
    12    12    13    2
    13    12    14   am
    14    14    15    1
    15    15    16    1
    16    16    17    1
    17    17    18    1
    18    18    19    1
    19    19    20    1
    20    15    20    1
    21    10    21   am
    22    21    22    2
    23    21    23   am
    24    23    24    1
    25    24    25   ar
    26    25    26   ar
    27    26    27   ar
    28    27    28    1
    29    27    29   ar
    30    29    30   ar
    31    24    30   ar
    32     9    31   ar
    33     6    31   ar
    34     5    32   ar
    35    32    33   ar
    36     2    33   ar
    37     1    34    1
    38     1    35    1
    39     1    36    1
    40     3    37    1
    41     4    38    1
    42     7    39    1
    43    11    40    1
    44    14    41    1
    45    15    42    1
    46    16    43    1
    47    16    44    1
    48    17    45    1
    49    17    46    1
    50    18    47    1
    51    18    48    1
    52    19    49    1
    53    19    50    1
    54    20    51    1
    55    20    52    1
    56    23    53    1
    57    25    54    1
    58    26    55    1
    59    29    56    1
    60    30    57    1
    61    32    58    1
    62    33    59    1
