@<TRIPOS>MOLECULE
*****
 58 60 0 0 0
SMALL
GASTEIGER

@<TRIPOS>ATOM
      1 C           0.9312   -0.1743   -0.1288 C.3     1  UNL1       -0.0652
      2 C           2.4315   -0.3523   -0.2335 C.3     1  UNL1       -0.0528
      3 C           3.0060   -0.7134    1.1244 C.3     1  UNL1       -0.0189
      4 C           4.5080   -0.9589    1.0472 C.3     1  UNL1        0.0896
      5 O           4.9263   -1.0510    2.4113 O.3     1  UNL1       -0.4912
      6 C           6.2650   -0.9571    2.6493 C.ar    1  UNL1        0.1326
      7 C           6.8200   -2.0370    3.3807 C.ar    1  UNL1       -0.0192
      8 C           8.1559   -2.0342    3.7965 C.ar    1  UNL1       -0.0583
      9 C           8.9761   -0.9866    3.4148 C.ar    1  UNL1       -0.0608
     10 C           8.4257    0.0900    2.7045 C.ar    1  UNL1       -0.0461
     11 C           7.0482    0.1597    2.3503 C.ar    1  UNL1        0.0786
     12 C           6.6046    1.4263    1.6447 C.2     1  UNL1        0.2531
     13 O           7.5257    2.1249    1.2230 O.2     1  UNL1       -0.2697
     14 N           5.2339    1.7947    1.5060 N.am    1  UNL1       -0.2626
     15 C           4.6980    2.6697    0.5217 C.2     1  UNL1        0.1533
     16 S           5.6177    3.7195   -0.4251 S.2     1  UNL1       -0.0170
     17 N           3.2973    2.6329    0.3407 N.am    1  UNL1       -0.2453
     18 N           2.7077    3.3740   -0.7834 N.am    1  UNL1       -0.2311
     19 C           1.3448    3.3434   -1.0550 C.2     1  UNL1        0.2601
     20 O           0.5612    2.5208   -0.5953 O.2     1  UNL1       -0.2687
     21 C           0.7715    4.4243   -1.9069 C.ar    1  UNL1        0.0383
     22 C          -0.4822    4.9657   -1.5651 C.ar    1  UNL1       -0.0478
     23 C          -1.0836    5.9758   -2.3480 C.ar    1  UNL1       -0.0398
     24 C          -0.4052    6.5024   -3.4545 C.ar    1  UNL1        0.0334
     25 N          -0.9170    7.6381   -4.1515 N.am    1  UNL1       -0.2853
     26 C          -0.2680    8.3027   -5.1864 C.2     1  UNL1        0.2203
     27 O           0.8228    8.0110   -5.6840 O.2     1  UNL1       -0.2752
     28 C          -0.9907    9.4641   -5.7774 C.3     1  UNL1        0.0359
     29 C          -0.9532   10.8258   -5.1243 C.3     1  UNL1       -0.0412
     30 C          -0.2207   10.6179   -6.4141 C.3     1  UNL1       -0.0412
     31 C           0.8022    5.8921   -3.8193 C.ar    1  UNL1       -0.0398
     32 C           1.3938    4.8702   -3.0632 C.ar    1  UNL1       -0.0478
     33 H           0.5326    0.1709   -1.0866 H       1  UNL1        0.0230
     34 H           0.6568    0.5435    0.6553 H       1  UNL1        0.0230
     35 H           0.4521   -1.1218    0.1173 H       1  UNL1        0.0230
     36 H           2.8918    0.5468   -0.6461 H       1  UNL1        0.0264
     37 H           2.6736   -1.1293   -0.9588 H       1  UNL1        0.0264
     38 H           2.5226   -1.6168    1.5099 H       1  UNL1        0.0298
     39 H           2.7708    0.0629    1.8720 H       1  UNL1        0.0298
     40 H           4.9816   -0.1541    0.4864 H       1  UNL1        0.0696
     41 H           4.7557   -1.8646    0.4918 H       1  UNL1        0.0696
     42 H           6.2065   -2.8996    3.6381 H       1  UNL1        0.0654
     43 H           8.5542   -2.8387    4.4141 H       1  UNL1        0.0619
     44 H          10.0345   -0.9947    3.6745 H       1  UNL1        0.0618
     45 H           9.1005    0.9047    2.4393 H       1  UNL1        0.0626
     46 H           4.5867    1.2342    2.0447 H       1  UNL1        0.1569
     47 H           2.6549    1.9731    0.7745 H       1  UNL1        0.1718
     48 H           3.2943    4.1330   -1.1254 H       1  UNL1        0.1731
     49 H          -0.9875    4.6060   -0.6683 H       1  UNL1        0.0626
     50 H          -2.0732    6.3272   -2.0607 H       1  UNL1        0.0636
     51 H          -1.7892    8.0349   -3.8166 H       1  UNL1        0.1548
     52 H          -1.8538    9.1622   -6.3619 H       1  UNL1        0.0394
     53 H          -0.3332   10.9848   -4.2485 H       1  UNL1        0.0273
     54 H          -1.8596   11.4189   -5.1352 H       1  UNL1        0.0273
     55 H           0.8656   10.6309   -6.3844 H       1  UNL1        0.0273
     56 H          -0.6178   11.0717   -7.3170 H       1  UNL1        0.0273
     57 H           1.3320    6.1886   -4.7162 H       1  UNL1        0.0636
     58 H           2.3248    4.4404   -3.4186 H       1  UNL1        0.0626
@<TRIPOS>BOND
     1     1     2    1
     2     2     3    1
     3     3     4    1
     4     4     5    1
     5     5     6    1
     6     6     7   ar
     7     7     8   ar
     8     8     9   ar
     9     9    10   ar
    10    10    11   ar
    11     6    11   ar
    12    11    12    1
    13    12    13    2
    14    12    14   am
    15    14    15    1
    16    15    16    2
    17    15    17    1
    18    17    18    1
    19    18    19   am
    20    19    20    2
    21    19    21    1
    22    21    22   ar
    23    22    23   ar
    24    23    24   ar
    25    24    25    1
    26    25    26   am
    27    26    27    2
    28    26    28    1
    29    28    29    1
    30    29    30    1
    31    28    30    1
    32    24    31   ar
    33    31    32   ar
    34    21    32   ar
    35     1    33    1
    36     1    34    1
    37     1    35    1
    38     2    36    1
    39     2    37    1
    40     3    38    1
    41     3    39    1
    42     4    40    1
    43     4    41    1
    44     7    42    1
    45     8    43    1
    46     9    44    1
    47    10    45    1
    48    14    46    1
    49    17    47    1
    50    18    48    1
    51    22    49    1
    52    23    50    1
    53    25    51    1
    54    28    52    1
    55    29    53    1
    56    29    54    1
    57    30    55    1
    58    30    56    1
    59    31    57    1
    60    32    58    1
