REMARK  7 active torsions:
REMARK  status: ('A' for Active; 'I' for Inactive)
REMARK    1  A    between atoms: O_2  and  C_3 
REMARK    2  A    between atoms: C_6  and  O_7 
REMARK    3  A    between atoms: C_9  and  N_10 
REMARK       I    between atoms: N_10  and  C_11 
REMARK    4  A    between atoms: C_11  and  C_13 
REMARK    5  A    between atoms: C_13  and  S_14 
REMARK    6  A    between atoms: S_14  and  C_15 
REMARK    7  A    between atoms: C_25  and  C_26 
ROOT
ATOM      1  C   UNL d   1      -0.165   5.290   6.659  0.00  0.00     0.211 C 
ATOM      2  N   UNL d   1      -1.423   5.427   7.149  0.00  0.00    -0.122 NA
ATOM      3  N   UNL d   1      -2.002   6.654   7.072  0.00  0.00    -0.144 NA
ATOM      4  C   UNL d   1      -1.119   7.690   6.838  0.00  0.00     0.131 C 
ATOM      5  C   UNL d   1       0.121   7.311   7.339  0.00  0.00     0.142 C 
ATOM      6  N   UNL d   1       0.762   6.263   6.763  0.00  0.00    -0.207 NA
ATOM      7  N   UNL d   1       0.493   8.537   7.810  0.00  0.00    -0.241 NA
ATOM      8  C   UNL d   1       0.579   9.206   6.608  0.00  0.00     0.026 C 
ATOM      9  C   UNL d   1       1.645   9.995   6.240  0.00  0.00     0.025 C 
ATOM     10  C   UNL d   1       1.759  10.407   4.941  0.00  0.00     0.009 C 
ATOM     11  C   UNL d   1       0.834  10.007   3.973  0.00  0.00    -0.054 C 
ATOM     12  C   UNL d   1      -0.373   9.216   4.416  0.00  0.00     0.023 C 
ATOM     13  C   UNL d   1      -0.489   8.721   5.827  0.00  0.00     0.020 C 
ATOM     14  H   UNL d   1      -0.086   8.981   8.509  0.00  0.00     0.135 HD
ENDROOT
BRANCH   1  15
ATOM     15  S   UNL d   1       0.020   3.996   5.480  0.00  0.00    -0.079 SA
BRANCH  15  16
ATOM     16  C   UNL d   1       1.417   4.626   4.485  0.00  0.00     0.185 C 
BRANCH  16  17
ATOM     17  C   UNL d   1       1.675   3.623   3.354  0.00  0.00     0.232 C 
ATOM     18  N   UNL d   1       2.811   3.940   2.590  0.00  0.00    -0.324 N 
ATOM     19  H   UNL d   1       3.318   4.744   2.895  0.00  0.00     0.169 HD
ATOM     20  O   UNL d   1       0.947   2.688   3.177  0.00  0.00    -0.272 OA
BRANCH  18  21
ATOM     21  C   UNL d   1       3.317   3.178   1.491  0.00  0.00     0.071 A 
ATOM     22  C   UNL d   1       4.482   3.494   0.761  0.00  0.00     0.095 A 
ATOM     23  C   UNL d   1       4.923   2.588  -0.236  0.00  0.00     0.042 A 
ATOM     24  C   UNL d   1       4.195   1.438  -0.573  0.00  0.00     0.039 A 
ATOM     25  C   UNL d   1       3.038   1.141   0.119  0.00  0.00     0.070 A 
ATOM     26  C   UNL d   1       2.638   2.003   1.128  0.00  0.00     0.069 A 
BRANCH  22  27
ATOM     27  O   UNL d   1       5.307   4.588   0.849  0.00  0.00    -0.354 OA
ATOM     28  C   UNL d   1       4.936   5.671   1.680  0.00  0.00     0.210 C 
ENDBRANCH  22  27
BRANCH  25  29
ATOM     29  O   UNL d   1       2.403  -0.041  -0.150  0.00  0.00    -0.356 OA
ATOM     30  C   UNL d   1       0.980  -0.033   0.005  0.00  0.00     0.210 C 
ENDBRANCH  25  29
ENDBRANCH  18  21
ENDBRANCH  16  17
ENDBRANCH  15  16
ENDBRANCH   1  15
BRANCH  11  31
ATOM     31  C   UNL d   1       1.350  10.475   2.553  0.00  0.00     0.010 C 
ATOM     32  C   UNL d   1       2.759   9.909   2.148  0.00  0.00     0.015 C 
ATOM     33  C   UNL d   1       0.423  10.267   1.372  0.00  0.00     0.015 C 
ENDBRANCH  11  31
TORSDOF 7
