@<TRIPOS>MOLECULE
*****
 34 35 0 0 0
SMALL
GASTEIGER

@<TRIPOS>ATOM
      1 O           1.0119    0.0444    0.0655 O.2     1  UNL1       -0.2689
      2 C           2.2407    0.0073    0.0991 C.2     1  UNL1        0.2576
      3 N           2.9992   -0.2625    1.2373 N.am    1  UNL1       -0.2467
      4 N           2.3440   -0.4135    2.4836 N.3     1  UNL1       -0.2373
      5 C           3.2547   -0.6485    3.6133 C.3     1  UNL1        0.0251
      6 C           3.1227    0.5042    4.6245 C.3     1  UNL1       -0.0360
      7 C           3.9940    0.2733    5.8617 C.3     1  UNL1       -0.0516
      8 C           3.6891   -1.0684    6.5206 C.3     1  UNL1       -0.0530
      9 C           3.8317   -2.2109    5.5204 C.3     1  UNL1       -0.0516
     10 C           2.9463   -1.9918    4.2937 C.3     1  UNL1       -0.0360
     11 C           3.0181    0.2941   -1.1378 C.ar    1  UNL1        0.0379
     12 C           4.1473   -0.4583   -1.4840 C.ar    1  UNL1       -0.0496
     13 C           4.8996   -0.1077   -2.6099 C.ar    1  UNL1       -0.0610
     14 C           4.4854    0.9406   -3.4327 C.ar    1  UNL1       -0.0617
     15 C           3.3371    1.6647   -3.1140 C.ar    1  UNL1       -0.0610
     16 C           2.6044    1.3438   -1.9679 C.ar    1  UNL1       -0.0496
     17 H           4.0048   -0.1181    1.2120 H       1  UNL1        0.1693
     18 H           1.6666   -1.1765    2.3817 H       1  UNL1        0.1445
     19 H           4.2968   -0.6801    3.2686 H       1  UNL1        0.0477
     20 H           2.0774    0.6101    4.9448 H       1  UNL1        0.0281
     21 H           3.4111    1.4533    4.1568 H       1  UNL1        0.0281
     22 H           3.8380    1.0825    6.5840 H       1  UNL1        0.0266
     23 H           5.0520    0.3020    5.5728 H       1  UNL1        0.0266
     24 H           2.6693   -1.0572    6.9254 H       1  UNL1        0.0265
     25 H           4.3669   -1.2295    7.3667 H       1  UNL1        0.0265
     26 H           3.5711   -3.1597    6.0017 H       1  UNL1        0.0266
     27 H           4.8796   -2.2871    5.2045 H       1  UNL1        0.0266
     28 H           1.8934   -2.0279    4.6040 H       1  UNL1        0.0281
     29 H           3.1021   -2.8141    3.5857 H       1  UNL1        0.0281
     30 H           4.4328   -1.3324   -0.9054 H       1  UNL1        0.0625
     31 H           5.8099   -0.6518   -2.8508 H       1  UNL1        0.0618
     32 H           5.0513    1.1860   -4.3292 H       1  UNL1        0.0618
     33 H           3.0180    2.4852   -3.7526 H       1  UNL1        0.0618
     34 H           1.7133    1.9167   -1.7194 H       1  UNL1        0.0625
@<TRIPOS>BOND
     1     1     2    2
     2     2     3   am
     3     3     4    1
     4     4     5    1
     5     5     6    1
     6     6     7    1
     7     7     8    1
     8     8     9    1
     9     9    10    1
    10     5    10    1
    11     2    11    1
    12    11    12   ar
    13    12    13   ar
    14    13    14   ar
    15    14    15   ar
    16    15    16   ar
    17    11    16   ar
    18     3    17    1
    19     4    18    1
    20     5    19    1
    21     6    20    1
    22     6    21    1
    23     7    22    1
    24     7    23    1
    25     8    24    1
    26     8    25    1
    27     9    26    1
    28     9    27    1
    29    10    28    1
    30    10    29    1
    31    12    30    1
    32    13    31    1
    33    14    32    1
    34    15    33    1
    35    16    34    1
