REMARK  7 active torsions:
REMARK  status: ('A' for Active; 'I' for Inactive)
REMARK    1  A    between atoms: C_8  and  C_9 
REMARK    2  A    between atoms: C_9  and  C_10 
REMARK    3  A    between atoms: C_10  and  N_11 
REMARK       I    between atoms: N_11  and  C_12 
REMARK    4  A    between atoms: C_12  and  C_14 
REMARK    5  A    between atoms: N_16  and  C_17 
REMARK    6  A    between atoms: C_24  and  C_25 
REMARK       I    between atoms: C_25  and  N_27 
REMARK    7  A    between atoms: N_27  and  C_28 
ROOT
ATOM      1  C   UNL d   1       6.570  -9.045   0.068  0.00  0.00     0.098 A 
ATOM      2  C   UNL d   1       7.390  -9.775   0.850  0.00  0.00     0.112 A 
ATOM      3  N   UNL d   1       7.410 -11.170   0.886  0.00  0.00    -0.360 N 
ATOM      4  C   UNL d   1       6.543 -11.834   0.028  0.00  0.00     0.112 A 
ATOM      5  C   UNL d   1       5.687 -11.248  -0.821  0.00  0.00     0.098 A 
ATOM      6  C   UNL d   1       5.647  -9.772  -0.839  0.00  0.00     0.206 A 
ATOM      7  O   UNL d   1       4.859  -9.173  -1.574  0.00  0.00    -0.286 OA
ENDROOT
BRANCH   1   8
ATOM      8  C   UNL d   1       6.640  -7.564   0.104  0.00  0.00     0.257 C 
ATOM      9  N   UNL d   1       5.419  -6.917   0.101  0.00  0.00    -0.356 N 
ATOM     10  H   UNL d   1       4.571  -7.457  -0.032  0.00  0.00     0.162 HD
ATOM     11  O   UNL d   1       7.719  -6.989   0.152  0.00  0.00    -0.267 OA
BRANCH   9  12
ATOM     12  C   UNL d   1       5.364  -5.463   0.059  0.00  0.00     0.130 C 
BRANCH  12  13
ATOM     13  C   UNL d   1       3.944  -4.882   0.058  0.00  0.00     0.098 C 
BRANCH  13  14
ATOM     14  C   UNL d   1       3.966  -3.382   0.055  0.00  0.00     0.106 A 
ATOM     15  N   UNL d   1       5.034  -2.609   0.051  0.00  0.00    -0.233 NA
ATOM     16  C   UNL d   1       4.571  -1.315   0.052  0.00  0.00     0.086 A 
ATOM     17  C   UNL d   1       5.283  -0.106   0.048  0.00  0.00     0.034 A 
ATOM     18  C   UNL d   1       3.182  -1.288   0.057  0.00  0.00     0.068 A 
ATOM     19  C   UNL d   1       4.568   1.097   0.051  0.00  0.00     0.003 A 
ATOM     20  C   UNL d   1       3.172   1.095   0.058  0.00  0.00     0.009 A 
ATOM     21  C   UNL d   1       2.430  -0.102   0.059  0.00  0.00    -0.033 A 
ATOM     22  C   UNL d   1       0.935  -0.076   0.059  0.00  0.00     0.050 C 
ATOM     23  N   UNL d   1       2.823  -2.617   0.057  0.00  0.00    -0.342 N 
ATOM     24  H   UNL d   1       1.875  -2.963   0.060  0.00  0.00     0.167 HD
ENDBRANCH  13  14
ENDBRANCH  12  13
ENDBRANCH   9  12
ENDBRANCH   1   8
BRANCH   3  25
ATOM     25  C   UNL d   1       8.328 -11.933   1.775  0.00  0.00     0.088 C 
ATOM     26  C   UNL d   1       7.519 -12.803   2.757  0.00  0.00     0.026 C 
ATOM     27  C   UNL d   1       8.412 -13.713   3.595  0.00  0.00     0.002 C 
ATOM     28  C   UNL d   1       9.325 -14.561   2.717  0.00  0.00     0.000 C 
ATOM     29  C   UNL d   1      10.171 -13.684   1.800  0.00  0.00     0.002 C 
ATOM     30  C   UNL d   1       9.297 -12.784   0.933  0.00  0.00     0.026 C 
ENDBRANCH   3  25
BRANCH   5  31
ATOM     31  C   UNL d   1       4.843 -12.143  -1.640  0.00  0.00     0.257 C 
ATOM     32  O   UNL d   1       4.891 -13.355  -1.459  0.00  0.00    -0.267 OA
ATOM     33  N   UNL d   1       4.037 -11.517  -2.566  0.00  0.00    -0.352 N 
ATOM     34  H   UNL d   1       4.029 -10.494  -2.579  0.00  0.00     0.163 HD
BRANCH  33  35
ATOM     35  C   UNL d   1       3.105 -12.201  -3.409  0.00  0.00     0.084 A 
ATOM     36  C   UNL d   1       3.513 -12.700  -4.770  0.00  0.00     0.027 A 
ATOM     37  C   UNL d   1       3.196 -13.680  -3.683  0.00  0.00     0.027 A 
ENDBRANCH  33  35
ENDBRANCH   5  31
TORSDOF 7
