REMARK  5 active torsions:
REMARK  status: ('A' for Active; 'I' for Inactive)
REMARK    1  A    between atoms: S_2  and  C_3 
REMARK    2  A    between atoms: C_8  and  N_9 
REMARK       I    between atoms: N_9  and  C_10 
REMARK    3  A    between atoms: C_12  and  C_10 
REMARK    4  A    between atoms: C_12  and  N_14 
REMARK       I    between atoms: N_14  and  C_15 
REMARK    5  A    between atoms: C_15  and  C_17 
ROOT
ATOM      1  N   UNL d   1       3.530   3.024  -3.816  0.00  0.00    -0.324 N 
ATOM      2  C   UNL d   1       2.501   2.231  -4.294  0.00  0.00     0.244 C 
ATOM      3  O   UNL d   1       2.170   2.262  -5.479  0.00  0.00    -0.271 OA
ATOM      4  H   UNL d   1       3.421   3.416  -2.889  0.00  0.00     0.169 HD
ENDROOT
BRANCH   2   5
ATOM      5  C   UNL d   1       1.736   1.299  -3.308  0.00  0.00     0.173 C 
ATOM      6  C   UNL d   1       2.296   1.325  -1.883  0.00  0.00     0.042 C 
BRANCH   5   7
ATOM      7  N   UNL d   1       1.698  -0.098  -3.819  0.00  0.00    -0.344 N 
ATOM      8  C   UNL d   1       1.095  -0.453  -5.021  0.00  0.00     0.252 C 
ATOM      9  O   UNL d   1       0.512   0.308  -5.781  0.00  0.00    -0.268 OA
ATOM     10  H   UNL d   1       2.015  -0.844  -3.214  0.00  0.00     0.163 HD
BRANCH   8  11
ATOM     11  C   UNL d   1       1.093  -1.891  -5.384  0.00  0.00     0.032 A 
ATOM     12  C   UNL d   1       1.434  -2.302  -6.684  0.00  0.00     0.017 A 
ATOM     13  C   UNL d   1       1.187  -3.620  -7.087  0.00  0.00     0.001 A 
ATOM     14  C   UNL d   1       0.636  -4.531  -6.185  0.00  0.00     0.000 A 
ATOM     15  C   UNL d   1       0.313  -4.124  -4.889  0.00  0.00     0.001 A 
ATOM     16  C   UNL d   1       0.534  -2.805  -4.490  0.00  0.00     0.017 A 
ENDBRANCH   8  11
ENDBRANCH   5   7
ENDBRANCH   2   5
BRANCH   1  17
ATOM     17  C   UNL d   1       4.492   3.661  -4.663  0.00  0.00     0.051 C 
ATOM     18  C   UNL d   1       5.145   4.792  -4.130  0.00  0.00     0.031 C 
ATOM     19  C   UNL d   1       6.074   5.515  -4.891  0.00  0.00     0.002 C 
ATOM     20  C   UNL d   1       6.312   5.165  -6.213  0.00  0.00     0.002 C 
ATOM     21  C   UNL d   1       5.654   4.073  -6.761  0.00  0.00     0.021 C 
ATOM     22  C   UNL d   1       4.848   3.240  -5.970  0.00  0.00     0.026 C 
BRANCH  22  23
ATOM     23  S   UNL d   1       4.576   1.654  -6.791  0.00  0.00    -0.132 SA
ATOM     24  C   UNL d   1       4.895   0.473  -5.459  0.00  0.00     0.095 C 
ENDBRANCH  22  23
ENDBRANCH   1  17
TORSDOF 5
