@<TRIPOS>MOLECULE
*****
 38 40 0 0 0
SMALL
GASTEIGER

@<TRIPOS>ATOM
      1 C           0.9356   -0.0619   -0.0043 C.3     1  UNL1        0.0790
      2 O           2.3548   -0.0080    0.1079 O.3     1  UNL1       -0.4914
      3 C           2.9798   -1.2224    0.1510 C.ar    1  UNL1        0.1629
      4 C           2.5816   -2.3420   -0.5827 C.ar    1  UNL1       -0.0162
      5 C           3.3438   -3.5121   -0.5641 C.ar    1  UNL1       -0.0575
      6 C           4.5769   -3.5261    0.0700 C.ar    1  UNL1       -0.0508
      7 C           4.9295   -2.4603    0.8901 C.ar    1  UNL1        0.0222
      8 C           6.0916   -2.5785    1.7442 C.ar    1  UNL1       -0.0289
      9 C           6.3626   -1.6246    2.6397 C.ar    1  UNL1        0.1505
     10 C           7.5072   -1.7393    3.5842 C.2     1  UNL1        0.2514
     11 N           8.2998   -2.8326    3.5387 N.am    1  UNL1       -0.3251
     12 O           7.6862   -0.8210    4.3873 O.2     1  UNL1       -0.2701
     13 C           5.4877   -0.4349    2.6981 C.ar    1  UNL1        0.4091
     14 N           5.6645    0.5229    3.5396 N.2     1  UNL1       -0.0981
     15 N           4.9229    1.5495    3.6795 N.pl3   1  UNL1       -0.1231
     16 C           5.1794    2.5246    4.6491 C.2     1  UNL1        0.1113
     17 C           4.2652    3.0392    5.4822 C.2     1  UNL1        0.0717
     18 N           4.5401    3.9371    6.4710 N.2     1  UNL1       -0.1634
     19 N           5.6867    4.3715    6.7204 N.am    1  UNL1       -0.0787
     20 C           6.7745    4.0224    5.9502 C.2     1  UNL1        0.2773
     21 O           7.9152    4.4326    6.1987 O.2     1  UNL1       -0.2701
     22 C           6.5734    3.0878    4.7730 C.3     1  UNL1        0.1574
     23 CL          6.9441    3.9730    3.2623 Cl      1  UNL1       -0.1051
     24 O           4.4207   -0.2789    1.8458 O.2     1  UNL1       -0.3982
     25 C           4.1235   -1.3241    0.9437 C.ar    1  UNL1        0.1831
     26 H           0.5713    0.9625   -0.1208 H       1  UNL1        0.0660
     27 H           0.5188   -0.4755    0.9184 H       1  UNL1        0.0660
     28 H           0.5868   -0.6243   -0.8748 H       1  UNL1        0.0660
     29 H           1.6989   -2.3359   -1.2129 H       1  UNL1        0.0655
     30 H           2.9820   -4.4115   -1.0567 H       1  UNL1        0.0619
     31 H           5.2337   -4.3834   -0.0577 H       1  UNL1        0.0625
     32 H           6.6666   -3.4899    1.6434 H       1  UNL1        0.0635
     33 H           8.1962   -3.6154    2.9067 H       1  UNL1        0.1453
     34 H           9.0883   -2.8930    4.1743 H       1  UNL1        0.1453
     35 H           6.4766    0.3853    4.1716 H       1  UNL1        0.4880
     36 H           4.0373    1.6683    3.1710 H       1  UNL1        0.2218
     37 H           3.2265    2.7174    5.4525 H       1  UNL1        0.0864
     38 H           7.3003    2.2758    4.8808 H       1  UNL1        0.0628
@<TRIPOS>UNITY_ATOM_ATTR
14 1
charge 1
@<TRIPOS>BOND
     1     1     2    1
     2     2     3    1
     3     3     4   ar
     4     4     5   ar
     5     5     6   ar
     6     6     7   ar
     7     7     8   ar
     8     8     9   ar
     9     9    10    1
    10    10    11   am
    11    10    12    2
    12     9    13   ar
    13    13    14    2
    14    14    15    1
    15    15    16    1
    16    16    17    2
    17    17    18    1
    18    18    19    2
    19    19    20    1
    20    20    21    2
    21    20    22    1
    22    16    22    1
    23    13    24   ar
    24    24    25   ar
    25     3    25   ar
    26     7    25   ar
    27    22    23    1
    28     1    26    1
    29     1    27    1
    30     1    28    1
    31     4    29    1
    32     5    30    1
    33     6    31    1
    34     8    32    1
    35    11    33    1
    36    11    34    1
    37    14    35    1
    38    15    36    1
    39    17    37    1
    40    22    38    1
