@<TRIPOS>MOLECULE
*****
 43 43 0 0 0
SMALL
GASTEIGER

@<TRIPOS>ATOM
      1 C           2.4714   -0.0051   -0.0126 C.3     1  UNL1       -0.0397
      2 C           0.9697    0.0003    0.0020 C.ar    1  UNL1       -0.0502
      3 C           0.2322   -1.1862    0.0035 C.ar    1  UNL1       -0.0554
      4 C          -1.1722   -1.1472   -0.0024 C.ar    1  UNL1       -0.0197
      5 C          -1.8653    0.0727   -0.0105 C.ar    1  UNL1        0.1212
      6 O          -3.2350   -0.0116   -0.0301 O.3     1  UNL1       -0.4827
      7 C          -4.0093    1.1973   -0.0555 C.3     1  UNL1        0.1666
      8 C          -5.5403    0.8938   -0.0907 C.2     1  UNL1        0.2667
      9 O          -6.0089   -0.2477   -0.1020 O.2     1  UNL1       -0.2705
     10 N          -6.3782    2.0015   -0.1102 N.am    1  UNL1       -0.2323
     11 N          -7.8309    1.8561   -0.1444 N.am    1  UNL1       -0.2455
     12 C          -8.6257    3.0134   -0.1598 C.2     1  UNL1        0.1530
     13 S          -7.8527    4.5213   -0.1658 S.2     1  UNL1       -0.0170
     14 N         -10.0286    2.8041   -0.1736 N.am    1  UNL1       -0.2667
     15 C         -10.9912    3.8229   -0.1245 C.2     1  UNL1        0.2187
     16 O         -10.6854    5.0055    0.0646 O.2     1  UNL1       -0.2754
     17 C         -12.4891    3.4850   -0.2467 C.3     1  UNL1        0.0266
     18 C         -13.3412    4.8022   -0.2918 C.3     1  UNL1       -0.0385
     19 C         -13.0222    5.6571   -1.5302 C.3     1  UNL1       -0.0622
     20 C         -14.8492    4.5366   -0.2775 C.3     1  UNL1       -0.0622
     21 C          -1.1255    1.2528   -0.0007 C.ar    1  UNL1       -0.0197
     22 C           0.2775    1.2165    0.0042 C.ar    1  UNL1       -0.0554
     23 H           2.8758   -1.0227    0.0007 H       1  UNL1        0.0278
     24 H           2.8620    0.5220    0.8644 H       1  UNL1        0.0278
     25 H           2.8403    0.4895   -0.9178 H       1  UNL1        0.0278
     26 H           0.7416   -2.1485    0.0053 H       1  UNL1        0.0621
     27 H          -1.7227   -2.0861   -0.0039 H       1  UNL1        0.0654
     28 H          -3.7533    1.7794   -0.9504 H       1  UNL1        0.0795
     29 H          -3.7952    1.7866    0.8453 H       1  UNL1        0.0795
     30 H          -6.0413    2.9658   -0.1003 H       1  UNL1        0.1729
     31 H          -8.1616    0.8921   -0.1420 H       1  UNL1        0.1718
     32 H         -10.3704    1.8522   -0.2097 H       1  UNL1        0.1565
     33 H         -12.7875    2.9042    0.6353 H       1  UNL1        0.0361
     34 H         -12.6908    2.8863   -1.1409 H       1  UNL1        0.0361
     35 H         -13.1114    5.3984    0.6036 H       1  UNL1        0.0300
     36 H         -13.2624    5.1128   -2.4479 H       1  UNL1        0.0232
     37 H         -11.9710    5.9483   -1.5891 H       1  UNL1        0.0232
     38 H         -13.5965    6.5903   -1.5192 H       1  UNL1        0.0232
     39 H         -15.1581    3.9743   -1.1640 H       1  UNL1        0.0232
     40 H         -15.4063    5.4837   -0.2783 H       1  UNL1        0.0232
     41 H         -15.1515    3.9805    0.6140 H       1  UNL1        0.0232
     42 H          -1.6035    2.2245    0.0009 H       1  UNL1        0.0654
     43 H           0.8312    2.1532    0.0058 H       1  UNL1        0.0621
@<TRIPOS>BOND
     1     1     2    1
     2     2     3   ar
     3     3     4   ar
     4     4     5   ar
     5     5     6    1
     6     6     7    1
     7     7     8    1
     8     8     9    2
     9     8    10   am
    10    10    11    1
    11    11    12    1
    12    12    13    2
    13    12    14    1
    14    14    15   am
    15    15    16    2
    16    15    17    1
    17    17    18    1
    18    18    19    1
    19    18    20    1
    20     5    21   ar
    21    21    22   ar
    22     2    22   ar
    23     1    23    1
    24     1    24    1
    25     1    25    1
    26     3    26    1
    27     4    27    1
    28     7    28    1
    29     7    29    1
    30    10    30    1
    31    11    31    1
    32    14    32    1
    33    17    33    1
    34    17    34    1
    35    18    35    1
    36    19    36    1
    37    19    37    1
    38    19    38    1
    39    20    39    1
    40    20    40    1
    41    20    41    1
    42    21    42    1
    43    22    43    1
