@<TRIPOS>MOLECULE
*****
 68 69 0 0 0
SMALL
GASTEIGER

@<TRIPOS>ATOM
      1 C          13.9630   -4.4485   -1.7207 C.3     1  UNL1       -0.0653
      2 C          13.4845   -3.0213   -1.5389 C.3     1  UNL1       -0.0559
      3 C          12.3283   -2.7247   -2.4773 C.3     1  UNL1       -0.0533
      4 C          11.8442   -1.2857   -2.3045 C.3     1  UNL1       -0.0516
      5 C          10.6718   -1.0688   -3.2449 C.3     1  UNL1       -0.0371
      6 C          10.0213    0.2999   -3.1467 C.3     1  UNL1        0.0166
      7 N           8.9060    0.5346   -4.1027 N.am    1  UNL1       -0.2751
      8 C           8.2312   -0.5628   -4.7671 C.2     1  UNL1        0.2923
      9 O           8.1992   -1.6963   -4.3031 O.2     1  UNL1       -0.2604
     10 C           7.8343   -0.4540   -6.2019 C.1     1  UNL1       -0.0025
     11 C           7.7628   -0.3487   -7.3940 C.1     1  UNL1       -0.0566
     12 C           7.6443   -0.0819   -8.8370 C.ar    1  UNL1        0.0254
     13 C           6.3868   -0.2978   -9.3715 C.ar    1  UNL1       -0.0463
     14 C           6.1060    0.0082  -10.7046 C.ar    1  UNL1       -0.0606
     15 C           7.0475    0.6452  -11.5101 C.ar    1  UNL1       -0.0617
     16 C           8.3052    0.9195  -10.9941 C.ar    1  UNL1       -0.0606
     17 C           8.6312    0.4607   -9.6982 C.ar    1  UNL1       -0.0463
     18 C           8.3872    1.9599   -4.0985 C.3     1  UNL1        0.1350
     19 C           6.8560    1.8921   -3.8030 C.2     1  UNL1        0.2384
     20 O           6.0599    1.4583   -4.6389 O.2     1  UNL1       -0.2734
     21 N           6.4205    2.2204   -2.5267 N.am    1  UNL1       -0.3135
     22 C           4.9997    2.1261   -2.2203 C.3     1  UNL1        0.0116
     23 C           4.6578    2.5715   -0.8038 C.3     1  UNL1       -0.0376
     24 C           3.1552    2.4579   -0.5330 C.3     1  UNL1       -0.0545
     25 C           2.8226    2.9046    0.8811 C.3     1  UNL1       -0.0652
     26 C           8.7146    2.7889   -5.3325 C.ar    1  UNL1        0.0648
     27 C           9.1100    2.2176   -6.5165 C.ar    1  UNL1        0.1292
     28 O           9.8966    1.1048   -6.5785 O.3     1  UNL1       -0.5062
     29 C           8.9007    2.8428   -7.7261 C.ar    1  UNL1        0.0219
     30 C           8.6995    4.1804   -7.8171 C.ar    1  UNL1        0.1238
     31 O           8.6931    4.7572   -9.0475 O.3     1  UNL1       -0.5065
     32 C           8.6523    4.8869   -6.6446 C.ar    1  UNL1        0.0219
     33 C           8.6099    4.1839   -5.4136 C.ar    1  UNL1        0.1292
     34 O           8.5692    4.9075   -4.2552 O.3     1  UNL1       -0.5062
     35 H          14.7973   -4.6546   -1.0455 H       1  UNL1        0.0230
     36 H          14.2998   -4.6162   -2.7488 H       1  UNL1        0.0230
     37 H          13.1584   -5.1587   -1.5039 H       1  UNL1        0.0230
     38 H          14.3080   -2.3271   -1.7386 H       1  UNL1        0.0263
     39 H          13.1672   -2.8684   -0.5012 H       1  UNL1        0.0263
     40 H          11.5030   -3.4223   -2.2786 H       1  UNL1        0.0265
     41 H          12.6359   -2.8900   -3.5181 H       1  UNL1        0.0265
     42 H          12.6556   -0.5814   -2.5173 H       1  UNL1        0.0266
     43 H          11.5241   -1.1269   -1.2678 H       1  UNL1        0.0266
     44 H           9.9354   -1.8261   -2.9727 H       1  UNL1        0.0280
     45 H          10.9902   -1.2453   -4.2796 H       1  UNL1        0.0280
     46 H          10.7911    1.0550   -3.3750 H       1  UNL1        0.0465
     47 H           9.6829    0.5029   -2.1235 H       1  UNL1        0.0465
     48 H           5.6162   -0.7165   -8.7326 H       1  UNL1        0.0630
     49 H           5.1315   -0.2508  -11.1007 H       1  UNL1        0.0618
     50 H           6.7997    0.9056  -12.5363 H       1  UNL1        0.0618
     51 H           9.0176    1.4870  -11.5968 H       1  UNL1        0.0618
     52 H           9.6517    0.6619   -9.3618 H       1  UNL1        0.0630
     53 H           8.8626    2.4628   -3.2413 H       1  UNL1        0.0650
     54 H           7.0590    2.5713   -1.8243 H       1  UNL1        0.1487
     55 H           4.6895    1.0853   -2.3746 H       1  UNL1        0.0462
     56 H           4.4578    2.7405   -2.9495 H       1  UNL1        0.0462
     57 H           4.9797    3.6093   -0.6553 H       1  UNL1        0.0280
     58 H           5.2090    1.9596   -0.0798 H       1  UNL1        0.0280
     59 H           2.8242    1.4217   -0.6716 H       1  UNL1        0.0263
     60 H           2.5954    3.0739   -1.2471 H       1  UNL1        0.0263
     61 H           3.3465    2.2861    1.6168 H       1  UNL1        0.0230
     62 H           1.7476    2.8203    1.0677 H       1  UNL1        0.0230
     63 H           3.1156    3.9476    1.0378 H       1  UNL1        0.0230
     64 H           9.8441    0.6725   -5.7109 H       1  UNL1        0.2922
     65 H           8.9877    2.3075   -8.6326 H       1  UNL1        0.0691
     66 H           8.7497    4.0430   -9.7152 H       1  UNL1        0.2921
     67 H           8.6482    5.9656   -6.7126 H       1  UNL1        0.0691
     68 H           8.6942    5.8393   -4.5147 H       1  UNL1        0.2922
@<TRIPOS>BOND
     1     1     2    1
     2     2     3    1
     3     3     4    1
     4     4     5    1
     5     5     6    1
     6     6     7    1
     7     7     8   am
     8     8     9    2
     9     8    10    1
    10    10    11    3
    11    11    12    1
    12    12    13   ar
    13    13    14   ar
    14    14    15   ar
    15    15    16   ar
    16    16    17   ar
    17    12    17   ar
    18    19    20    2
    19    19    21   am
    20    21    22    1
    21    22    23    1
    22    23    24    1
    23    24    25    1
    24    18    26    1
    25    26    27   ar
    26    27    28    1
    27    27    29   ar
    28    29    30   ar
    29    30    31    1
    30    30    32   ar
    31    32    33   ar
    32    26    33   ar
    33    33    34    1
    34    18    19    1
    35    18     7    1
    36     1    35    1
    37     1    36    1
    38     1    37    1
    39     2    38    1
    40     2    39    1
    41     3    40    1
    42     3    41    1
    43     4    42    1
    44     4    43    1
    45     5    44    1
    46     5    45    1
    47     6    46    1
    48     6    47    1
    49    13    48    1
    50    14    49    1
    51    15    50    1
    52    16    51    1
    53    17    52    1
    54    18    53    1
    55    21    54    1
    56    22    55    1
    57    22    56    1
    58    23    57    1
    59    23    58    1
    60    24    59    1
    61    24    60    1
    62    25    61    1
    63    25    62    1
    64    25    63    1
    65    28    64    1
    66    29    65    1
    67    31    66    1
    68    32    67    1
    69    34    68    1
