@<TRIPOS>MOLECULE
*****
 33 34 0 0 0
SMALL
GASTEIGER

@<TRIPOS>ATOM
      1 C           2.4513   -0.3528    0.4995 C.3     1  UNL1       -0.0380
      2 C           0.9871   -0.1136    0.2921 C.ar    1  UNL1       -0.0292
      3 C           0.2252   -1.2760    0.1496 C.ar    1  UNL1       -0.0564
      4 C          -1.1548   -1.2309    0.0368 C.ar    1  UNL1       -0.0493
      5 C          -1.8241   -0.0097    0.0492 C.ar    1  UNL1        0.0383
      6 C          -3.3220    0.0401   -0.0346 C.2     1  UNL1        0.2416
      7 N          -4.0057   -1.1576   -0.0674 N.am    1  UNL1       -0.3253
      8 O          -3.9289    1.0906   -0.0612 O.2     1  UNL1       -0.2704
      9 C          -1.0669    1.1824    0.1064 C.ar    1  UNL1       -0.0281
     10 C           0.3509    1.1411    0.1696 C.ar    1  UNL1        0.0373
     11 N           1.0541    2.3716    0.0174 N.am    1  UNL1       -0.2812
     12 C           2.4062    2.5804   -0.2115 C.2     1  UNL1        0.2497
     13 O           3.0211    3.3709    0.5063 O.2     1  UNL1       -0.2698
     14 C           3.1531    1.8464   -1.3101 C.ar    1  UNL1        0.0554
     15 C           4.5568    1.7061   -1.1198 C.ar    1  UNL1       -0.0468
     16 C           5.3042    0.7837   -1.8731 C.ar    1  UNL1       -0.0426
     17 C           4.6551   -0.0532   -2.7739 C.ar    1  UNL1        0.0424
     18 CL          5.5316   -1.2308   -3.6683 Cl      1  UNL1       -0.0835
     19 C           3.2843    0.0601   -2.9677 C.ar    1  UNL1       -0.0243
     20 C           2.5491    1.0737   -2.3302 C.ar    1  UNL1        0.0544
     21 CL          0.8950    1.1517   -2.8279 Cl      1  UNL1       -0.0827
     22 H           2.7060   -1.4009    0.6652 H       1  UNL1        0.0278
     23 H           2.8806    0.2747    1.2819 H       1  UNL1        0.0278
     24 H           2.9706   -0.1982   -0.4210 H       1  UNL1        0.0278
     25 H           0.7220   -2.2422    0.1075 H       1  UNL1        0.0621
     26 H          -1.6639   -2.1804   -0.0563 H       1  UNL1        0.0625
     27 H          -3.5943   -2.0748   -0.0398 H       1  UNL1        0.1453
     28 H          -5.0162   -1.1154   -0.0930 H       1  UNL1        0.1453
     29 H          -1.5948    2.1346    0.0333 H       1  UNL1        0.0644
     30 H           0.5386    3.2259    0.2090 H       1  UNL1        0.1551
     31 H           5.0678    2.2413   -0.3166 H       1  UNL1        0.0626
     32 H           6.3749    0.6765   -1.7080 H       1  UNL1        0.0632
     33 H           2.7643   -0.6843   -3.5682 H       1  UNL1        0.0647
@<TRIPOS>BOND
     1     1     2    1
     2     2     3   ar
     3     3     4   ar
     4     4     5   ar
     5     5     6    1
     6     6     7   am
     7     6     8    2
     8     5     9   ar
     9     9    10   ar
    10     2    10   ar
    11    10    11    1
    12    11    12   am
    13    12    13    2
    14    12    14    1
    15    14    15   ar
    16    15    16   ar
    17    16    17   ar
    18    17    18    1
    19    17    19   ar
    20    19    20   ar
    21    14    20   ar
    22    20    21    1
    23     1    22    1
    24     1    23    1
    25     1    24    1
    26     3    25    1
    27     4    26    1
    28     7    27    1
    29     7    28    1
    30     9    29    1
    31    11    30    1
    32    15    31    1
    33    16    32    1
    34    19    33    1
