@<TRIPOS>MOLECULE
*****
 50 53 0 0 0
SMALL
GASTEIGER

@<TRIPOS>ATOM
      1 C           1.0887   -0.0762    0.0346 C.3     1  UNL1        0.0788
      2 O           2.5067    0.0518    0.0839 O.3     1  UNL1       -0.4951
      3 C           3.1656   -0.7293    0.9922 C.ar    1  UNL1        0.1202
      4 C           4.3801   -0.2291    1.4667 C.ar    1  UNL1       -0.0182
      5 C           5.2206   -1.0190    2.2777 C.ar    1  UNL1       -0.0359
      6 C           4.8184   -2.2956    2.6955 C.ar    1  UNL1        0.0483
      7 N           5.6786   -3.0736    3.5611 N.pl3   1  UNL1       -0.2163
      8 S           5.1632   -4.5624    4.1995 S.O2    1  UNL1        0.0723
      9 O           3.9610   -4.3307    4.9566 O.2     1  UNL1       -0.1500
     10 O           5.1780   -5.5123    3.0918 O.2     1  UNL1       -0.1500
     11 C           6.3888   -5.1332    5.3906 C.ar    1  UNL1        0.1086
     12 C           6.5333   -6.4950    5.6982 C.ar    1  UNL1       -0.0333
     13 C           7.3647   -6.9250    6.8136 C.ar    1  UNL1       -0.0386
     14 C           8.1299   -6.0085    7.6072 C.ar    1  UNL1        0.0339
     15 N           9.0541   -6.3849    8.7808 N.am    1  UNL1       -0.2790
     16 C           9.7901   -5.4098    9.6267 C.2     1  UNL1        0.2837
     17 O           9.7943   -4.2140    9.3122 O.2     1  UNL1       -0.2665
     18 C          10.8604   -5.7361   10.8987 C.ar    1  UNL1        0.1938
     19 C          12.0609   -5.6976   10.2992 C.ar    1  UNL1        0.0333
     20 C          12.9554   -6.2709   11.3336 C.ar    1  UNL1        0.1932
     21 O          13.0799   -7.4848   11.5506 O.2     1  UNL1       -0.2870
     22 C          13.4221   -5.3462   12.3198 C.ar    1  UNL1        0.0640
     23 C          14.7577   -5.3765   12.8120 C.ar    1  UNL1       -0.0474
     24 C          15.1708   -4.4929   13.7957 C.ar    1  UNL1       -0.0609
     25 C          14.2472   -3.5275   14.1923 C.ar    1  UNL1       -0.0582
     26 C          12.8663   -3.5406   13.7030 C.ar    1  UNL1       -0.0186
     27 C          12.4014   -4.5168   12.7663 C.ar    1  UNL1        0.1395
     28 O          11.0301   -4.7349   12.2008 O.2     1  UNL1       -0.4500
     29 C           7.9484   -4.6720    7.2167 C.ar    1  UNL1       -0.0386
     30 C           7.1090   -4.2306    6.1532 C.ar    1  UNL1       -0.0333
     31 C           3.5986   -2.7766    2.2126 C.ar    1  UNL1       -0.0359
     32 C           2.7769   -2.0057    1.3763 C.ar    1  UNL1       -0.0182
     33 H           0.7314    0.4922   -0.8310 H       1  UNL1        0.0660
     34 H           0.6513    0.3657    0.9342 H       1  UNL1        0.0660
     35 H           0.7407   -1.1041   -0.1027 H       1  UNL1        0.0660
     36 H           4.6747    0.7843    1.1979 H       1  UNL1        0.0655
     37 H           6.1917   -0.6144    2.5498 H       1  UNL1        0.0638
     38 H           6.5022   -2.6254    3.9474 H       1  UNL1        0.1737
     39 H           5.9752   -7.2259    5.1003 H       1  UNL1        0.0638
     40 H           7.3214   -7.9933    7.0324 H       1  UNL1        0.0637
     41 H           9.1425   -7.3954    8.8944 H       1  UNL1        0.1552
     42 H          12.2720   -4.6184   10.1156 H       1  UNL1        0.0695
     43 H          15.4636   -6.1064   12.4232 H       1  UNL1        0.0626
     44 H          16.1805   -4.5530   14.2194 H       1  UNL1        0.0618
     45 H          14.6265   -2.7575   14.8785 H       1  UNL1        0.0619
     46 H          12.2561   -2.7262   14.0896 H       1  UNL1        0.0654
     47 H           8.4388   -3.8753    7.7526 H       1  UNL1        0.0637
     48 H           7.0188   -3.1624    5.9884 H       1  UNL1        0.0638
     49 H           3.2501   -3.7756    2.4528 H       1  UNL1        0.0638
     50 H           1.8581   -2.4598    1.0238 H       1  UNL1        0.0655
@<TRIPOS>BOND
     1     1     2    1
     2     2     3    1
     3     3     4   ar
     4     4     5   ar
     5     5     6   ar
     6     6     7    1
     7     7     8    1
     8     8     9    2
     9     8    10    2
    10     8    11    1
    11    11    12   ar
    12    12    13   ar
    13    13    14   ar
    14    14    15    1
    15    15    16   am
    16    16    17    2
    17    16    18    1
    18    18    19   ar
    19    19    20   ar
    20    20    21    2
    21    20    22   ar
    22    22    23   ar
    23    23    24   ar
    24    24    25   ar
    25    25    26   ar
    26    26    27   ar
    27    22    27   ar
    28    27    28   ar
    29    18    28   ar
    30    14    29   ar
    31    29    30   ar
    32    11    30   ar
    33     6    31   ar
    34    31    32   ar
    35     3    32   ar
    36     1    33    1
    37     1    34    1
    38     1    35    1
    39     4    36    1
    40     5    37    1
    41     7    38    1
    42    12    39    1
    43    13    40    1
    44    15    41    1
    45    19    42    1
    46    23    43    1
    47    24    44    1
    48    25    45    1
    49    26    46    1
    50    29    47    1
    51    30    48    1
    52    31    49    1
    53    32    50    1
