@<TRIPOS>MOLECULE
*****
 78 82 0 0 0
SMALL
GASTEIGER

@<TRIPOS>ATOM
      1 C           2.5337   -0.0306   -0.0117 C.3     1  UNL1       -0.0396
      2 C           1.0381   -0.0263    0.0008 C.ar    1  UNL1       -0.0470
      3 C           0.2943   -1.2038   -0.0057 C.ar    1  UNL1       -0.0583
      4 C          -1.1009   -1.1478   -0.0185 C.ar    1  UNL1       -0.0546
      5 C          -1.7881    0.0861   -0.0099 C.ar    1  UNL1       -0.0031
      6 C          -3.3221    0.0478   -0.0195 C.3     1  UNL1       -0.0181
      7 C          -3.8658   -0.7081    1.2018 C.3     1  UNL1       -0.0585
      8 C          -4.0271    1.4084   -0.0732 C.3     1  UNL1       -0.0585
      9 C          -1.0167    1.2704   -0.0104 C.ar    1  UNL1        0.1243
     10 O          -1.6803    2.4583   -0.0306 O.3     1  UNL1       -0.4883
     11 C          -0.9741    3.6895   -0.0366 C.3     1  UNL1        0.1235
     12 C          -2.0134    4.8094   -0.0699 C.3     1  UNL1        0.1235
     13 O          -1.3373    6.0528    0.1233 O.3     1  UNL1       -0.4880
     14 C          -2.1232    7.1751    0.1440 C.ar    1  UNL1        0.1293
     15 C          -1.6785    8.2066   -0.7088 C.ar    1  UNL1       -0.0193
     16 C          -2.3219    9.4468   -0.7371 C.ar    1  UNL1       -0.0583
     17 C          -3.4174    9.6689    0.0894 C.ar    1  UNL1       -0.0609
     18 C          -3.8585    8.6588    0.9489 C.ar    1  UNL1       -0.0496
     19 C          -3.2126    7.4123    1.0031 C.ar    1  UNL1        0.0362
     20 C          -3.6756    6.4513    2.0449 C.2     1  UNL1        0.0563
     21 N          -4.8367    6.5601    2.6297 N.2     1  UNL1       -0.1874
     22 N          -5.1431    5.5897    3.5508 N.pl3   1  UNL1       -0.2049
     23 C          -6.2406    5.7728    4.4309 C.ar    1  UNL1        0.2409
     24 N          -7.3707    6.2782    3.9425 N.ar    1  UNL1       -0.1795
     25 C          -8.3851    6.4151    4.7908 C.ar    1  UNL1        0.2237
     26 N          -9.5747    6.9045    4.3267 N.pl3   1  UNL1       -0.2995
     27 C         -10.2220    6.4498    3.1141 C.3     1  UNL1        0.0149
     28 C         -10.7611    7.7310    2.4872 C.3     1  UNL1       -0.0357
     29 C         -11.1323    8.5769    3.7000 C.3     1  UNL1       -0.0357
     30 C         -10.1335    8.1593    4.7981 C.3     1  UNL1        0.0149
     31 N          -8.3013    6.0653    6.0800 N.ar    1  UNL1       -0.1807
     32 C          -7.1475    5.5561    6.5048 C.ar    1  UNL1        0.2237
     33 N          -7.0409    5.2115    7.8308 N.pl3   1  UNL1       -0.2995
     34 C          -6.0689    5.7693    8.7438 C.3     1  UNL1        0.0149
     35 C          -5.7303    4.5818    9.6412 C.3     1  UNL1       -0.0357
     36 C          -7.0707    3.8659    9.7797 C.3     1  UNL1       -0.0357
     37 C          -7.8125    4.1500    8.4542 C.3     1  UNL1        0.0149
     38 N          -6.0909    5.3763    5.7042 N.ar    1  UNL1       -0.1795
     39 C           0.3754    1.2022    0.0009 C.ar    1  UNL1       -0.0167
     40 H           2.9342   -1.0472    0.0023 H       1  UNL1        0.0278
     41 H           2.9123    0.5030    0.8662 H       1  UNL1        0.0278
     42 H           2.8926    0.4700   -0.9172 H       1  UNL1        0.0278
     43 H           0.7902   -2.1716   -0.0036 H       1  UNL1        0.0620
     44 H          -1.6518   -2.0873   -0.0348 H       1  UNL1        0.0622
     45 H          -3.6225   -0.4984   -0.9254 H       1  UNL1        0.0345
     46 H          -3.5386   -0.2311    2.1323 H       1  UNL1        0.0235
     47 H          -3.5330   -1.7504    1.2259 H       1  UNL1        0.0235
     48 H          -4.9615   -0.7216    1.1935 H       1  UNL1        0.0235
     49 H          -3.7897    1.9996    0.8205 H       1  UNL1        0.0235
     50 H          -5.1146    1.3126   -0.1062 H       1  UNL1        0.0235
     51 H          -3.7321    1.9649   -0.9701 H       1  UNL1        0.0235
     52 H          -0.3233    3.7672   -0.9138 H       1  UNL1        0.0731
     53 H          -0.3726    3.7848    0.8759 H       1  UNL1        0.0731
     54 H          -2.7295    4.5924    0.7207 H       1  UNL1        0.0731
     55 H          -2.5763    4.7980   -1.0114 H       1  UNL1        0.0731
     56 H          -0.8149    8.0528   -1.3546 H       1  UNL1        0.0654
     57 H          -1.9660   10.2402   -1.3920 H       1  UNL1        0.0619
     58 H          -3.9215   10.6326    0.0838 H       1  UNL1        0.0618
     59 H          -4.6982    8.8639    1.6104 H       1  UNL1        0.0625
     60 H          -2.9938    5.6348    2.3205 H       1  UNL1        0.0852
     61 H          -4.4805    4.8985    3.8757 H       1  UNL1        0.1775
     62 H         -11.0686    5.8190    3.4152 H       1  UNL1        0.0464
     63 H          -9.5980    5.8777    2.4225 H       1  UNL1        0.0464
     64 H         -11.6176    7.5503    1.8278 H       1  UNL1        0.0281
     65 H          -9.9815    8.2297    1.9001 H       1  UNL1        0.0281
     66 H         -12.1588    8.3511    4.0139 H       1  UNL1        0.0281
     67 H         -11.0904    9.6489    3.4773 H       1  UNL1        0.0281
     68 H         -10.6644    8.0071    5.7429 H       1  UNL1        0.0464
     69 H          -9.3765    8.9398    4.9324 H       1  UNL1        0.0464
     70 H          -6.5590    6.5436    9.3504 H       1  UNL1        0.0464
     71 H          -5.1828    6.2034    8.2751 H       1  UNL1        0.0464
     72 H          -5.3138    4.8810   10.6092 H       1  UNL1        0.0281
     73 H          -5.0036    3.9266    9.1467 H       1  UNL1        0.0281
     74 H          -7.6295    4.2782   10.6293 H       1  UNL1        0.0281
     75 H          -6.9426    2.7939    9.9691 H       1  UNL1        0.0281
     76 H          -8.8376    4.4703    8.6697 H       1  UNL1        0.0464
     77 H          -7.8397    3.2440    7.8405 H       1  UNL1        0.0464
     78 H           0.9766    2.1051    0.0049 H       1  UNL1        0.0657
@<TRIPOS>BOND
     1     1     2    1
     2     2     3   ar
     3     3     4   ar
     4     4     5   ar
     5     5     6    1
     6     6     7    1
     7     6     8    1
     8     5     9   ar
     9     9    10    1
    10    10    11    1
    11    11    12    1
    12    12    13    1
    13    13    14    1
    14    14    15   ar
    15    15    16   ar
    16    16    17   ar
    17    17    18   ar
    18    18    19   ar
    19    14    19   ar
    20    19    20    1
    21    20    21    2
    22    21    22    1
    23    22    23    1
    24    23    24   ar
    25    24    25   ar
    26    25    26    1
    27    26    27    1
    28    27    28    1
    29    28    29    1
    30    29    30    1
    31    26    30    1
    32    25    31   ar
    33    31    32   ar
    34    32    33    1
    35    33    34    1
    36    34    35    1
    37    35    36    1
    38    36    37    1
    39    33    37    1
    40    32    38   ar
    41    23    38   ar
    42     9    39   ar
    43     2    39   ar
    44     1    40    1
    45     1    41    1
    46     1    42    1
    47     3    43    1
    48     4    44    1
    49     6    45    1
    50     7    46    1
    51     7    47    1
    52     7    48    1
    53     8    49    1
    54     8    50    1
    55     8    51    1
    56    11    52    1
    57    11    53    1
    58    12    54    1
    59    12    55    1
    60    15    56    1
    61    16    57    1
    62    17    58    1
    63    18    59    1
    64    20    60    1
    65    22    61    1
    66    27    62    1
    67    27    63    1
    68    28    64    1
    69    28    65    1
    70    29    66    1
    71    29    67    1
    72    30    68    1
    73    30    69    1
    74    34    70    1
    75    34    71    1
    76    35    72    1
    77    35    73    1
    78    36    74    1
    79    36    75    1
    80    37    76    1
    81    37    77    1
    82    39    78    1
