@<TRIPOS>MOLECULE
*****
 45 47 0 0 0
SMALL
GASTEIGER

@<TRIPOS>ATOM
      1 C           3.0194   -1.5417   -0.0267 C.3     1  UNL1       -0.0463
      2 C           2.5860   -0.0836   -0.2068 C.3     1  UNL1        0.0258
      3 C           1.0355   -0.0036   -0.0699 C.3     1  UNL1       -0.0094
      4 C           0.4858    0.5508    1.2397 C.ar    1  UNL1       -0.0454
      5 C           1.2926    0.9333    2.3240 C.ar    1  UNL1       -0.0551
      6 C           0.7429    1.4125    3.5143 C.ar    1  UNL1       -0.0199
      7 C          -0.6331    1.5045    3.6394 C.ar    1  UNL1        0.1169
      8 O          -1.2116    1.9598    4.7857 O.3     1  UNL1       -0.5068
      9 C          -1.4621    1.1258    2.5923 C.ar    1  UNL1       -0.0199
     10 C          -0.9081    0.6554    1.3962 C.ar    1  UNL1       -0.0551
     11 N           3.1252    0.4819   -1.4571 N.am    1  UNL1       -0.2953
     12 C           4.4860    0.7107   -1.5727 C.2     1  UNL1        0.3161
     13 O           5.3034    0.3568   -0.7189 O.2     1  UNL1       -0.2513
     14 N           4.8735    1.3521   -2.7365 N.am    1  UNL1       -0.2191
     15 N           6.2681    1.6286   -2.8798 N.pl3   1  UNL1       -0.2458
     16 C           6.7382    2.0872   -4.1338 C.ar    1  UNL1        0.1575
     17 C           6.2014    3.2370   -4.7011 C.ar    1  UNL1       -0.0152
     18 C           6.8099    3.8391   -5.8141 C.ar    1  UNL1       -0.0124
     19 C           7.9119    3.2292   -6.3934 C.ar    1  UNL1        0.1759
     20 N           8.5598    3.8595   -7.4924 N.ar    1  UNL1       -0.2201
     21 C           9.0386    5.1574   -7.5300 C.ar    1  UNL1        0.0330
     22 C           9.4667    5.3962   -8.8147 C.ar    1  UNL1       -0.0237
     23 C           9.1760    4.2078   -9.5038 C.ar    1  UNL1        0.0498
     24 N           8.6609    3.2636   -8.7103 N.ar    1  UNL1       -0.1734
     25 N           8.3890    2.0728   -5.8899 N.ar    1  UNL1       -0.1279
     26 N           7.8188    1.5278   -4.7217 N.ar    1  UNL1       -0.1309
     27 H           4.1069   -1.6352    0.0182 H       1  UNL1        0.0248
     28 H           2.6670   -2.1528   -0.8639 H       1  UNL1        0.0248
     29 H           2.6204   -1.9596    0.9041 H       1  UNL1        0.0248
     30 H           3.0784    0.4996    0.5700 H       1  UNL1        0.0499
     31 H           0.6078    0.5793   -0.8950 H       1  UNL1        0.0331
     32 H           0.6128   -1.0162   -0.1679 H       1  UNL1        0.0331
     33 H           2.3743    0.8679    2.2991 H       1  UNL1        0.0621
     34 H           1.4139    1.6928    4.3203 H       1  UNL1        0.0654
     35 H          -0.5086    2.1964    5.4130 H       1  UNL1        0.2921
     36 H          -2.5397    1.1909    2.7111 H       1  UNL1        0.0654
     37 H          -1.5800    0.3602    0.5922 H       1  UNL1        0.0621
     38 H           2.4957    0.9811   -2.0676 H       1  UNL1        0.1506
     39 H           4.2343    1.6182   -3.4725 H       1  UNL1        0.1743
     40 H           6.8432    0.8584   -2.5242 H       1  UNL1        0.1716
     41 H           5.3545    3.7209   -4.2289 H       1  UNL1        0.0654
     42 H           6.3968    4.7567   -6.2202 H       1  UNL1        0.0656
     43 H           9.0842    5.7623   -6.6358 H       1  UNL1        0.0831
     44 H           9.9265    6.2965   -9.2012 H       1  UNL1        0.0648
     45 H           9.3319    3.9916  -10.5547 H       1  UNL1        0.0848
@<TRIPOS>BOND
     1     3     4    1
     2     4     5   ar
     3     5     6   ar
     4     6     7   ar
     5     7     8    1
     6     7     9   ar
     7     9    10   ar
     8     4    10   ar
     9     2    11    1
    10    11    12   am
    11    12    13    2
    12    12    14   am
    13    14    15    1
    14    15    16    1
    15    16    17   ar
    16    17    18   ar
    17    18    19   ar
    18    19    20    1
    19    20    21   ar
    20    21    22   ar
    21    22    23   ar
    22    23    24   ar
    23    20    24   ar
    24    19    25   ar
    25    25    26   ar
    26    16    26   ar
    27     2     3    1
    28     2     1    1
    29     1    27    1
    30     1    28    1
    31     1    29    1
    32     2    30    1
    33     3    31    1
    34     3    32    1
    35     5    33    1
    36     6    34    1
    37     8    35    1
    38     9    36    1
    39    10    37    1
    40    11    38    1
    41    14    39    1
    42    15    40    1
    43    17    41    1
    44    18    42    1
    45    21    43    1
    46    22    44    1
    47    23    45    1
