REMARK  5 active torsions:
REMARK  status: ('A' for Active; 'I' for Inactive)
REMARK    1  A    between atoms: C_5  and  C_6 
REMARK       I    between atoms: C_6  and  N_8 
REMARK    2  A    between atoms: N_8  and  N_9 
REMARK       I    between atoms: N_9  and  C_10 
REMARK    3  A    between atoms: C_10  and  C_12 
REMARK    4  A    between atoms: C_12  and  C_13 
REMARK    5  A    between atoms: C_20  and  O_21 
ROOT
ATOM      1  C   UNL d   1      -2.448  -1.958  -0.060  0.00  0.00     0.272 C 
ATOM      2  O   UNL d   1      -3.521  -1.347  -0.072  0.00  0.00    -0.266 OA
ATOM      3  N   UNL d   1      -2.400  -3.334  -0.086  0.00  0.00    -0.263 N 
ATOM      4  H   UNL d   1      -1.545  -3.892  -0.070  0.00  0.00     0.190 HD
ENDROOT
BRANCH   3   5
ATOM      5  N   UNL d   1      -3.590  -4.115  -0.143  0.00  0.00    -0.267 N 
ATOM      6  C   UNL d   1      -3.385  -5.480  -0.116  0.00  0.00     0.240 C 
ATOM      7  O   UNL d   1      -2.210  -5.852  -0.035  0.00  0.00    -0.272 OA
ATOM      8  H   UNL d   1      -4.482  -3.628  -0.147  0.00  0.00     0.190 HD
BRANCH   6   9
ATOM      9  C   UNL d   1      -4.618  -6.411  -0.185  0.00  0.00     0.143 C 
BRANCH   9  10
ATOM     10  C   UNL d   1      -4.355  -7.925  -0.207  0.00  0.00    -0.048 A 
ATOM     11  C   UNL d   1      -5.419  -8.848  -0.170  0.00  0.00     0.007 A 
ATOM     12  C   UNL d   1      -5.176 -10.236  -0.189  0.00  0.00     0.002 A 
ATOM     13  C   UNL d   1      -3.871 -10.730  -0.229  0.00  0.00     0.024 A 
ATOM     14  C   UNL d   1      -2.817  -9.838  -0.266  0.00  0.00     0.034 A 
ATOM     15 CL   UNL d   1      -1.188 -10.392  -0.294  0.00  0.00    -0.084 Cl
ATOM     16  C   UNL d   1      -3.062  -8.468  -0.278  0.00  0.00     0.031 A 
ENDBRANCH   9  10
ENDBRANCH   6   9
ENDBRANCH   3   5
BRANCH   1  17
ATOM     17  C   UNL d   1      -1.152  -1.191  -0.020  0.00  0.00     0.066 A 
ATOM     18  C   UNL d   1       0.108  -1.815   0.000  0.00  0.00     0.020 A 
ATOM     19  C   UNL d   1       1.294  -1.056   0.018  0.00  0.00     0.008 A 
ATOM     20  C   UNL d   1       1.249   0.341   0.004  0.00  0.00    -0.059 A 
ATOM     21  C   UNL d   1       2.492   1.183  -0.001  0.00  0.00     0.048 C 
ATOM     22  C   UNL d   1       0.000   0.968  -0.006  0.00  0.00     0.044 A 
ATOM     23  C   UNL d   1      -1.179   0.216  -0.011  0.00  0.00     0.082 A 
BRANCH  23  24
ATOM     24  O   UNL d   1      -2.334   0.955  -0.004  0.00  0.00    -0.360 OA
ATOM     25  H   UNL d   1      -3.095   0.335  -0.001  0.00  0.00     0.217 HD
ENDBRANCH  23  24
ENDBRANCH   1  17
TORSDOF 5
