@<TRIPOS>MOLECULE
*****
 55 58 0 0 0
SMALL
GASTEIGER

@<TRIPOS>ATOM
      1 C           0.7965   -0.4524   -0.2358 C.3     1  UNL1       -0.0307
      2 C           2.3070   -0.4482   -0.2087 C.3     1  UNL1        0.0870
      3 O           2.9546   -1.2280    0.7971 O.3     1  UNL1       -0.4886
      4 C           4.3359   -1.1560    0.9461 C.ar    1  UNL1        0.1625
      5 C           4.9127   -2.4588    1.0085 C.ar    1  UNL1       -0.0091
      6 C           6.2614   -2.6411    1.3228 C.ar    1  UNL1       -0.0200
      7 C           6.8539   -3.9752    1.6766 C.2     1  UNL1       -0.0276
      8 C           8.0965   -4.1559    2.1909 C.2     1  UNL1        0.1681
      9 C           9.0083   -2.9498    2.3462 C.1     1  UNL1        0.1088
     10 N           9.7648   -1.9492    2.4750 N.1     1  UNL1       -0.1907
     11 C           8.8154   -5.4561    2.5960 C.3     1  UNL1        0.3819
     12 N           9.5516   -5.3575    3.9022 N.2     1  UNL1       -0.1710
     13 C          10.1006   -6.4789    3.9631 C.ar    1  UNL1        0.2777
     14 C           9.4702   -7.8809    4.0572 C.ar    1  UNL1        0.0162
     15 C          10.3375   -8.9018    4.1009 C.ar    1  UNL1       -0.0551
     16 C          11.7401   -8.5964    3.9869 C.ar    1  UNL1       -0.0551
     17 C          12.1091   -7.5385    3.2087 C.ar    1  UNL1        0.0162
     18 C          10.9584   -6.6282    2.7469 C.ar    1  UNL1        0.2777
     19 N          10.0770   -6.2581    1.8288 N.2     1  UNL1       -0.1710
     20 C           7.0174   -1.4723    1.3617 C.ar    1  UNL1       -0.0509
     21 C           6.5056   -0.2143    1.4521 C.ar    1  UNL1       -0.0157
     22 C           5.1705   -0.0303    1.2442 C.ar    1  UNL1        0.1624
     23 O           4.9867    1.3276    1.3971 O.3     1  UNL1       -0.4835
     24 C           3.7071    1.6316    0.9842 C.3     1  UNL1        0.1211
     25 C           3.1803    3.0083    1.0069 C.ar    1  UNL1        0.0666
     26 C           4.0311    3.9538    0.4294 C.ar    1  UNL1       -0.0489
     27 C           3.7040    5.2878    0.5062 C.ar    1  UNL1       -0.0610
     28 C           2.4589    5.6657    1.0023 C.ar    1  UNL1       -0.0553
     29 C           1.5305    4.7153    1.4281 C.ar    1  UNL1        0.0160
     30 C           1.8841    3.3688    1.4441 C.ar    1  UNL1        0.2795
     31 N           0.8438    2.4312    1.9467 N.pl3   1  UNL1        0.0800
     32 O          -0.3255    2.8128    1.9533 O.2     1  UNL1        0.0415
     33 O           1.1922    1.3087    2.3556 O.co2   1  UNL1       -0.5760
     34 H           0.4721    0.4779   -0.7377 H       1  UNL1        0.0262
     35 H           0.3897   -0.4081    0.7796 H       1  UNL1        0.0262
     36 H           0.3850   -1.3055   -0.7554 H       1  UNL1        0.0262
     37 H           2.2908    0.5616    0.1024 H       1  UNL1        0.0694
     38 H           2.8184   -0.4719   -1.1745 H       1  UNL1        0.0694
     39 H           4.2704   -3.3156    0.8085 H       1  UNL1        0.0661
     40 H           6.1667   -4.8149    1.5636 H       1  UNL1        0.0638
     41 H           8.0313   -6.1998    2.7779 H       1  UNL1        0.1997
     42 H          10.2182   -4.5405    3.8081 H       1  UNL1        0.4532
     43 H           8.5264   -8.1221    3.5603 H       1  UNL1        0.0685
     44 H          10.0255   -9.9474    4.0619 H       1  UNL1        0.0620
     45 H          12.4056   -9.1879    4.6335 H       1  UNL1        0.0620
     46 H          13.0817   -7.1354    3.5392 H       1  UNL1        0.0685
     47 H           9.7434   -6.9065    1.0915 H       1  UNL1        0.4532
     48 H           8.0783   -1.3910    1.3102 H       1  UNL1        0.0625
     49 H           7.1713    0.6219    1.6664 H       1  UNL1        0.0655
     50 H           3.1227    1.0474    1.6760 H       1  UNL1        0.0750
     51 H           3.7482    1.4110   -0.0911 H       1  UNL1        0.0750
     52 H           4.9596    3.6356   -0.0474 H       1  UNL1        0.0623
     53 H           4.4398    6.0255    0.2063 H       1  UNL1        0.0618
     54 H           2.2064    6.7178    1.0633 H       1  UNL1        0.0620
     55 H           0.5586    5.0401    1.7900 H       1  UNL1        0.0685
@<TRIPOS>UNITY_ATOM_ATTR
12 1
charge 1
19 1
charge 1
31 1
charge 1
33 1
charge -1
@<TRIPOS>BOND
     1     1     2    1
     2     2     3    1
     3     3     4    1
     4     4     5   ar
     5     5     6   ar
     6     6     7    1
     7     7     8    2
     8     8     9    1
     9     9    10    3
    10     8    11    1
    11    11    12    1
    12    12    13    2
    13    13    14   ar
    14    14    15   ar
    15    15    16   ar
    16    16    17   ar
    17    17    18   ar
    18    13    18   ar
    19    18    19    2
    20    11    19    1
    21     6    20   ar
    22    20    21   ar
    23    21    22   ar
    24     4    22   ar
    25    22    23    1
    26    23    24    1
    27    24    25    1
    28    25    26   ar
    29    26    27   ar
    30    27    28   ar
    31    28    29   ar
    32    29    30   ar
    33    25    30   ar
    34    30    31    1
    35    31    32    2
    36    31    33    1
    37     1    34    1
    38     1    35    1
    39     1    36    1
    40     2    37    1
    41     2    38    1
    42     5    39    1
    43     7    40    1
    44    11    41    1
    45    12    42    1
    46    14    43    1
    47    15    44    1
    48    16    45    1
    49    17    46    1
    50    19    47    1
    51    20    48    1
    52    21    49    1
    53    24    50    1
    54    24    51    1
    55    26    52    1
    56    27    53    1
    57    28    54    1
    58    29    55    1
