@<TRIPOS>MOLECULE
*****
 33 34 0 0 0
SMALL
GASTEIGER

@<TRIPOS>ATOM
      1 O           1.1045   -0.0855   -0.0133 O.2     1  UNL1       -0.2705
      2 C           2.3359   -0.0701    0.0966 C.2     1  UNL1        0.2667
      3 C           3.0604    0.1163    1.4137 C.3     1  UNL1        0.1666
      4 O           2.1126    0.2165    2.4726 O.3     1  UNL1       -0.4826
      5 C           2.6380    0.4248    3.7148 C.ar    1  UNL1        0.1239
      6 C           3.6685    1.3276    3.9852 C.ar    1  UNL1       -0.0197
      7 C           4.1088    1.5171    5.2985 C.ar    1  UNL1       -0.0556
      8 C           3.5157    0.8086    6.3415 C.ar    1  UNL1       -0.0262
      9 C           2.4747   -0.0697    6.0647 C.ar    1  UNL1        0.1269
     10 F           1.8979   -0.7414    7.0700 F       1  UNL1       -0.2054
     11 C           2.0230   -0.2585    4.7636 C.ar    1  UNL1        0.0153
     12 N           3.0938   -0.2155   -1.0273 N.am    1  UNL1       -0.2323
     13 N           4.4975   -0.2281   -1.1614 N.am    1  UNL1       -0.2458
     14 C           4.9956   -0.4446   -2.4501 C.2     1  UNL1        0.1470
     15 S           3.9035   -0.6831   -3.7217 S.2     1  UNL1       -0.0174
     16 N           6.3914   -0.4228   -2.5159 N.am    1  UNL1       -0.3226
     17 C           7.2436   -0.5892   -3.6831 C.3     1  UNL1        0.0224
     18 C           6.9395   -1.6111   -4.7450 C.3     1  UNL1       -0.0329
     19 C           6.8385   -0.1375   -5.0593 C.3     1  UNL1       -0.0329
     20 H           3.6589    1.0270    1.3145 H       1  UNL1        0.0795
     21 H           3.7014   -0.7581    1.5739 H       1  UNL1        0.0795
     22 H           4.1174    1.9255    3.1994 H       1  UNL1        0.0654
     23 H           4.9026    2.2293    5.5080 H       1  UNL1        0.0620
     24 H           3.8466    0.9445    7.3661 H       1  UNL1        0.0646
     25 H           1.1966   -0.9370    4.5763 H       1  UNL1        0.0683
     26 H           2.5746   -0.3408   -1.9006 H       1  UNL1        0.1729
     27 H           5.0881   -0.1262   -0.3459 H       1  UNL1        0.1718
     28 H           6.8998   -0.3000   -1.6457 H       1  UNL1        0.1480
     29 H           8.3010   -0.4568   -3.4463 H       1  UNL1        0.0498
     30 H           6.0584   -2.2246   -4.6020 H       1  UNL1        0.0284
     31 H           7.7363   -2.1658   -5.2245 H       1  UNL1        0.0284
     32 H           5.8839    0.3577   -5.1711 H       1  UNL1        0.0284
     33 H           7.5667    0.2853   -5.7394 H       1  UNL1        0.0284
@<TRIPOS>BOND
     1     1     2    2
     2     2     3    1
     3     3     4    1
     4     4     5    1
     5     5     6   ar
     6     6     7   ar
     7     7     8   ar
     8     8     9   ar
     9     9    10    1
    10     9    11   ar
    11     5    11   ar
    12     2    12   am
    13    12    13    1
    14    13    14    1
    15    14    15    2
    16    14    16    1
    17    16    17    1
    18    17    18    1
    19    18    19    1
    20    17    19    1
    21     3    20    1
    22     3    21    1
    23     6    22    1
    24     7    23    1
    25     8    24    1
    26    11    25    1
    27    12    26    1
    28    13    27    1
    29    16    28    1
    30    17    29    1
    31    18    30    1
    32    18    31    1
    33    19    32    1
    34    19    33    1
