@<TRIPOS>MOLECULE
*****
 57 61 0 0 0
SMALL
GASTEIGER

@<TRIPOS>ATOM
      1 C           5.6479   -6.4567    1.3906 C.3     1  UNL1       -0.0201
      2 C           5.1856   -5.0795    1.0371 C.2     1  UNL1        0.0702
      3 N           6.0111   -4.0965    0.8070 N.2     1  UNL1       -0.1788
      4 N           5.2269   -3.0085    0.3860 N.am    1  UNL1       -0.1578
      5 C           5.7862   -1.6732    0.1956 C.3     1  UNL1        0.1640
      6 N           6.8348   -1.7587   -0.8027 N.pl3   1  UNL1       -0.3149
      7 C           8.1084   -1.6300   -0.2618 C.ar    1  UNL1        0.0428
      8 C           9.2729   -1.9742   -0.9344 C.ar    1  UNL1       -0.0397
      9 C          10.4986   -1.9285   -0.2602 C.ar    1  UNL1       -0.0599
     10 C          10.5584   -1.5287    1.0805 C.ar    1  UNL1       -0.0606
     11 C           9.3877   -1.2034    1.7690 C.ar    1  UNL1       -0.0464
     12 C           8.1761   -1.2871    1.0939 C.ar    1  UNL1        0.0321
     13 S           6.5481   -1.0434    1.7513 S.3     1  UNL1       -0.0798
     14 C           3.8862   -3.3270    0.2217 C.2     1  UNL1        0.2715
     15 O           2.9773   -2.6753   -0.2811 O.2     1  UNL1       -0.2680
     16 C           3.7778   -4.6670    0.8664 C.2     1  UNL1        0.0774
     17 C           2.6367   -5.2205    1.3278 C.2     1  UNL1        0.0148
     18 C           2.6209   -6.4796    2.1882 C.3     1  UNL1       -0.0260
     19 N           1.3732   -4.6622    1.1167 N.pl3   1  UNL1       -0.3464
     20 C           0.1789   -5.1760    1.7345 C.3     1  UNL1        0.0128
     21 C          -1.0706   -4.3649    1.4820 C.3     1  UNL1       -0.0090
     22 C          -2.2808   -4.9796    2.1335 C.2     1  UNL1        0.0119
     23 C          -2.3928   -5.6387    3.2965 C.ar    1  UNL1        0.0512
     24 C          -1.4896   -6.0074    4.3383 C.ar    1  UNL1       -0.0482
     25 C          -1.9395   -6.6839    5.3995 C.ar    1  UNL1       -0.0608
     26 C          -3.3391   -7.0216    5.5374 C.ar    1  UNL1       -0.0555
     27 C          -4.2742   -6.6920    4.6243 C.ar    1  UNL1        0.0098
     28 C          -3.8325   -5.9559    3.4184 C.ar    1  UNL1        0.2088
     29 N          -4.5100   -5.5200    2.4234 N.2     1  UNL1       -0.2345
     30 C          -3.6165   -4.8438    1.4499 C.3     1  UNL1        0.1732
     31 C          -3.9844   -3.3820    1.2787 C.3     1  UNL1        0.0017
     32 H           6.7248   -6.5550    1.2506 H       1  UNL1        0.0293
     33 H           5.1456   -7.1916    0.7506 H       1  UNL1        0.0293
     34 H           5.4519   -6.6647    2.4445 H       1  UNL1        0.0293
     35 H           4.9984   -0.9726   -0.1034 H       1  UNL1        0.0852
     36 H           6.6396   -1.6663   -1.7836 H       1  UNL1        0.1487
     37 H           9.2349   -2.3205   -1.9619 H       1  UNL1        0.0636
     38 H          11.4098   -2.2230   -0.7762 H       1  UNL1        0.0618
     39 H          11.5190   -1.4946    1.5902 H       1  UNL1        0.0618
     40 H           9.4297   -0.9194    2.8154 H       1  UNL1        0.0629
     41 H           3.5744   -6.9523    2.3500 H       1  UNL1        0.0290
     42 H           1.9927   -7.2497    1.7318 H       1  UNL1        0.0290
     43 H           2.2463   -6.2627    3.1972 H       1  UNL1        0.0290
     44 H           1.3502   -3.7380    0.6736 H       1  UNL1        0.1458
     45 H           0.3836   -5.1725    2.7971 H       1  UNL1        0.0464
     46 H           0.0062   -6.2080    1.4045 H       1  UNL1        0.0464
     47 H          -1.2285   -4.2933    0.3994 H       1  UNL1        0.0328
     48 H          -0.9548   -3.3405    1.8559 H       1  UNL1        0.0328
     49 H          -0.4420   -5.7541    4.3296 H       1  UNL1        0.0626
     50 H          -1.2403   -6.9669    6.1847 H       1  UNL1        0.0618
     51 H          -3.5974   -7.5521    6.4522 H       1  UNL1        0.0620
     52 H          -5.3129   -6.9538    4.7817 H       1  UNL1        0.0683
     53 H          -5.5150   -5.6550    2.3256 H       1  UNL1        0.4462
     54 H          -3.6518   -5.4003    0.5061 H       1  UNL1        0.1111
     55 H          -3.9973   -2.8514    2.2381 H       1  UNL1        0.0297
     56 H          -4.9610   -3.2620    0.8036 H       1  UNL1        0.0297
     57 H          -3.2460   -2.8763    0.6426 H       1  UNL1        0.0297
@<TRIPOS>UNITY_ATOM_ATTR
29 1
charge 1
@<TRIPOS>BOND
     1     1     2    1
     2     2     3    2
     3     3     4    1
     4     5     6    1
     5     6     7    1
     6     7     8   ar
     7     8     9   ar
     8     9    10   ar
     9    10    11   ar
    10    11    12   ar
    11     7    12   ar
    12    12    13    1
    13     5    13    1
    14     4    14   am
    15    14    15    2
    16    14    16    1
    17     2    16    1
    18    16    17    2
    19    17    18    1
    20    17    19    1
    21    19    20    1
    22    20    21    1
    23    21    22    1
    24    22    23    2
    25    23    24   ar
    26    24    25   ar
    27    25    26   ar
    28    26    27   ar
    29    27    28   ar
    30    23    28   ar
    31    28    29    2
    32    29    30    1
    33    22    30    1
    34    30    31    1
    35     5     4    1
    36     1    32    1
    37     1    33    1
    38     1    34    1
    39     5    35    1
    40     6    36    1
    41     8    37    1
    42     9    38    1
    43    10    39    1
    44    11    40    1
    45    18    41    1
    46    18    42    1
    47    18    43    1
    48    19    44    1
    49    20    45    1
    50    20    46    1
    51    21    47    1
    52    21    48    1
    53    24    49    1
    54    25    50    1
    55    26    51    1
    56    27    52    1
    57    29    53    1
    58    30    54    1
    59    31    55    1
    60    31    56    1
    61    31    57    1
