REMARK  3 active torsions:
REMARK  status: ('A' for Active; 'I' for Inactive)
REMARK    1  A    between atoms: C_6  and  N_7 
REMARK       I    between atoms: N_7  and  C_8 
REMARK    2  A    between atoms: C_8  and  C_10 
REMARK    3  A    between atoms: C_13  and  O_14 
ROOT
ATOM      1  N   UNL d   1      -1.713   2.479   0.008  0.00  0.00    -0.323 N 
ATOM      2  C   UNL d   1      -1.105   3.725  -0.057  0.00  0.00     0.256 C 
ATOM      3  O   UNL d   1      -1.550   4.665   0.608  0.00  0.00    -0.267 OA
ATOM      4  H   UNL d   1      -2.702   2.503   0.233  0.00  0.00     0.169 HD
ENDROOT
BRANCH   2   5
ATOM      5  C   UNL d   1       0.038   3.964  -1.010  0.00  0.00     0.034 A 
ATOM      6  C   UNL d   1       0.802   5.137  -0.927  0.00  0.00     0.020 A 
ATOM      7  C   UNL d   1       1.898   5.332  -1.787  0.00  0.00     0.039 A 
ATOM      8  C   UNL d   1       2.259   4.335  -2.698  0.00  0.00     0.087 A 
ATOM      9  C   UNL d   1       1.507   3.169  -2.782  0.00  0.00     0.068 A 
ATOM     10 CL   UNL d   1       1.958   1.857  -3.809  0.00  0.00    -0.081 Cl
ATOM     11  C   UNL d   1       0.368   3.024  -1.998  0.00  0.00     0.043 A 
BRANCH   8  12
ATOM     12  O   UNL d   1       3.335   4.490  -3.524  0.00  0.00    -0.359 OA
ATOM     13  H   UNL d   1       3.701   5.383  -3.433  0.00  0.00     0.217 HD
ENDBRANCH   8  12
ENDBRANCH   2   5
BRANCH   1  14
ATOM     14  C   UNL d   1      -1.067   1.222   0.091  0.00  0.00     0.035 C 
ATOM     15  C   UNL d   1      -1.807   0.041   0.026  0.00  0.00     0.029 C 
ATOM     16  C   UNL d   1      -1.141  -1.193   0.012  0.00  0.00     0.003 C 
ATOM     17  C   UNL d   1       0.257  -1.251   0.019  0.00  0.00     0.007 C 
ATOM     18  C   UNL d   1       1.000  -0.079   0.103  0.00  0.00    -0.060 C 
ATOM     19  C   UNL d   1       2.495  -0.047   0.021  0.00  0.00     0.048 C 
ATOM     20  C   UNL d   1       0.322   1.133   0.218  0.00  0.00     0.036 C 
ENDBRANCH   1  14
TORSDOF 3
