@<TRIPOS>MOLECULE
*****
 57 59 0 0 0
SMALL
GASTEIGER

@<TRIPOS>ATOM
      1 C           0.9626   -0.0708   -0.0799 C.3     1  UNL1        0.0788
      2 O           2.3857   -0.1771   -0.1073 O.3     1  UNL1       -0.4950
      3 C           2.9875    0.3263   -1.2302 C.ar    1  UNL1        0.1243
      4 C           4.1320   -0.3386   -1.6911 C.ar    1  UNL1        0.0218
      5 C           4.8804    0.1815   -2.7553 C.ar    1  UNL1        0.1243
      6 O           6.0590   -0.4519   -3.0563 O.3     1  UNL1       -0.4950
      7 C           6.8979    0.2179   -4.0028 C.3     1  UNL1        0.0788
      8 C           4.4205    1.3158   -3.4149 C.ar    1  UNL1       -0.0061
      9 C           3.3002    1.9993   -2.9411 C.ar    1  UNL1        0.0630
     10 C           2.9259    3.2793   -3.5909 C.2     1  UNL1        0.3408
     11 O           3.5978    3.6820   -4.5451 O.2     1  UNL1       -0.2483
     12 N           1.8238    3.9029   -3.0679 N.am    1  UNL1        0.0006
     13 C           1.3832    4.9883   -3.6260 C.2     1  UNL1        0.3844
     14 N           0.2028    5.5229   -3.2119 N.pl3   1  UNL1       -0.2729
     15 C          -0.4954    5.2549   -1.9725 C.3     1  UNL1        0.0912
     16 C          -1.5519    6.3008   -1.6558 C.ar    1  UNL1        0.0040
     17 C          -2.1172    7.1508   -2.6166 C.ar    1  UNL1       -0.0527
     18 C          -3.0575    8.1108   -2.2558 C.ar    1  UNL1       -0.0432
     19 C          -3.4601    8.1674   -0.9371 C.ar    1  UNL1        0.0276
     20 N          -2.9832    7.3446    0.0201 N.ar    1  UNL1       -0.2629
     21 C          -2.0449    6.4380   -0.3572 C.ar    1  UNL1        0.0337
     22 N           1.9491    5.6265   -4.7018 N.pl3   1  UNL1       -0.2448
     23 C           1.6925    6.8729   -5.3048 C.ar    1  UNL1        0.1029
     24 C           1.6934    6.9143   -6.7158 C.ar    1  UNL1       -0.0200
     25 C           1.4553    8.1057   -7.4124 C.ar    1  UNL1       -0.0472
     26 C           1.6790    8.2145   -8.8906 C.3     1  UNL1       -0.0396
     27 C           1.0870    9.2428   -6.6972 C.ar    1  UNL1       -0.0584
     28 C           1.0951    9.2251   -5.3058 C.ar    1  UNL1       -0.0553
     29 C           1.4337    8.0629   -4.5937 C.ar    1  UNL1       -0.0120
     30 C           1.5784    8.1866   -3.0996 C.3     1  UNL1       -0.0365
     31 C           2.5882    1.5099   -1.8433 C.ar    1  UNL1       -0.0061
     32 H           0.6169   -0.4179    0.8987 H       1  UNL1        0.0660
     33 H           0.5291   -0.7185   -0.8476 H       1  UNL1        0.0660
     34 H           0.5961    0.9543   -0.1917 H       1  UNL1        0.0660
     35 H           4.4465   -1.2614   -1.2089 H       1  UNL1        0.0691
     36 H           7.8554   -0.3072   -4.0566 H       1  UNL1        0.0660
     37 H           7.1111    1.2538   -3.7066 H       1  UNL1        0.0660
     38 H           6.4430    0.1860   -4.9987 H       1  UNL1        0.0660
     39 H           4.9326    1.7089   -4.2868 H       1  UNL1        0.0662
     40 H          -0.0890    6.3233   -3.7437 H       1  UNL1        0.2580
     41 H           0.2242    5.2275   -1.1428 H       1  UNL1        0.0707
     42 H          -0.9783    4.2767   -2.0472 H       1  UNL1        0.0707
     43 H          -1.8397    7.0953   -3.6638 H       1  UNL1        0.0622
     44 H          -3.4627    8.7911   -2.9961 H       1  UNL1        0.0633
     45 H          -4.2007    8.8931   -0.6128 H       1  UNL1        0.0829
     46 H          -1.6960    5.8083    0.4584 H       1  UNL1        0.0833
     47 H           2.7822    5.1629   -5.0734 H       1  UNL1        0.2646
     48 H           1.8850    6.0001   -7.2780 H       1  UNL1        0.0655
     49 H           2.0051    7.2645   -9.3242 H       1  UNL1        0.0278
     50 H           2.4757    8.9466   -9.0721 H       1  UNL1        0.0278
     51 H           0.7710    8.5446   -9.4024 H       1  UNL1        0.0278
     52 H           0.8375   10.1634   -7.2193 H       1  UNL1        0.0620
     53 H           0.8806   10.1483   -4.7727 H       1  UNL1        0.0621
     54 H           1.4059    9.2139   -2.7684 H       1  UNL1        0.0279
     55 H           2.5751    7.8715   -2.7804 H       1  UNL1        0.0279
     56 H           0.8396    7.6158   -2.5507 H       1  UNL1        0.0279
     57 H           1.7512    2.0837   -1.4642 H       1  UNL1        0.0662
@<TRIPOS>BOND
     1     1     2    1
     2     2     3    1
     3     3     4   ar
     4     4     5   ar
     5     5     6    1
     6     6     7    1
     7     5     8   ar
     8     8     9   ar
     9     9    10    1
    10    10    11    2
    11    10    12    1
    12    12    13    2
    13    13    14    1
    14    14    15    1
    15    15    16    1
    16    16    17   ar
    17    17    18   ar
    18    18    19   ar
    19    19    20   ar
    20    20    21   ar
    21    16    21   ar
    22    13    22    1
    23    22    23    1
    24    23    24   ar
    25    24    25   ar
    26    25    26    1
    27    25    27   ar
    28    27    28   ar
    29    28    29   ar
    30    23    29   ar
    31    29    30    1
    32     9    31   ar
    33     3    31   ar
    34     1    32    1
    35     1    33    1
    36     1    34    1
    37     4    35    1
    38     7    36    1
    39     7    37    1
    40     7    38    1
    41     8    39    1
    42    14    40    1
    43    15    41    1
    44    15    42    1
    45    17    43    1
    46    18    44    1
    47    19    45    1
    48    21    46    1
    49    22    47    1
    50    24    48    1
    51    26    49    1
    52    26    50    1
    53    26    51    1
    54    27    52    1
    55    28    53    1
    56    30    54    1
    57    30    55    1
    58    30    56    1
    59    31    57    1
