REMARK  7 active torsions:
REMARK  status: ('A' for Active; 'I' for Inactive)
REMARK    1  A    between atoms: C_2  and  C_3 
REMARK    2  A    between atoms: C_7  and  C_8 
REMARK       I    between atoms: C_8  and  N_9 
REMARK    3  A    between atoms: N_15  and  C_16 
REMARK    4  A    between atoms: C_16  and  C_17 
REMARK       I    between atoms: C_17  and  N_19 
REMARK    5  A    between atoms: N_19  and  C_20 
REMARK    6  A    between atoms: C_24  and  O_25 
REMARK    7  A    between atoms: O_25  and  C_26 
ROOT
ATOM      1  C   UNL d   1       3.072   0.119  -1.460  0.00  0.00     0.054 C 
ATOM      2  C   UNL d   1       2.613   0.006   0.001  0.00  0.00     0.140 C 
ATOM      3  N   UNL d   1       3.262   0.977   0.844  0.00  0.00    -0.321 N 
ATOM      4  C   UNL d   1       4.433   0.456   1.369  0.00  0.00     0.326 C 
ATOM      5  O   UNL d   1       5.394   1.135   1.698  0.00  0.00    -0.247 OA
ATOM      6  N   UNL d   1       4.306  -0.904   1.407  0.00  0.00    -0.259 N 
ATOM      7  C   UNL d   1       3.316  -1.241   0.523  0.00  0.00     0.261 C 
ATOM      8  O   UNL d   1       3.052  -2.343   0.034  0.00  0.00    -0.270 OA
ATOM      9  H   UNL d   1       3.025   1.958   0.907  0.00  0.00     0.165 HD
ENDROOT
BRANCH   6  10
ATOM     10  C   UNL d   1       5.210  -1.814   2.157  0.00  0.00     0.240 C 
BRANCH  10  11
ATOM     11  C   UNL d   1       4.710  -3.272   2.293  0.00  0.00     0.240 C 
ATOM     12  O   UNL d   1       3.583  -3.596   1.919  0.00  0.00    -0.271 OA
ATOM     13  N   UNL d   1       5.483  -4.226   2.944  0.00  0.00    -0.326 N 
ATOM     14  H   UNL d   1       6.147  -3.953   3.655  0.00  0.00     0.169 HD
BRANCH  13  15
ATOM     15  C   UNL d   1       5.029  -5.582   2.922  0.00  0.00     0.037 A 
ATOM     16  C   UNL d   1       5.030  -6.395   4.049  0.00  0.00     0.029 A 
ATOM     17  C   UNL d   1       4.644  -7.743   3.935  0.00  0.00     0.005 A 
ATOM     18  C   UNL d   1       4.222  -8.271   2.705  0.00  0.00     0.037 A 
ATOM     19  C   UNL d   1       4.191  -7.454   1.579  0.00  0.00     0.078 A 
ATOM     20  C   UNL d   1       4.568  -6.119   1.715  0.00  0.00     0.066 A 
BRANCH  19  21
ATOM     21  O   UNL d   1       3.773  -8.011   0.387  0.00  0.00    -0.311 OA
BRANCH  21  22
ATOM     22  C   UNL d   1       3.942  -7.290  -0.780  0.00  0.00     0.076 A 
ATOM     23  C   UNL d   1       2.832  -7.138  -1.610  0.00  0.00     0.037 A 
ATOM     24  C   UNL d   1       2.960  -6.458  -2.824  0.00  0.00     0.003 A 
ATOM     25  C   UNL d   1       4.172  -5.856  -3.168  0.00  0.00     0.000 A 
ATOM     26  C   UNL d   1       5.280  -5.995  -2.335  0.00  0.00     0.003 A 
ATOM     27  C   UNL d   1       5.177  -6.752  -1.167  0.00  0.00     0.037 A 
ENDBRANCH  21  22
ENDBRANCH  19  21
ENDBRANCH  13  15
ENDBRANCH  10  11
ENDBRANCH   6  10
BRANCH   2  28
ATOM     28  C   UNL d   1       1.096   0.012   0.095  0.00  0.00    -0.020 A 
ATOM     29  C   UNL d   1       0.370   1.135  -0.333  0.00  0.00     0.010 A 
ATOM     30  C   UNL d   1      -1.018   1.175  -0.210  0.00  0.00     0.002 A 
ATOM     31  C   UNL d   1      -1.719   0.064   0.259  0.00  0.00     0.017 A 
ATOM     32  C   UNL d   1      -1.032  -1.087   0.649  0.00  0.00     0.032 A 
ATOM     33  C   UNL d   1       0.366  -1.102   0.558  0.00  0.00     0.027 A 
BRANCH  32  34
ATOM     34  C   UNL d   1      -1.705  -2.292   1.216  0.00  0.00     0.249 C 
ATOM     35  N   UNL d   1      -3.060  -2.265   1.368  0.00  0.00    -0.366 N 
ATOM     36  H   UNL d   1      -3.651  -1.486   1.132  0.00  0.00     0.159 HD
ATOM     37  H   UNL d   1      -3.484  -3.076   1.797  0.00  0.00     0.159 HD
ATOM     38  O   UNL d   1      -1.077  -3.285   1.575  0.00  0.00    -0.268 OA
ENDBRANCH  32  34
ENDBRANCH   2  28
TORSDOF 7
