@<TRIPOS>MOLECULE
*****
 70 74 0 0 0
SMALL
GASTEIGER

@<TRIPOS>ATOM
      1 CD1        11.7082   -8.3260    3.5123 C.3     1  LEU1       -0.0626
      2 CG         10.8056   -9.4934    3.1974 C.3     1  LEU1       -0.0446
      3 CD2        10.7558   -9.4004    1.7028 C.3     1  LEU1       -0.0626
      4 CB         11.3341  -10.8158    3.8288 C.3     1  LEU1       -0.0236
      5 CA         11.1158  -10.8739    5.3822 C.3     1  LEU1        0.0996
      6 N          11.9143   -9.8441    6.0876 N.am    1  LEU1       -0.3025
      7 C          11.4499   -8.5675    6.3339 C.2     0  UNK0        0.2345
      8 O          10.2598   -8.2692    6.1628 O.2     0  UNK0       -0.2737
      9 C          12.5150   -7.4363    6.5708 C.3     0  UNK0        0.1075
     10 C          13.9000   -7.9759    6.9505 C.3     0  UNK0        0.0019
     11 C          13.7399   -8.6735    8.2585 C.ar    0  UNK0       -0.0147
     12 C          12.6318   -8.4841    9.0731 C.ar    0  UNK0        0.0456
     13 N          12.7162   -9.3680   10.1028 N.ar    0  UNK0       -0.3560
     14 C          13.8897  -10.0732   10.0039 C.ar    0  UNK0        0.0470
     15 C          14.4183  -11.0408   10.8510 C.ar    0  UNK0       -0.0378
     16 C          15.6282  -11.6219   10.4651 C.ar    0  UNK0       -0.0598
     17 C          16.2602  -11.2748    9.2706 C.ar    0  UNK0       -0.0611
     18 C          15.7097  -10.3146    8.4276 C.ar    0  UNK0       -0.0523
     19 C          14.5253   -9.6851    8.8258 C.ar    0  UNK0        0.0032
     20 C          11.4686   -7.6023    8.7996 C.3     0  UNK0        0.0934
     21 C          11.1279   -6.5986    9.8183 C.ar    0  UNK0       -0.0091
     22 C          10.7684   -6.8074   11.1308 C.ar    0  UNK0       -0.0557
     23 C          10.5284   -5.6828   11.9038 C.ar    0  UNK0       -0.0614
     24 C          10.6206   -4.3906   11.3478 C.ar    0  UNK0       -0.0610
     25 C          10.9475   -4.1948   10.0043 C.ar    0  UNK0       -0.0493
     26 C          11.1886   -5.3192    9.2569 C.ar    0  UNK0        0.0423
     27 C          11.6289   -5.4417    7.8651 C.2     0  UNK0        0.2484
     28 O          11.7798   -4.5049    7.0743 O.2     0  UNK0       -0.2699
     29 N          11.8832   -6.7600    7.6860 N.am    0  UNK0       -0.2731
     30 C          11.5286  -12.1865    6.0441 C.2     1  LEU1        0.2339
     31 O          12.2774  -12.1135    7.0231 O.2     1  LEU1       -0.2738
     32 N          11.0771  -13.3856    5.5042 N.am    2  THR2       -0.3033
     33 CA         11.9792  -14.5805    5.6748 C.3     2  THR2        0.0882
     34 C          12.0060  -15.1094    7.1598 C.2     2  THR2        0.0644
     35 O          11.2230  -16.0818    7.3903 O.co2   2  THR2       -0.5478
     36 OXT        12.7938  -14.5266    7.9526 O.co2   2  THR2       -0.5478
     37 CB         13.2671  -14.1491    4.9229 C.3     2  THR2        0.0759
     38 CG2        14.3806  -15.1160    4.6744 C.3     2  THR2       -0.0368
     39 OG1        13.9522  -13.0652    5.5594 O.3     2  THR2       -0.3899
     40 HD11       11.2922   -7.3204    3.4300 H       1  LEU1        0.0232
     41 HD12       12.7853   -8.4199    3.3571 H       1  LEU1        0.0232
     42 HD13       11.7094   -8.4290    4.5222 H       1  LEU1        0.0232
     43 HG          9.7998   -9.3362    3.6157 H       1  LEU1        0.0296
     44 HD21       11.7775   -9.4206    1.3097 H       1  LEU1        0.0232
     45 HD22       10.3228   -8.4202    1.4516 H       1  LEU1        0.0232
     46 HD23       10.1525  -10.1857    1.2618 H       1  LEU1        0.0232
     47 HB1        12.3981  -10.9401    3.5781 H       1  LEU1        0.0290
     48 HB2        10.8123  -11.6610    3.3645 H       1  LEU1        0.0290
     49 HA         10.0679  -10.7335    5.6450 H       1  LEU1        0.0594
     50 H          12.6877  -10.2190    6.6471 H       1  LEU1        0.1495
     51 H          12.6108   -6.7471    5.7190 H       0  UNK0        0.0600
     52 H          14.6452   -7.1765    7.0520 H       0  UNK0        0.0337
     53 H          14.2706   -8.6551    6.1701 H       0  UNK0        0.0337
     54 H          12.0286   -9.4962   10.8298 H       0  UNK0        0.1657
     55 H          13.9077  -11.3402   11.7579 H       0  UNK0        0.0638
     56 H          16.0695  -12.3842   11.0976 H       0  UNK0        0.0618
     57 H          17.1826  -11.7644    8.9789 H       0  UNK0        0.0618
     58 H          16.1802  -10.0591    7.4841 H       0  UNK0        0.0624
     59 H          10.5650   -8.1643    8.5275 H       0  UNK0        0.0616
     60 H          10.6926   -7.8077   11.5417 H       0  UNK0        0.0621
     61 H          10.2746   -5.8122   12.9509 H       0  UNK0        0.0618
     62 H          10.4383   -3.5303   11.9821 H       0  UNK0        0.0618
     63 H          11.0398   -3.2108    9.5621 H       0  UNK0        0.0625
     64 H          10.5150  -13.3906    4.6682 H       2  THR2        0.1495
     65 HA         11.5329  -15.4119    5.1016 H       2  THR2        0.0586
     66 HB         12.9377  -13.7685    3.9418 H       2  THR2        0.0613
     67 HG21       14.7647  -15.4825    5.6270 H       2  THR2        0.0255
     68 HG22       15.1967  -14.5425    4.2066 H       2  THR2        0.0255
     69 HG23       14.1051  -15.9279    4.0045 H       2  THR2        0.0255
     70 HG1        13.6953  -13.1470    6.5190 H       2  THR2        0.2099
@<TRIPOS>UNITY_ATOM_ATTR
36 1
charge -1
@<TRIPOS>BOND
     1     1     2    1
     2     2     3    1
     3     2     4    1
     4     6     7   am
     5     7     8    2
     6     9    10    1
     7    10    11    1
     8    11    12   ar
     9    12    13   ar
    10    13    14   ar
    11    14    15   ar
    12    15    16   ar
    13    16    17   ar
    14    17    18   ar
    15    18    19   ar
    16    11    19   ar
    17    14    19   ar
    18    12    20    1
    19    20    21    1
    20    21    22   ar
    21    22    23   ar
    22    23    24   ar
    23    24    25   ar
    24    25    26   ar
    25    21    26   ar
    26    26    27    1
    27    27    28    2
    28    27    29   am
    29    20    29    1
    30     9    29    1
    31     5    30    1
    32    30    31    2
    33    30    32   am
    34    32    33    1
    35    33    34    1
    36    34    35   ar
    37    34    36   ar
    38    37    39    1
    39     5     6    1
    40     5     4    1
    41    37    38    1
    42    37    33    1
    43     9     7    1
    44     1    40    1
    45     1    41    1
    46     1    42    1
    47     2    43    1
    48     3    44    1
    49     3    45    1
    50     3    46    1
    51     4    47    1
    52     4    48    1
    53     5    49    1
    54     6    50    1
    55     9    51    1
    56    10    52    1
    57    10    53    1
    58    13    54    1
    59    15    55    1
    60    16    56    1
    61    17    57    1
    62    18    58    1
    63    20    59    1
    64    22    60    1
    65    23    61    1
    66    24    62    1
    67    25    63    1
    68    32    64    1
    69    33    65    1
    70    37    66    1
    71    38    67    1
    72    38    68    1
    73    38    69    1
    74    39    70    1
