@<TRIPOS>MOLECULE
*****
 63 64 0 0 0
SMALL
GASTEIGER

@<TRIPOS>ATOM
      1 C           0.9780    0.0913    0.0395 C.3     1  UNL1       -0.0652
      2 C           2.4783    0.1769    0.2295 C.3     1  UNL1       -0.0528
      3 C           3.0531    1.2594   -0.6664 C.3     1  UNL1       -0.0189
      4 C           4.5551    1.4158   -0.4617 C.3     1  UNL1        0.0896
      5 O           4.9724    2.2792   -1.5223 O.3     1  UNL1       -0.4912
      6 C           6.3111    2.3402   -1.7707 C.ar    1  UNL1        0.1326
      7 C           6.8656    3.6442   -1.7385 C.ar    1  UNL1       -0.0192
      8 C           8.2018    3.8835   -2.0766 C.ar    1  UNL1       -0.0583
      9 C           9.0217    2.8091   -2.3758 C.ar    1  UNL1       -0.0608
     10 C           8.4717    1.5199   -2.4232 C.ar    1  UNL1       -0.0461
     11 C           7.0946    1.2570   -2.1753 C.ar    1  UNL1        0.0786
     12 C           6.6517   -0.1843   -2.3364 C.2     1  UNL1        0.2531
     13 O           7.5728   -0.9985   -2.3997 O.2     1  UNL1       -0.2697
     14 N           5.2814   -0.5638   -2.4375 N.am    1  UNL1       -0.2626
     15 C           4.7417   -1.8469   -2.1480 C.2     1  UNL1        0.1533
     16 S           5.6577   -3.2531   -1.9798 S.2     1  UNL1       -0.0170
     17 N           3.3392   -1.9165   -1.9910 N.am    1  UNL1       -0.2453
     18 N           2.7383   -3.1677   -1.5218 N.am    1  UNL1       -0.2311
     19 C           1.3788   -3.3054   -1.2859 C.2     1  UNL1        0.2601
     20 O           0.5832   -2.3617   -1.2019 O.2     1  UNL1       -0.2687
     21 C           0.8155   -4.6766   -1.1527 C.ar    1  UNL1        0.0383
     22 C          -0.4771   -4.9710   -1.6343 C.ar    1  UNL1       -0.0478
     23 C          -1.0636   -6.2448   -1.4490 C.ar    1  UNL1       -0.0398
     24 C          -0.3363   -7.2615   -0.8260 C.ar    1  UNL1        0.0334
     25 N          -0.8545   -8.5938   -0.7505 N.am    1  UNL1       -0.2855
     26 C          -0.0923   -9.6719   -0.3217 C.2     1  UNL1        0.2174
     27 O           1.0958   -9.5877   -0.0138 O.2     1  UNL1       -0.2755
     28 C          -0.7535  -11.0421   -0.2733 C.3     1  UNL1        0.0266
     29 C           0.2122  -12.0487    0.4173 C.3     1  UNL1       -0.0385
     30 C           0.4907  -11.6645    1.8808 C.3     1  UNL1       -0.0622
     31 C          -0.3351  -13.4716    0.3833 C.3     1  UNL1       -0.0622
     32 C           0.9229   -6.9194   -0.3046 C.ar    1  UNL1       -0.0398
     33 C           1.5050   -5.6605   -0.4674 C.ar    1  UNL1       -0.0478
     34 H           0.5792   -0.7483    0.6153 H       1  UNL1        0.0230
     35 H           0.7057   -0.0351   -1.0162 H       1  UNL1        0.0230
     36 H           0.4975    1.0050    0.3900 H       1  UNL1        0.0230
     37 H           2.9390   -0.7945    0.0413 H       1  UNL1        0.0264
     38 H           2.7185    0.3892    1.2716 H       1  UNL1        0.0264
     39 H           2.5691    2.2188   -0.4572 H       1  UNL1        0.0298
     40 H           2.8193    1.0602   -1.7255 H       1  UNL1        0.0298
     41 H           5.0308    0.4358   -0.4703 H       1  UNL1        0.0696
     42 H           4.8004    1.8362    0.5149 H       1  UNL1        0.0696
     43 H           6.2512    4.4957   -1.4485 H       1  UNL1        0.0654
     44 H           8.6004    4.8971   -2.1094 H       1  UNL1        0.0619
     45 H          10.0799    2.9667   -2.5834 H       1  UNL1        0.0618
     46 H           9.1468    0.7028   -2.6803 H       1  UNL1        0.0626
     47 H           4.6346    0.2052   -2.5527 H       1  UNL1        0.1569
     48 H           2.7025   -1.1230   -1.9550 H       1  UNL1        0.1718
     49 H           3.3351   -3.9846   -1.6554 H       1  UNL1        0.1731
     50 H          -1.0340   -4.2000   -2.1662 H       1  UNL1        0.0626
     51 H          -2.0818   -6.4070   -1.7967 H       1  UNL1        0.0636
     52 H          -1.7632   -8.7734   -1.1633 H       1  UNL1        0.1548
     53 H          -0.9424  -11.3638   -1.3050 H       1  UNL1        0.0361
     54 H          -1.7074  -11.0007    0.2617 H       1  UNL1        0.0361
     55 H           1.1687  -12.0514   -0.1266 H       1  UNL1        0.0300
     56 H          -0.4356  -11.6645    2.4618 H       1  UNL1        0.0232
     57 H           0.9378  -10.6726    1.9892 H       1  UNL1        0.0232
     58 H           1.1953  -12.3659    2.3389 H       1  UNL1        0.0232
     59 H          -1.2782  -13.5376    0.9337 H       1  UNL1        0.0232
     60 H           0.3759  -14.1647    0.8492 H       1  UNL1        0.0232
     61 H          -0.5042  -13.8072   -0.6436 H       1  UNL1        0.0232
     62 H           1.5167   -7.6157    0.2739 H       1  UNL1        0.0636
     63 H           2.4766   -5.4837   -0.0185 H       1  UNL1        0.0626
@<TRIPOS>BOND
     1     1     2    1
     2     2     3    1
     3     3     4    1
     4     4     5    1
     5     5     6    1
     6     6     7   ar
     7     7     8   ar
     8     8     9   ar
     9     9    10   ar
    10    10    11   ar
    11     6    11   ar
    12    11    12    1
    13    12    13    2
    14    12    14   am
    15    14    15    1
    16    15    16    2
    17    15    17    1
    18    17    18    1
    19    18    19   am
    20    19    20    2
    21    19    21    1
    22    21    22   ar
    23    22    23   ar
    24    23    24   ar
    25    24    25    1
    26    25    26   am
    27    26    27    2
    28    26    28    1
    29    28    29    1
    30    29    30    1
    31    29    31    1
    32    24    32   ar
    33    32    33   ar
    34    21    33   ar
    35     1    34    1
    36     1    35    1
    37     1    36    1
    38     2    37    1
    39     2    38    1
    40     3    39    1
    41     3    40    1
    42     4    41    1
    43     4    42    1
    44     7    43    1
    45     8    44    1
    46     9    45    1
    47    10    46    1
    48    14    47    1
    49    17    48    1
    50    18    49    1
    51    22    50    1
    52    23    51    1
    53    25    52    1
    54    28    53    1
    55    28    54    1
    56    29    55    1
    57    30    56    1
    58    30    57    1
    59    30    58    1
    60    31    59    1
    61    31    60    1
    62    31    61    1
    63    32    62    1
    64    33    63    1
