@<TRIPOS>MOLECULE
*****
 38 39 0 0 0
SMALL
GASTEIGER

@<TRIPOS>ATOM
      1 O           1.0123   -0.0830   -0.1379 O.2     1  UNL1       -0.2693
      2 C           2.2369   -0.1920   -0.0926 C.2     1  UNL1        0.2530
      3 C           2.9204   -0.5419    1.1827 C.2     1  UNL1        0.0024
      4 C           2.3017   -0.5217    2.3783 C.2     1  UNL1       -0.0432
      5 C           3.0545   -0.5357    3.6561 C.ar    1  UNL1        0.0522
      6 C           2.6103   -1.4398    4.6494 C.ar    1  UNL1       -0.0481
      7 C           3.1854   -1.4679    5.9300 C.ar    1  UNL1       -0.0608
      8 C           4.2619   -0.6443    6.2301 C.ar    1  UNL1       -0.0553
      9 C           4.7276    0.2504    5.2720 C.ar    1  UNL1        0.0162
     10 C           4.1235    0.3308    3.9978 C.ar    1  UNL1        0.2802
     11 N           4.6866    1.3650    3.0966 N.pl3   1  UNL1        0.0802
     12 O           5.7675    1.8720    3.4174 O.2     1  UNL1        0.0415
     13 O           4.0854    1.6783    2.0594 O.co2   1  UNL1       -0.5760
     14 N           3.0228    0.0346   -1.2096 N.am    1  UNL1       -0.2297
     15 N           4.4500   -0.0111   -1.3011 N.am    1  UNL1       -0.2180
     16 C           5.0437    0.2397   -2.5375 C.2     1  UNL1        0.3160
     17 O           4.3916    0.3968   -3.5694 O.2     1  UNL1       -0.2513
     18 N           6.4281    0.2389   -2.5102 N.am    1  UNL1       -0.2980
     19 C           7.2131    0.4133   -3.7338 C.3     1  UNL1        0.0159
     20 C           8.7090    0.3783   -3.5013 C.3     1  UNL1       -0.0254
     21 C           9.6199   -0.3477   -4.4767 C.3     1  UNL1       -0.0485
     22 C           9.6409    1.1491   -4.4229 C.3     1  UNL1       -0.0485
     23 H           3.9882   -0.6671    1.1370 H       1  UNL1        0.0670
     24 H           1.2212   -0.3927    2.4608 H       1  UNL1        0.0627
     25 H           1.8047   -2.1458    4.4433 H       1  UNL1        0.0626
     26 H           2.7892   -2.1290    6.7000 H       1  UNL1        0.0618
     27 H           4.7386   -0.6885    7.2073 H       1  UNL1        0.0620
     28 H           5.5585    0.9009    5.5399 H       1  UNL1        0.0685
     29 H           2.5330    0.2540   -2.0783 H       1  UNL1        0.1731
     30 H           4.9836    0.1195   -0.4538 H       1  UNL1        0.1744
     31 H           6.9103    0.1459   -1.6310 H       1  UNL1        0.1503
     32 H           6.9294    1.3705   -4.1851 H       1  UNL1        0.0465
     33 H           6.9246   -0.3821   -4.4305 H       1  UNL1        0.0465
     34 H           8.9871    0.3563   -2.4546 H       1  UNL1        0.0316
     35 H           9.2016   -0.8040   -5.3682 H       1  UNL1        0.0269
     36 H          10.4794   -0.8853   -4.0879 H       1  UNL1        0.0269
     37 H           9.2360    1.6837   -5.2763 H       1  UNL1        0.0269
     38 H          10.5156    1.6324   -3.9972 H       1  UNL1        0.0269
@<TRIPOS>UNITY_ATOM_ATTR
11 1
charge 1
13 1
charge -1
@<TRIPOS>BOND
     1     1     2    2
     2     2     3    1
     3     3     4    2
     4     4     5    1
     5     5     6   ar
     6     6     7   ar
     7     7     8   ar
     8     8     9   ar
     9     9    10   ar
    10     5    10   ar
    11    10    11    1
    12    11    12    2
    13    11    13    1
    14     2    14   am
    15    14    15    1
    16    15    16   am
    17    16    17    2
    18    16    18   am
    19    18    19    1
    20    19    20    1
    21    20    21    1
    22    21    22    1
    23    20    22    1
    24     3    23    1
    25     4    24    1
    26     6    25    1
    27     7    26    1
    28     8    27    1
    29     9    28    1
    30    14    29    1
    31    15    30    1
    32    18    31    1
    33    19    32    1
    34    19    33    1
    35    20    34    1
    36    21    35    1
    37    21    36    1
    38    22    37    1
    39    22    38    1
