REMARK  8 active torsions:
REMARK  status: ('A' for Active; 'I' for Inactive)
REMARK    1  A    between atoms: C_2  and  N_3 
REMARK       I    between atoms: N_3  and  C_4 
REMARK    2  A    between atoms: C_4  and  C_6 
REMARK    3  A    between atoms: C_6  and  O_7 
REMARK    4  A    between atoms: O_7  and  C_8 
REMARK    5  A    between atoms: C_12  and  N_13 
REMARK    6  A    between atoms: N_13  and  C_14 
REMARK    7  A    between atoms: C_14  and  C_16 
REMARK       I    between atoms: C_16  and  N_18 
REMARK       I    between atoms: N_18  and  C_19 
REMARK       I    between atoms: C_19  and  N_21 
REMARK    8  A    between atoms: N_21  and  C_22 
ROOT
ATOM      1  N   UNL d   1       6.888   7.658   0.507  0.00  0.00    -0.377 N 
ATOM      2  H   UNL d   1       7.455   8.510   0.506  0.00  0.00     0.160 HD
ENDROOT
BRANCH   1   3
ATOM      3  C   UNL d   1       7.286   6.569  -0.246  0.00  0.00     0.031 A 
ATOM      4  C   UNL d   1       8.469   6.583  -0.991  0.00  0.00     0.029 A 
ATOM      5  C   UNL d   1       8.906   5.427  -1.655  0.00  0.00     0.005 A 
ATOM      6  C   UNL d   1       8.149   4.252  -1.602  0.00  0.00     0.037 A 
ATOM      7  C   UNL d   1       6.962   4.221  -0.880  0.00  0.00     0.071 A 
ATOM      8  C   UNL d   1       6.536   5.385  -0.256  0.00  0.00     0.065 A 
BRANCH   7   9
ATOM      9  O   UNL d   1       6.339   3.012  -0.742  0.00  0.00    -0.342 OA
BRANCH   9  10
ATOM     10  C   UNL d   1       4.918   3.004  -0.574  0.00  0.00     0.278 C 
BRANCH  10  11
ATOM     11  C   UNL d   1       4.434   1.578  -0.255  0.00  0.00     0.241 C 
ATOM     12  N   UNL d   1       3.056   1.409  -0.195  0.00  0.00    -0.360 N 
ATOM     13  H   UNL d   1       2.429   2.182  -0.374  0.00  0.00     0.162 HD
ATOM     14  O   UNL d   1       5.201   0.641  -0.044  0.00  0.00    -0.271 OA
BRANCH  12  15
ATOM     15  C   UNL d   1       2.504   0.089   0.073  0.00  0.00     0.118 C 
ATOM     16  C   UNL d   1       0.986   0.067   0.078  0.00  0.00     0.026 C 
ENDBRANCH  12  15
ENDBRANCH  10  11
ENDBRANCH   9  10
ENDBRANCH   7   9
ENDBRANCH   1   3
BRANCH   1  17
ATOM     17  C   UNL d   1       5.744   7.660   1.453  0.00  0.00     0.170 C 
ATOM     18  C   UNL d   1       5.956   6.636   2.569  0.00  0.00     0.042 C 
BRANCH  17  19
ATOM     19  C   UNL d   1       5.593   9.066   2.082  0.00  0.00     0.247 C 
ATOM     20  O   UNL d   1       6.422   9.927   1.766  0.00  0.00    -0.271 OA
ATOM     21  N   UNL d   1       4.505   9.280   2.940  0.00  0.00    -0.278 N 
ATOM     22  C   UNL d   1       4.386  10.476   3.596  0.00  0.00     0.323 C 
ATOM     23  H   UNL d   1       3.852   8.539   3.140  0.00  0.00     0.173 HD
ATOM     24  O   UNL d   1       5.259  11.337   3.493  0.00  0.00    -0.247 OA
ATOM     25  N   UNL d   1       3.241  10.696   4.346  0.00  0.00    -0.338 N 
ATOM     26  H   UNL d   1       2.649   9.920   4.611  0.00  0.00     0.164 HD
BRANCH  25  27
ATOM     27  C   UNL d   1       3.011  11.978   5.078  0.00  0.00     0.086 C 
ATOM     28  C   UNL d   1       3.967  13.120   4.717  0.00  0.00     0.025 C 
ATOM     29  C   UNL d   1       3.312  14.412   5.133  0.00  0.00     0.002 C 
ATOM     30  C   UNL d   1       1.821  14.136   5.031  0.00  0.00     0.002 C 
ATOM     31  C   UNL d   1       1.655  12.630   4.763  0.00  0.00     0.025 C 
ENDBRANCH  25  27
ENDBRANCH  17  19
ENDBRANCH   1  17
TORSDOF 8
