REMARK  3 active torsions:
REMARK  status: ('A' for Active; 'I' for Inactive)
REMARK       I    between atoms: C_2  and  N_3 
REMARK    1  A    between atoms: C_2  and  C_16 
REMARK    2  A    between atoms: N_3  and  N_4 
REMARK       I    between atoms: N_4  and  C_5 
REMARK    3  A    between atoms: C_5  and  C_7 
ROOT
ATOM      1  N   UNL d   1       2.310   1.887   1.696  0.00  0.00    -0.265 N 
ATOM      2  C   UNL d   1       3.032   2.805   2.449  0.00  0.00     0.266 C 
ATOM      3  O   UNL d   1       4.264   2.821   2.459  0.00  0.00    -0.269 OA
ATOM      4  H   UNL d   1       1.287   1.900   1.669  0.00  0.00     0.190 HD
ENDROOT
BRANCH   1   5
ATOM      5  N   UNL d   1       2.966   0.915   0.894  0.00  0.00    -0.262 N 
ATOM      6  C   UNL d   1       2.214   0.120   0.036  0.00  0.00     0.286 C 
ATOM      7  O   UNL d   1       0.980   0.220  -0.010  0.00  0.00    -0.264 OA
ATOM      8  H   UNL d   1       3.976   1.004   0.815  0.00  0.00     0.190 HD
BRANCH   6   9
ATOM      9  C   UNL d   1       2.952  -0.824  -0.790  0.00  0.00     0.102 A 
ATOM     10  C   UNL d   1       2.733  -1.176  -2.118  0.00  0.00     0.036 A 
ATOM     11  C   UNL d   1       3.626  -2.220  -2.468  0.00  0.00     0.019 A 
ATOM     12  C   UNL d   1       4.363  -2.507  -1.344  0.00  0.00     0.088 A 
ATOM     13  N   UNL d   1       3.964  -1.654  -0.344  0.00  0.00    -0.361 N 
ATOM     14  H   UNL d   1       4.301  -1.695   0.608  0.00  0.00     0.165 HD
ENDBRANCH   6   9
ENDBRANCH   1   5
BRANCH   2  15
ATOM     15  C   UNL d   1       2.179   3.789   3.304  0.00  0.00     0.226 C 
ATOM     16  C   UNL d   1       2.394   5.274   2.945  0.00  0.00     0.083 C 
ATOM     17  C   UNL d   1       1.261   5.437   2.001  0.00  0.00    -0.022 A 
ATOM     18  C   UNL d   1       1.005   6.418   1.062  0.00  0.00     0.010 A 
ATOM     19  C   UNL d   1       0.385   4.375   2.168  0.00  0.00     0.076 A 
ATOM     20  C   UNL d   1      -0.110   6.254   0.232  0.00  0.00     0.001 A 
ATOM     21  C   UNL d   1      -0.957   5.140   0.374  0.00  0.00     0.003 A 
ATOM     22  C   UNL d   1      -0.723   4.196   1.371  0.00  0.00     0.037 A 
ATOM     23  O   UNL d   1       0.772   3.492   3.144  0.00  0.00    -0.336 OA
ENDBRANCH   2  15
TORSDOF 3
