@<TRIPOS>MOLECULE
*****
 82 85 0 0 0
SMALL
GASTEIGER

@<TRIPOS>ATOM
      1 C           1.0384   -0.0792    0.4728 C.3     1  UNL1       -0.0245
      2 C           2.5364   -0.0012    0.3244 C.3     1  UNL1       -0.0348
      3 N           3.0122   -0.4449   -1.0255 N.4     1  UNL1        0.2349
      4 C           2.4959    0.5109   -2.0998 C.3     1  UNL1       -0.0348
      5 C           1.0064    0.3745   -2.4223 C.3     1  UNL1       -0.0245
      6 C           4.5658   -0.5335   -0.9440 C.3     1  UNL1       -0.0305
      7 C           5.0887   -1.1793   -2.1824 C.3     1  UNL1        0.0033
      8 C           6.5520   -1.2894   -2.4485 C.3     1  UNL1        0.0209
      9 N           6.9195   -1.8564   -3.7737 N.am    1  UNL1       -0.2806
     10 C           6.0108   -2.2156   -4.8480 C.2     1  UNL1        0.2638
     11 O           6.3308   -2.5727   -5.9583 O.2     1  UNL1       -0.2684
     12 C           4.5786   -2.1446   -4.6897 C.ar    1  UNL1        0.1025
     13 C           3.7968   -1.0125   -4.7496 C.ar    1  UNL1       -0.0313
     14 C           2.4906   -1.4172   -4.4978 C.ar    1  UNL1       -0.0357
     15 C           2.4279   -2.7811   -4.5222 C.ar    1  UNL1        0.0470
     16 C           1.1947   -3.5313   -4.6000 C.ar    1  UNL1       -0.0017
     17 C           1.0065   -4.7305   -3.9303 C.ar    1  UNL1       -0.0526
     18 C          -0.1506   -5.4629   -4.1847 C.ar    1  UNL1       -0.0611
     19 C          -1.1570   -4.9446   -5.0077 C.ar    1  UNL1       -0.0617
     20 C          -1.0133   -3.6952   -5.5965 C.ar    1  UNL1       -0.0611
     21 C           0.1602   -2.9918   -5.3899 C.ar    1  UNL1       -0.0526
     22 N           3.7047   -3.2180   -4.7940 N.ar    1  UNL1       -0.3506
     23 C           8.4244   -1.9597   -3.9987 C.3     1  UNL1        0.1277
     24 C           9.2172   -2.7723   -2.8910 C.2     1  UNL1        0.2383
     25 O           9.9619   -3.7072   -3.1867 O.2     1  UNL1       -0.2734
     26 N           9.0879   -2.3946   -1.5630 N.am    1  UNL1       -0.3106
     27 C           9.6139   -3.2318   -0.4786 C.3     1  UNL1        0.0232
     28 C           9.0606   -2.7424    0.8740 C.3     1  UNL1       -0.0345
     29 C           9.4368   -3.6706    2.0304 C.3     1  UNL1       -0.0514
     30 C           9.0235   -5.1129    1.7576 C.3     1  UNL1       -0.0529
     31 C           9.6261   -5.6017    0.4562 C.3     1  UNL1       -0.0514
     32 C           9.2208   -4.7052   -0.6932 C.3     1  UNL1       -0.0345
     33 C           8.8029   -2.5699   -5.3410 C.ar    1  UNL1       -0.0180
     34 C           8.4724   -3.9279   -5.5760 C.ar    1  UNL1       -0.0529
     35 C           8.6743   -4.5154   -6.8135 C.ar    1  UNL1       -0.0199
     36 C           9.2042   -3.7399   -7.8326 C.ar    1  UNL1        0.1169
     37 O           9.3393   -4.2463   -9.0912 O.3     1  UNL1       -0.5068
     38 C           9.5819   -2.4146   -7.6146 C.ar    1  UNL1       -0.0199
     39 C           9.3809   -1.8191   -6.3679 C.ar    1  UNL1       -0.0529
     40 H           0.7517    0.1144    1.5039 H       1  UNL1        0.0281
     41 H           0.6402   -1.0431    0.1402 H       1  UNL1        0.0281
     42 H           0.5437    0.7228   -0.0639 H       1  UNL1        0.0281
     43 H           3.0171   -0.6472    1.0614 H       1  UNL1        0.0812
     44 H           2.8966    1.0258    0.4344 H       1  UNL1        0.0812
     45 H           2.6690   -1.3987   -1.2417 H       1  UNL1        0.2033
     46 H           3.0470    0.2946   -2.9886 H       1  UNL1        0.0812
     47 H           2.7986    1.5255   -1.8434 H       1  UNL1        0.0812
     48 H           0.6406   -0.6576   -2.3331 H       1  UNL1        0.0281
     49 H           0.7941    0.7334   -3.4348 H       1  UNL1        0.0281
     50 H           0.3788    1.0340   -1.8310 H       1  UNL1        0.0281
     51 H           4.8329   -1.1291   -0.0667 H       1  UNL1        0.0815
     52 H           4.9348    0.4907   -0.8597 H       1  UNL1        0.0815
     53 H           4.8343   -0.4524   -2.9249 H       1  UNL1        0.0332
     54 H           4.6413   -2.1724   -2.2858 H       1  UNL1        0.0332
     55 H           6.9343   -1.9236   -1.6564 H       1  UNL1        0.0467
     56 H           7.0187   -0.2955   -2.3756 H       1  UNL1        0.0467
     57 H           4.1714    0.0042   -4.7931 H       1  UNL1        0.0640
     58 H           1.6133   -0.8176   -4.3714 H       1  UNL1        0.0639
     59 H           1.7448   -5.1021   -3.2267 H       1  UNL1        0.0624
     60 H          -0.2593   -6.4582   -3.7645 H       1  UNL1        0.0618
     61 H          -2.0576   -5.5213   -5.1951 H       1  UNL1        0.0618
     62 H          -1.7819   -3.2857   -6.2463 H       1  UNL1        0.0618
     63 H           0.2770   -2.0241   -5.8776 H       1  UNL1        0.0624
     64 H           3.9637   -4.1487   -5.1002 H       1  UNL1        0.1660
     65 H           8.8168   -0.9322   -3.9429 H       1  UNL1        0.0648
     66 H           8.8522   -1.4389   -1.3403 H       1  UNL1        0.1490
     67 H          10.7062   -3.1266   -0.4844 H       1  UNL1        0.0498
     68 H           7.9654   -2.6734    0.8184 H       1  UNL1        0.0283
     69 H           9.4200   -1.7284    1.0885 H       1  UNL1        0.0283
     70 H           8.9596   -3.3261    2.9543 H       1  UNL1        0.0266
     71 H          10.5208   -3.6282    2.1909 H       1  UNL1        0.0266
     72 H           7.9298   -5.1823    1.7037 H       1  UNL1        0.0265
     73 H           9.3519   -5.7625    2.5748 H       1  UNL1        0.0265
     74 H           9.2983   -6.6242    0.2414 H       1  UNL1        0.0266
     75 H          10.7203   -5.6185    0.5290 H       1  UNL1        0.0266
     76 H           8.1380   -4.7687   -0.8660 H       1  UNL1        0.0283
     77 H           9.7018   -5.1261   -1.5772 H       1  UNL1        0.0283
     78 H           7.9336   -4.4863   -4.8114 H       1  UNL1        0.0622
     79 H           8.3744   -5.5462   -6.9577 H       1  UNL1        0.0654
     80 H           8.9191   -5.1222   -9.1079 H       1  UNL1        0.2921
     81 H          10.0118   -1.8406   -8.4291 H       1  UNL1        0.0654
     82 H           9.6374   -0.7730   -6.2281 H       1  UNL1        0.0622
@<TRIPOS>UNITY_ATOM_ATTR
3 1
charge 1
@<TRIPOS>BOND
     1     1     2    1
     2     2     3    1
     3     3     4    1
     4     4     5    1
     5     3     6    1
     6     6     7    1
     7     7     8    1
     8     8     9    1
     9     9    10   am
    10    10    11    2
    11    10    12    1
    12    12    13   ar
    13    13    14   ar
    14    14    15   ar
    15    15    16    1
    16    16    17   ar
    17    17    18   ar
    18    18    19   ar
    19    19    20   ar
    20    20    21   ar
    21    16    21   ar
    22    15    22   ar
    23    12    22   ar
    24     9    23    1
    25    23    24    1
    26    24    25    2
    27    24    26   am
    28    26    27    1
    29    27    28    1
    30    28    29    1
    31    29    30    1
    32    30    31    1
    33    31    32    1
    34    27    32    1
    35    23    33    1
    36    33    34   ar
    37    34    35   ar
    38    35    36   ar
    39    36    37    1
    40    36    38   ar
    41    38    39   ar
    42    33    39   ar
    43     1    40    1
    44     1    41    1
    45     1    42    1
    46     2    43    1
    47     2    44    1
    48     3    45    1
    49     4    46    1
    50     4    47    1
    51     5    48    1
    52     5    49    1
    53     5    50    1
    54     6    51    1
    55     6    52    1
    56     7    53    1
    57     7    54    1
    58     8    55    1
    59     8    56    1
    60    13    57    1
    61    14    58    1
    62    17    59    1
    63    18    60    1
    64    19    61    1
    65    20    62    1
    66    21    63    1
    67    22    64    1
    68    23    65    1
    69    26    66    1
    70    27    67    1
    71    28    68    1
    72    28    69    1
    73    29    70    1
    74    29    71    1
    75    30    72    1
    76    30    73    1
    77    31    74    1
    78    31    75    1
    79    32    76    1
    80    32    77    1
    81    34    78    1
    82    35    79    1
    83    37    80    1
    84    38    81    1
    85    39    82    1
