@<TRIPOS>MOLECULE
*****
 45 48 0 0 0
SMALL
GASTEIGER

@<TRIPOS>ATOM
      1 C           2.9855    0.0377    0.0693 C.3     1  UNL1       -0.0397
      2 C           1.4883    0.0319   -0.0083 C.ar    1  UNL1       -0.0496
      3 C           0.7554    1.2228   -0.0360 C.ar    1  UNL1       -0.0554
      4 C          -0.6423    1.1995   -0.0511 C.ar    1  UNL1       -0.0193
      5 C          -1.3141   -0.0208   -0.0471 C.ar    1  UNL1        0.1260
      6 O          -2.6820   -0.0534   -0.0214 O.3     1  UNL1       -0.5061
      7 C          -0.5992   -1.2225   -0.0497 C.ar    1  UNL1        0.0418
      8 C          -1.2591   -2.5110    0.0013 C.ar    1  UNL1        0.0753
      9 N          -2.1520   -2.9939   -0.9329 N.ar    1  UNL1       -0.2758
     10 N          -2.5911   -4.2659   -0.6810 N.ar    1  UNL1       -0.1683
     11 C          -1.9550   -4.5672    0.4520 C.ar    1  UNL1        0.1529
     12 C          -1.1536   -3.5244    0.9074 C.ar    1  UNL1        0.0350
     13 C          -0.4449   -3.8914    2.1370 C.3     1  UNL1        0.0838
     14 C          -1.1500   -3.2002    3.2817 C.ar    1  UNL1        0.0127
     15 C          -2.5163   -3.4043    3.5692 C.ar    1  UNL1       -0.0537
     16 C          -3.1042   -2.8639    4.7100 C.ar    1  UNL1       -0.0613
     17 C          -2.3417   -2.0980    5.5843 C.ar    1  UNL1       -0.0590
     18 C          -0.9981   -1.8543    5.3022 C.ar    1  UNL1       -0.0261
     19 C          -0.4172   -2.3984    4.1582 C.ar    1  UNL1        0.1287
     20 F           0.8868   -2.1823    3.9326 F       1  UNL1       -0.2051
     21 N          -0.7019   -5.3504    2.1602 N.am    1  UNL1       -0.2827
     22 C           0.1115   -6.2804    2.9436 C.3     1  UNL1        0.0391
     23 C           1.3103   -5.6426    3.6682 C.3     1  UNL1        0.0600
     24 O           2.1222   -6.6042    4.3274 O.3     1  UNL1       -0.3935
     25 C          -1.7892   -5.7157    1.3332 C.2     1  UNL1        0.2679
     26 O          -2.4489   -6.7462    1.3770 O.2     1  UNL1       -0.2682
     27 C           0.8022   -1.1861   -0.0288 C.ar    1  UNL1       -0.0462
     28 H           3.3801    1.0583    0.0797 H       1  UNL1        0.0278
     29 H           3.4137   -0.4848   -0.7918 H       1  UNL1        0.0278
     30 H           3.3130   -0.4581    0.9896 H       1  UNL1        0.0278
     31 H           1.2708    2.1805   -0.0371 H       1  UNL1        0.0621
     32 H          -1.1843    2.1399   -0.0575 H       1  UNL1        0.0654
     33 H          -3.0180    0.8494    0.1037 H       1  UNL1        0.2922
     34 H          -2.4618   -2.5207   -1.7757 H       1  UNL1        0.1889
     35 H           0.6225   -3.6780    2.0525 H       1  UNL1        0.0603
     36 H          -3.1467   -4.0053    2.9168 H       1  UNL1        0.0622
     37 H          -4.1545   -3.0600    4.9125 H       1  UNL1        0.0618
     38 H          -2.7971   -1.6954    6.4845 H       1  UNL1        0.0618
     39 H          -0.3948   -1.2572    5.9783 H       1  UNL1        0.0646
     40 H           0.4842   -7.0502    2.2548 H       1  UNL1        0.0487
     41 H          -0.5277   -6.8139    3.6560 H       1  UNL1        0.0487
     42 H           0.9778   -4.9103    4.4092 H       1  UNL1        0.0573
     43 H           1.9570   -5.1248    2.9519 H       1  UNL1        0.0573
     44 H           1.5995   -6.9941    5.0482 H       1  UNL1        0.2095
     45 H           1.3677   -2.1168   -0.0240 H       1  UNL1        0.0628
@<TRIPOS>BOND
     1     1     2    1
     2     2     3   ar
     3     3     4   ar
     4     4     5   ar
     5     5     6    1
     6     5     7   ar
     7     7     8    1
     8     8     9   ar
     9     9    10   ar
    10    10    11   ar
    11    11    12   ar
    12     8    12   ar
    13    12    13    1
    14    14    15   ar
    15    15    16   ar
    16    16    17   ar
    17    17    18   ar
    18    18    19   ar
    19    14    19   ar
    20    19    20    1
    21    13    21    1
    22    21    22    1
    23    22    23    1
    24    23    24    1
    25    21    25   am
    26    11    25    1
    27    25    26    2
    28     7    27   ar
    29     2    27   ar
    30    13    14    1
    31     1    28    1
    32     1    29    1
    33     1    30    1
    34     3    31    1
    35     4    32    1
    36     6    33    1
    37     9    34    1
    38    13    35    1
    39    15    36    1
    40    16    37    1
    41    17    38    1
    42    18    39    1
    43    22    40    1
    44    22    41    1
    45    23    42    1
    46    23    43    1
    47    24    44    1
    48    27    45    1
