REMARK  3 active torsions:
REMARK  status: ('A' for Active; 'I' for Inactive)
REMARK       I    between atoms: C_2  and  N_3 
REMARK    1  A    between atoms: C_2  and  C_12 
REMARK    2  A    between atoms: N_3  and  N_4 
REMARK    3  A    between atoms: N_4  and  C_5 
ROOT
ATOM      1  O   UNL d   1       0.763   0.061   0.205  0.00  0.00    -0.278 OA
ATOM      2  C   UNL d   1       1.971   0.107  -0.058  0.00  0.00     0.219 C 
ATOM      3  N   UNL d   1       2.526   1.064  -0.909  0.00  0.00    -0.173 NA
ATOM      4  H   UNL d   1       3.519   1.155  -0.845  0.00  0.00     0.155 HD
ENDROOT
BRANCH   3   5
ATOM      5  N   UNL d   1       2.013   2.350  -1.028  0.00  0.00    -0.315 N 
ATOM      6  H   UNL d   1       1.003   2.430  -1.141  0.00  0.00     0.181 HD
BRANCH   5   7
ATOM      7  C   UNL d   1       2.852   3.302  -1.672  0.00  0.00     0.043 A 
ATOM      8  C   UNL d   1       3.975   2.989  -2.475  0.00  0.00     0.033 A 
ATOM      9  C   UNL d   1       4.813   3.991  -3.002  0.00  0.00     0.044 A 
ATOM     10  C   UNL d   1       4.542   5.321  -2.724  0.00  0.00     0.116 A 
ATOM     11  F   UNL d   1       5.327   6.283  -3.231  0.00  0.00    -0.206 F 
ATOM     12  C   UNL d   1       3.463   5.662  -1.923  0.00  0.00     0.044 A 
ATOM     13  C   UNL d   1       2.630   4.660  -1.401  0.00  0.00     0.033 A 
ENDBRANCH   5   7
ENDBRANCH   3   5
BRANCH   2  14
ATOM     14  C   UNL d   1       2.982  -0.932   0.560  0.00  0.00     0.077 C 
ATOM     15  C   UNL d   1       3.945  -1.471  -0.511  0.00  0.00     0.040 C 
ATOM     16  C   UNL d   1       4.992  -0.439  -0.867  0.00  0.00    -0.030 C 
ATOM     17  C   UNL d   1       5.296   0.602  -0.058  0.00  0.00    -0.031 C 
ATOM     18  C   UNL d   1       4.616   0.851   1.279  0.00  0.00     0.027 C 
ATOM     19  C   UNL d   1       3.816  -0.367   1.730  0.00  0.00     0.018 C 
ENDBRANCH   2  14
TORSDOF 3
