REMARK  10 active torsions:
REMARK  status: ('A' for Active; 'I' for Inactive)
REMARK    1  A    between atoms: C_2  and  O_3 
REMARK    2  A    between atoms: O_3  and  C_4 
REMARK    3  A    between atoms: C_4  and  C_6 
REMARK    4  A    between atoms: C_9  and  N_10 
REMARK    5  A    between atoms: N_13  and  C_14 
REMARK    6  A    between atoms: C_18  and  N_19 
REMARK    7  A    between atoms: N_19  and  C_20 
REMARK    8  A    between atoms: C_20  and  N_22 
REMARK       I    between atoms: N_22  and  C_23 
REMARK    9  A    between atoms: C_23  and  C_25 
REMARK   10  A    between atoms: C_31  and  O_32 
ROOT
ATOM      1  C   UNL d   1       4.939   1.178  -2.667  0.00  0.00     0.041 A 
ATOM      2  C   UNL d   1       5.952   0.775  -3.501  0.00  0.00     0.020 A 
ATOM      3  C   UNL d   1       6.305   1.596  -4.606  0.00  0.00     0.033 A 
ATOM      4  C   UNL d   1       5.664   2.844  -4.931  0.00  0.00     0.057 A 
ATOM      5  C   UNL d   1       4.693   3.300  -3.991  0.00  0.00     0.062 A 
ATOM      6  C   UNL d   1       4.384   2.411  -2.945  0.00  0.00     0.049 A 
ENDROOT
BRANCH   5   7
ATOM      7  N   UNL d   1       4.022   4.601  -4.002  0.00  0.00    -0.331 N 
ATOM      8  H   UNL d   1       4.303   5.184  -4.766  0.00  0.00     0.168 HD
BRANCH   7   9
ATOM      9  C   UNL d   1       3.062   5.115  -3.057  0.00  0.00     0.179 C 
ATOM     10  S   UNL d   1       2.230   4.262  -1.859  0.00  0.00    -0.040 SA
BRANCH   9  11
ATOM     11  N   UNL d   1       2.756   6.484  -3.216  0.00  0.00    -0.299 N 
ATOM     12  C   UNL d   1       1.603   7.075  -2.653  0.00  0.00     0.260 C 
ATOM     13  O   UNL d   1       0.946   6.643  -1.707  0.00  0.00    -0.267 OA
ATOM     14  H   UNL d   1       3.296   7.056  -3.846  0.00  0.00     0.171 HD
BRANCH  12  15
ATOM     15  C   UNL d   1       1.052   8.336  -3.149  0.00  0.00     0.066 A 
ATOM     16  C   UNL d   1       0.738   9.225  -2.088  0.00  0.00     0.020 A 
ATOM     17  C   UNL d   1      -0.048  10.347  -2.289  0.00  0.00     0.002 A 
ATOM     18  C   UNL d   1      -0.474  10.639  -3.573  0.00  0.00     0.009 A 
ATOM     19  C   UNL d   1      -0.203   9.756  -4.636  0.00  0.00    -0.028 A 
ATOM     20  C   UNL d   1      -0.773  10.071  -5.992  0.00  0.00     0.051 C 
ATOM     21  C   UNL d   1       0.535   8.564  -4.432  0.00  0.00     0.089 A 
BRANCH  21  22
ATOM     22  O   UNL d   1       0.568   7.769  -5.551  0.00  0.00    -0.354 OA
ATOM     23  C   UNL d   1       1.209   6.515  -5.510  0.00  0.00     0.210 C 
ENDBRANCH  21  22
ENDBRANCH  12  15
ENDBRANCH   9  11
ENDBRANCH   7   9
ENDBRANCH   5   7
BRANCH   4  24
ATOM     24  N   UNL d   1       6.025   3.451  -6.135  0.00  0.00    -0.376 N 
ATOM     25  C   UNL d   1       6.470   4.830  -6.319  0.00  0.00     0.150 C 
ATOM     26  C   UNL d   1       5.426   5.617  -7.157  0.00  0.00     0.254 C 
ATOM     27  N   UNL d   1       5.058   4.907  -8.483  0.00  0.00    -0.068 N 
ATOM     28  C   UNL d   1       4.777   3.393  -8.256  0.00  0.00     0.254 C 
ATOM     29  H   UNL d   1       5.876   4.983  -9.103  0.00  0.00     0.280 HD
ATOM     30  C   UNL d   1       5.889   2.719  -7.412  0.00  0.00     0.150 C 
BRANCH  27  31
ATOM     31  C   UNL d   1       3.899   5.623  -9.174  0.00  0.00     0.230 C 
ATOM     32  C   UNL d   1       3.640   5.079 -10.569  0.00  0.00     0.034 C 
ENDBRANCH  27  31
ENDBRANCH   4  24
BRANCH   1  33
ATOM     33  C   UNL d   1       4.504   0.516  -1.394  0.00  0.00     0.293 C 
ATOM     34  O   UNL d   1       5.311   0.071  -0.577  0.00  0.00    -0.259 OA
BRANCH  33  35
ATOM     35  O   UNL d   1       3.145   0.528  -1.246  0.00  0.00    -0.318 OA
BRANCH  35  36
ATOM     36  C   UNL d   1       2.635  -0.067  -0.028  0.00  0.00     0.174 C 
ATOM     37  C   UNL d   1       1.108  -0.064  -0.007  0.00  0.00     0.034 C 
ENDBRANCH  35  36
ENDBRANCH  33  35
ENDBRANCH   1  33
TORSDOF 10
