@<TRIPOS>MOLECULE
*****
 61 63 0 0 0
SMALL
GASTEIGER

@<TRIPOS>ATOM
      1 C           0.9714    0.0593    0.0759 C.3     1  UNL1       -0.0653
      2 C           2.4913    0.0494    0.0852 C.3     1  UNL1       -0.0558
      3 C           3.0207   -1.0157    1.0432 C.3     1  UNL1       -0.0502
      4 C           4.5475   -1.0363    1.0769 C.3     1  UNL1       -0.0186
      5 C           5.0643   -2.1054    2.0450 C.3     1  UNL1        0.0896
      6 O           6.4884   -2.0050    2.1150 O.3     1  UNL1       -0.4920
      7 C           7.1592   -2.9839    2.7986 C.ar    1  UNL1        0.1205
      8 C           8.3745   -2.5912    3.3682 C.ar    1  UNL1       -0.0193
      9 C           9.2351   -3.5315    3.9659 C.ar    1  UNL1       -0.0496
     10 C           8.8544   -4.8757    4.0606 C.ar    1  UNL1       -0.0052
     11 C           9.7150   -5.8654    4.7930 C.2     1  UNL1        0.0528
     12 N           9.3526   -7.1029    4.9387 N.2     1  UNL1       -0.1877
     13 N          10.1505   -7.9823    5.6577 N.am    1  UNL1       -0.2063
     14 C           9.7049   -9.3055    5.7917 C.2     1  UNL1        0.2424
     15 O           8.6370   -9.6768    5.2804 O.2     1  UNL1       -0.2732
     16 C          10.6104  -10.2805    6.6011 C.3     1  UNL1        0.0784
     17 S           9.8273  -11.9431    6.6026 S.3     1  UNL1       -0.0876
     18 C          10.8287  -13.0441    7.5119 C.ar    1  UNL1        0.1597
     19 N          11.8140  -12.7052    8.3110 N.ar    1  UNL1       -0.1339
     20 N          12.3804  -13.8214    8.9252 N.ar    1  UNL1       -0.1339
     21 C          11.8156  -14.9578    8.5578 C.ar    1  UNL1        0.1596
     22 S          12.4389  -16.4737    9.1744 S.3     1  UNL1       -0.0923
     23 C          11.3802  -17.8029    8.5126 C.3     1  UNL1        0.0254
     24 C          11.7207  -19.1879    9.0540 C.ar    1  UNL1       -0.0371
     25 C          11.4542  -20.3353    8.2867 C.ar    1  UNL1       -0.0575
     26 C          11.5973  -21.6171    8.8372 C.ar    1  UNL1       -0.0586
     27 C          12.0892  -21.7839   10.1352 C.ar    1  UNL1       -0.0504
     28 C          12.3683  -23.1464   10.6940 C.3     1  UNL1       -0.0397
     29 C          12.3686  -20.6517   10.9003 C.ar    1  UNL1       -0.0586
     30 C          12.1712  -19.3754   10.3712 C.ar    1  UNL1       -0.0575
     31 S          10.5266  -14.7471    7.4578 S.2     1  UNL1       -0.0330
     32 C           7.6320   -5.2647    3.4984 C.ar    1  UNL1       -0.0496
     33 C           6.7903   -4.3260    2.8700 C.ar    1  UNL1       -0.0193
     34 H           0.5982    0.8247   -0.6108 H       1  UNL1        0.0230
     35 H           0.5776    0.2744    1.0746 H       1  UNL1        0.0230
     36 H           0.5778   -0.9103   -0.2457 H       1  UNL1        0.0230
     37 H           2.8584    1.0381    0.3841 H       1  UNL1        0.0263
     38 H           2.8593   -0.1419   -0.9295 H       1  UNL1        0.0263
     39 H           2.6444   -2.0003    0.7389 H       1  UNL1        0.0266
     40 H           2.6361   -0.8217    2.0520 H       1  UNL1        0.0266
     41 H           4.9341   -0.0516    1.3668 H       1  UNL1        0.0298
     42 H           4.9426   -1.2302    0.0710 H       1  UNL1        0.0298
     43 H           4.7339   -3.0825    1.6798 H       1  UNL1        0.0696
     44 H           4.6527   -1.9271    3.0447 H       1  UNL1        0.0696
     45 H           8.6506   -1.5379    3.3461 H       1  UNL1        0.0654
     46 H          10.1960   -3.1895    4.3396 H       1  UNL1        0.0625
     47 H          10.6573   -5.4789    5.2201 H       1  UNL1        0.0851
     48 H          11.0089   -7.6462    6.0800 H       1  UNL1        0.1772
     49 H          10.7153   -9.9144    7.6269 H       1  UNL1        0.0476
     50 H          11.5937  -10.3380    6.1239 H       1  UNL1        0.0476
     51 H          11.4722  -17.8085    7.4205 H       1  UNL1        0.0429
     52 H          10.3302  -17.6167    8.7683 H       1  UNL1        0.0429
     53 H          11.1246  -20.2520    7.2527 H       1  UNL1        0.0621
     54 H          11.3192  -22.4877    8.2461 H       1  UNL1        0.0620
     55 H          12.1069  -23.9331    9.9796 H       1  UNL1        0.0278
     56 H          11.7998  -23.3149   11.6137 H       1  UNL1        0.0278
     57 H          13.4383  -23.2375   10.9108 H       1  UNL1        0.0278
     58 H          12.7364  -20.7487   11.9194 H       1  UNL1        0.0620
     59 H          12.3853  -18.5269   11.0158 H       1  UNL1        0.0621
     60 H           7.3274   -6.3094    3.5294 H       1  UNL1        0.0625
     61 H           5.8696   -4.6878    2.4249 H       1  UNL1        0.0654
@<TRIPOS>BOND
     1     1     2    1
     2     2     3    1
     3     3     4    1
     4     4     5    1
     5     5     6    1
     6     6     7    1
     7     7     8   ar
     8     8     9   ar
     9     9    10   ar
    10    10    11    1
    11    11    12    2
    12    12    13    1
    13    13    14   am
    14    14    15    2
    15    14    16    1
    16    16    17    1
    17    17    18    1
    18    18    19   ar
    19    19    20   ar
    20    20    21   ar
    21    21    22    1
    22    22    23    1
    23    23    24    1
    24    24    25   ar
    25    25    26   ar
    26    26    27   ar
    27    27    28    1
    28    27    29   ar
    29    29    30   ar
    30    24    30   ar
    31    21    31   ar
    32    18    31   ar
    33    10    32   ar
    34    32    33   ar
    35     7    33   ar
    36     1    34    1
    37     1    35    1
    38     1    36    1
    39     2    37    1
    40     2    38    1
    41     3    39    1
    42     3    40    1
    43     4    41    1
    44     4    42    1
    45     5    43    1
    46     5    44    1
    47     8    45    1
    48     9    46    1
    49    11    47    1
    50    13    48    1
    51    16    49    1
    52    16    50    1
    53    23    51    1
    54    23    52    1
    55    25    53    1
    56    26    54    1
    57    28    55    1
    58    28    56    1
    59    28    57    1
    60    29    58    1
    61    30    59    1
    62    32    60    1
    63    33    61    1
