@<TRIPOS>MOLECULE
*****
 51 54 0 0 0
SMALL
GASTEIGER

@<TRIPOS>ATOM
      1 O          -1.6443    1.9882    0.0050 O.2     1  UNL1       -0.2658
      2 C          -1.2906    0.8100    0.0178 C.ar    1  UNL1        0.2725
      3 N          -2.1856   -0.2287    0.1024 N.ar    1  UNL1       -0.2421
      4 N          -1.8863   -1.5595    0.0189 N.ar    1  UNL1       -0.1703
      5 C          -0.6332   -1.8976   -0.0470 C.ar    1  UNL1        0.0992
      6 C          -0.3113   -3.3398   -0.2052 C.ar    1  UNL1        0.0092
      7 C           0.5252   -3.9680    0.6980 C.ar    1  UNL1       -0.0503
      8 C           1.0196   -5.2338    0.3949 C.ar    1  UNL1       -0.0334
      9 C           0.5642   -6.0308   -0.6929 C.ar    1  UNL1        0.1082
     10 N           0.9263   -7.3724   -0.6310 N.pl3   1  UNL1       -0.3146
     11 C           1.4190   -8.2861   -1.6829 C.3     1  UNL1        0.0527
     12 C           0.5321   -9.5755   -1.7545 C.3     1  UNL1       -0.0157
     13 N           0.3687  -10.2390   -0.3469 N.4     1  UNL1        0.2391
     14 C          -0.5976  -11.4135   -0.3835 C.3     1  UNL1       -0.0081
     15 C          -0.6863  -12.1585    0.9609 C.3     1  UNL1        0.0841
     16 O          -1.6235  -13.2211    0.8824 O.3     1  UNL1       -0.3898
     17 C          -0.0444   -9.1982    0.6923 C.3     1  UNL1       -0.0157
     18 C           0.9082   -8.0019    0.6993 C.3     1  UNL1        0.0527
     19 C          -0.3068   -5.3635   -1.5949 C.ar    1  UNL1        0.2945
     20 N          -0.8702   -5.9807   -2.8109 N.pl3   1  UNL1        0.0815
     21 O          -0.6197   -7.1648   -3.0603 O.2     1  UNL1        0.0415
     22 O          -1.5894   -5.2804   -3.5353 O.co2   1  UNL1       -0.5760
     23 C          -0.7405   -4.0294   -1.3392 C.ar    1  UNL1        0.0267
     24 C           0.4775   -0.9047   -0.0193 C.ar    1  UNL1        0.0150
     25 C           1.8358   -1.2568   -0.0055 C.ar    1  UNL1       -0.0518
     26 C           2.8252   -0.2765    0.0400 C.ar    1  UNL1       -0.0611
     27 C           2.4704    1.0673    0.0144 C.ar    1  UNL1       -0.0610
     28 C           1.1241    1.4307   -0.0288 C.ar    1  UNL1       -0.0487
     29 C           0.1309    0.4421   -0.0237 C.ar    1  UNL1        0.0499
     30 H          -3.1688    0.0178    0.1764 H       1  UNL1        0.1921
     31 H           0.8469   -3.4671    1.6094 H       1  UNL1        0.0625
     32 H           1.7916   -5.6182    1.0632 H       1  UNL1        0.0638
     33 H           2.4307   -8.6044   -1.3925 H       1  UNL1        0.0516
     34 H           1.5521   -7.8102   -2.6593 H       1  UNL1        0.0516
     35 H           0.9922  -10.3283   -2.4050 H       1  UNL1        0.0830
     36 H          -0.4812   -9.3632   -2.1031 H       1  UNL1        0.0830
     37 H           1.2927  -10.6084   -0.0885 H       1  UNL1        0.2035
     38 H          -0.2547  -12.1032   -1.1629 H       1  UNL1        0.0837
     39 H          -1.5828  -11.0321   -0.6752 H       1  UNL1        0.0837
     40 H          -0.9965  -11.5057    1.7814 H       1  UNL1        0.0610
     41 H           0.2857  -12.5882    1.2256 H       1  UNL1        0.0610
     42 H          -2.5244  -12.8620    0.7812 H       1  UNL1        0.2096
     43 H          -0.0109   -9.6638    1.6793 H       1  UNL1        0.0830
     44 H          -1.0686   -8.8890    0.4541 H       1  UNL1        0.0830
     45 H           1.9278   -8.3106    0.9577 H       1  UNL1        0.0516
     46 H           0.5569   -7.3355    1.4935 H       1  UNL1        0.0516
     47 H          -1.4224   -3.5119   -2.0165 H       1  UNL1        0.0692
     48 H           2.1732   -2.2856   -0.0185 H       1  UNL1        0.0624
     49 H           3.8720   -0.5675    0.0921 H       1  UNL1        0.0618
     50 H           3.2431    1.8318    0.0336 H       1  UNL1        0.0618
     51 H           0.8506    2.4840   -0.0491 H       1  UNL1        0.0625
@<TRIPOS>UNITY_ATOM_ATTR
13 1
charge 1
20 1
charge 1
22 1
charge -1
@<TRIPOS>BOND
     1     1     2    2
     2     2     3   ar
     3     3     4   ar
     4     4     5   ar
     5     5     6    1
     6     6     7   ar
     7     7     8   ar
     8     8     9   ar
     9     9    10    1
    10    10    11    1
    11    11    12    1
    12    12    13    1
    13    13    14    1
    14    14    15    1
    15    15    16    1
    16    13    17    1
    17    17    18    1
    18    10    18    1
    19     9    19   ar
    20    19    20    1
    21    20    21    2
    22    20    22    1
    23    19    23   ar
    24     6    23   ar
    25     5    24   ar
    26    24    25   ar
    27    25    26   ar
    28    26    27   ar
    29    27    28   ar
    30    28    29   ar
    31     2    29   ar
    32    24    29   ar
    33     3    30    1
    34     7    31    1
    35     8    32    1
    36    11    33    1
    37    11    34    1
    38    12    35    1
    39    12    36    1
    40    13    37    1
    41    14    38    1
    42    14    39    1
    43    15    40    1
    44    15    41    1
    45    16    42    1
    46    17    43    1
    47    17    44    1
    48    18    45    1
    49    18    46    1
    50    23    47    1
    51    25    48    1
    52    26    49    1
    53    27    50    1
    54    28    51    1
