REMARK  7 active torsions:
REMARK  status: ('A' for Active; 'I' for Inactive)
REMARK    1  A    between atoms: C_2  and  C_3 
REMARK    2  A    between atoms: C_2  and  N_11 
REMARK    3  A    between atoms: C_3  and  C_4 
REMARK    4  A    between atoms: C_7  and  O_8 
REMARK       I    between atoms: N_11  and  C_12 
REMARK       I    between atoms: C_12  and  N_14 
REMARK    5  A    between atoms: N_14  and  N_15 
REMARK    6  A    between atoms: N_15  and  C_16 
REMARK    7  A    between atoms: C_19  and  N_20 
ROOT
ATOM      1  N   UNL d   1       3.155  -0.131  -1.375  0.00  0.00    -0.338 N 
ATOM      2  C   UNL d   1       4.518  -0.034  -1.583  0.00  0.00     0.331 C 
ATOM      3  O   UNL d   1       5.335   0.036  -0.661  0.00  0.00    -0.246 OA
ATOM      4  N   UNL d   1       4.908  -0.038  -2.913  0.00  0.00    -0.267 N 
ATOM      5  H   UNL d   1       2.526  -0.071  -2.161  0.00  0.00     0.164 HD
ATOM      6  H   UNL d   1       4.267  -0.143  -3.688  0.00  0.00     0.186 HD
ENDROOT
BRANCH   1   7
ATOM      7  C   UNL d   1       2.580  -0.069  -0.015  0.00  0.00     0.086 C 
ATOM      8  C   UNL d   1       1.039  -0.022  -0.037  0.00  0.00     0.032 C 
BRANCH   7   9
ATOM      9  C   UNL d   1       3.044  -1.262   0.857  0.00  0.00     0.063 C 
BRANCH   9  10
ATOM     10  C   UNL d   1       2.552  -1.236   2.289  0.00  0.00    -0.056 A 
ATOM     11  C   UNL d   1       2.359  -0.032   2.989  0.00  0.00     0.010 A 
ATOM     12  C   UNL d   1       1.845  -0.029   4.285  0.00  0.00     0.037 A 
ATOM     13  C   UNL d   1       1.569  -1.239   4.905  0.00  0.00     0.065 A 
ATOM     14  C   UNL d   1       1.802  -2.443   4.251  0.00  0.00     0.037 A 
ATOM     15  C   UNL d   1       2.291  -2.445   2.945  0.00  0.00     0.010 A 
BRANCH  13  16
ATOM     16  O   UNL d   1       1.064  -1.293   6.169  0.00  0.00    -0.361 OA
ATOM     17  H   UNL d   1       0.949  -0.386   6.495  0.00  0.00     0.217 HD
ENDBRANCH  13  16
ENDBRANCH   9  10
ENDBRANCH   7   9
ENDBRANCH   1   7
BRANCH   4  18
ATOM     18  N   UNL d   1       6.307   0.137  -3.185  0.00  0.00    -0.183 NA
ATOM     19  H   UNL d   1       6.881  -0.399  -2.527  0.00  0.00     0.154 HD
BRANCH  18  20
ATOM     20  C   UNL d   1       6.732  -0.068  -4.523  0.00  0.00     0.143 A 
ATOM     21  C   UNL d   1       6.199   0.716  -5.541  0.00  0.00     0.051 A 
ATOM     22  C   UNL d   1       6.713   0.656  -6.847  0.00  0.00     0.058 A 
ATOM     23  C   UNL d   1       7.723  -0.249  -7.131  0.00  0.00     0.172 A 
ATOM     24  N   UNL d   1       8.208  -1.047  -6.155  0.00  0.00    -0.129 NA
ATOM     25  N   UNL d   1       7.736  -0.916  -4.831  0.00  0.00    -0.135 NA
BRANCH  23  26
ATOM     26  N   UNL d   1       8.255  -0.325  -8.450  0.00  0.00    -0.225 N 
ATOM     27  C   UNL d   1       8.724   0.727  -9.219  0.00  0.00     0.122 A 
ATOM     28  C   UNL d   1       9.100   0.204 -10.435  0.00  0.00     0.040 A 
ATOM     29  C   UNL d   1       8.768  -1.157 -10.346  0.00  0.00     0.141 A 
ATOM     30  N   UNL d   1       8.289  -1.492  -9.146  0.00  0.00    -0.179 NA
ENDBRANCH  23  26
ENDBRANCH  18  20
ENDBRANCH   4  18
TORSDOF 7
