@<TRIPOS>MOLECULE
*****
 61 63 0 0 0
SMALL
GASTEIGER

@<TRIPOS>ATOM
      1 C           1.0607   -0.0031    0.0749 C.3     1  UNL1        0.0366
      2 O           2.4843   -0.0049    0.0605 O.3     1  UNL1       -0.3796
      3 C           2.9774    1.3080   -0.1892 C.3     1  UNL1        0.0813
      4 C           4.5014    1.3058   -0.2009 C.3     1  UNL1        0.1128
      5 O           4.9255    2.6451   -0.4773 O.3     1  UNL1       -0.4889
      6 C           6.2786    2.8542   -0.4613 C.ar    1  UNL1        0.1328
      7 C           7.1431    2.0079   -1.1758 C.ar    1  UNL1       -0.0181
      8 C           8.5082    2.2822   -1.2505 C.ar    1  UNL1       -0.0443
      9 C           9.0120    3.4142   -0.6199 C.ar    1  UNL1        0.0188
     10 BR         10.8632    3.7875   -0.7503 Br      1  UNL1       -0.0503
     11 C           8.1627    4.2706    0.0918 C.ar    1  UNL1       -0.0320
     12 C           6.7780    4.0055    0.1804 C.ar    1  UNL1        0.0808
     13 C           5.9158    4.9620    0.9789 C.2     1  UNL1        0.2637
     14 O           6.4264    5.9386    1.5352 O.2     1  UNL1       -0.2685
     15 N           4.5586    4.6957    1.0727 N.am    1  UNL1       -0.2300
     16 N           3.6864    5.5398    1.8002 N.am    1  UNL1       -0.2301
     17 C           2.3459    5.1889    1.9094 C.2     1  UNL1        0.2602
     18 O           1.8700    4.1792    1.3841 O.2     1  UNL1       -0.2687
     19 C           1.4333    6.0988    2.6639 C.ar    1  UNL1        0.0383
     20 C           0.3354    5.5929    3.3851 C.ar    1  UNL1       -0.0478
     21 C          -0.6491    6.4559    3.9294 C.ar    1  UNL1       -0.0398
     22 C          -0.5158    7.8448    3.8105 C.ar    1  UNL1        0.0334
     23 N          -1.4500    8.7283    4.4415 N.am    1  UNL1       -0.2853
     24 C          -1.3203   10.1142    4.4572 C.2     1  UNL1        0.2203
     25 O          -0.4537   10.7312    3.8364 O.2     1  UNL1       -0.2752
     26 C          -2.3402   10.9322    5.2613 C.3     1  UNL1        0.0359
     27 C          -2.4969   10.4525    6.7056 C.3     1  UNL1       -0.0419
     28 C          -3.3535   11.4069    7.5416 C.3     1  UNL1       -0.0524
     29 C          -2.8169   12.8341    7.5148 C.3     1  UNL1       -0.0530
     30 C          -2.7093   13.3400    6.0850 C.3     1  UNL1       -0.0524
     31 C          -1.8536   12.4069    5.2468 C.3     1  UNL1       -0.0419
     32 C           0.5831    8.3164    3.0795 C.ar    1  UNL1       -0.0398
     33 C           1.5492    7.4725    2.5212 C.ar    1  UNL1       -0.0478
     34 H           0.7151   -1.0192    0.2788 H       1  UNL1        0.0524
     35 H           0.6736    0.3114   -0.8993 H       1  UNL1        0.0524
     36 H           0.6852    0.6611    0.8599 H       1  UNL1        0.0524
     37 H           2.6179    1.9899    0.5859 H       1  UNL1        0.0593
     38 H           2.6042    1.6719   -1.1547 H       1  UNL1        0.0593
     39 H           4.8448    0.6039   -0.9671 H       1  UNL1        0.0720
     40 H           4.8835    0.9776    0.7737 H       1  UNL1        0.0720
     41 H           6.7686    1.1428   -1.7156 H       1  UNL1        0.0655
     42 H           9.1602    1.6183   -1.8155 H       1  UNL1        0.0630
     43 H           8.5826    5.1517    0.5745 H       1  UNL1        0.0637
     44 H           4.1298    3.9139    0.5779 H       1  UNL1        0.1731
     45 H           4.1173    6.3309    2.2751 H       1  UNL1        0.1731
     46 H           0.2368    4.5163    3.5192 H       1  UNL1        0.0626
     47 H          -1.5127    6.0111    4.4206 H       1  UNL1        0.0636
     48 H          -2.1989    8.3034    4.9759 H       1  UNL1        0.1548
     49 H          -3.3053   10.8789    4.7412 H       1  UNL1        0.0394
     50 H          -1.5072   10.3541    7.1690 H       1  UNL1        0.0272
     51 H          -2.9545    9.4577    6.7269 H       1  UNL1        0.0272
     52 H          -3.3950   11.0518    8.5767 H       1  UNL1        0.0265
     53 H          -4.3813   11.4037    7.1579 H       1  UNL1        0.0265
     54 H          -1.8307   12.8677    7.9954 H       1  UNL1        0.0265
     55 H          -3.4759   13.4946    8.0886 H       1  UNL1        0.0265
     56 H          -2.2714   14.3452    6.0774 H       1  UNL1        0.0265
     57 H          -3.7066   13.4182    5.6381 H       1  UNL1        0.0265
     58 H          -0.8209   12.4524    5.6245 H       1  UNL1        0.0272
     59 H          -1.8192   12.7845    4.2167 H       1  UNL1        0.0272
     60 H           0.7308    9.3691    2.8788 H       1  UNL1        0.0636
     61 H           2.3458    7.9271    1.9410 H       1  UNL1        0.0626
@<TRIPOS>BOND
     1     1     2    1
     2     2     3    1
     3     3     4    1
     4     4     5    1
     5     5     6    1
     6     6     7   ar
     7     7     8   ar
     8     8     9   ar
     9     9    10    1
    10     9    11   ar
    11    11    12   ar
    12     6    12   ar
    13    12    13    1
    14    13    14    2
    15    13    15   am
    16    15    16    1
    17    16    17   am
    18    17    18    2
    19    17    19    1
    20    19    20   ar
    21    20    21   ar
    22    21    22   ar
    23    22    23    1
    24    23    24   am
    25    24    25    2
    26    24    26    1
    27    26    27    1
    28    27    28    1
    29    28    29    1
    30    29    30    1
    31    30    31    1
    32    26    31    1
    33    22    32   ar
    34    32    33   ar
    35    19    33   ar
    36     1    34    1
    37     1    35    1
    38     1    36    1
    39     3    37    1
    40     3    38    1
    41     4    39    1
    42     4    40    1
    43     7    41    1
    44     8    42    1
    45    11    43    1
    46    15    44    1
    47    16    45    1
    48    20    46    1
    49    21    47    1
    50    23    48    1
    51    26    49    1
    52    27    50    1
    53    27    51    1
    54    28    52    1
    55    28    53    1
    56    29    54    1
    57    29    55    1
    58    30    56    1
    59    30    57    1
    60    31    58    1
    61    31    59    1
    62    32    60    1
    63    33    61    1
