@<TRIPOS>MOLECULE
*****
 47 49 0 0 0
SMALL
GASTEIGER

@<TRIPOS>ATOM
      1 O           0.9705   -0.0370   -0.1414 O.2     1  UNL1       -0.2749
      2 C           2.2005    0.0429   -0.0481 C.2     1  UNL1        0.2233
      3 C           2.9532    1.1029    0.7942 C.3     1  UNL1        0.0776
      4 S           1.7701    2.1450    1.6962 S.3     1  UNL1       -0.0750
      5 C           2.7004    3.3944    2.4838 C.ar    1  UNL1        0.2105
      6 N           3.6181    3.1685    3.4321 N.ar    1  UNL1       -0.1443
      7 N           3.8083    4.4227    3.9180 N.ar    1  UNL1       -0.2446
      8 C           3.0347    5.3501    3.2634 C.ar    1  UNL1        0.2317
      9 N           3.0207    6.6810    3.5714 N.pl3   1  UNL1       -0.2054
     10 N           2.1968    7.5330    2.8717 N.2     1  UNL1       -0.1875
     11 C           2.2712    8.8035    3.1124 C.2     1  UNL1        0.0542
     12 C           1.4728    9.7746    2.3136 C.ar    1  UNL1        0.0143
     13 C           0.1293    9.4914    2.0190 C.ar    1  UNL1       -0.0516
     14 C          -0.6142   10.3559    1.2070 C.ar    1  UNL1       -0.0597
     15 C          -0.0233   11.5073    0.6888 C.ar    1  UNL1       -0.0419
     16 C           1.3069   11.8089    0.9988 C.ar    1  UNL1        0.0599
     17 CL          1.9585   13.2682    0.3313 Cl      1  UNL1       -0.0820
     18 C           2.0640   10.9472    1.8142 C.ar    1  UNL1        0.0679
     19 CL          3.7280   11.3044    2.1568 Cl      1  UNL1       -0.0814
     20 N           2.3389    4.7078    2.3509 N.ar    1  UNL1       -0.1865
     21 N           2.9274   -0.8851   -0.7559 N.am    1  UNL1       -0.3143
     22 C           4.3625   -0.9389   -0.8369 C.3     1  UNL1        0.0156
     23 C           4.9309   -2.0531   -1.7261 C.3     1  UNL1       -0.0121
     24 C           6.4493   -2.0654   -1.7370 C.ar    1  UNL1       -0.0458
     25 C           7.1997   -0.9379   -1.3593 C.ar    1  UNL1       -0.0571
     26 C           8.5910   -0.9514   -1.3813 C.ar    1  UNL1       -0.0431
     27 C           9.2575   -2.0945   -1.7972 C.ar    1  UNL1        0.0410
     28 CL         10.9756   -2.0968   -1.8421 Cl      1  UNL1       -0.0835
     29 C           8.5402   -3.2260   -2.1815 C.ar    1  UNL1       -0.0431
     30 C           7.1400   -3.2115   -2.1576 C.ar    1  UNL1       -0.0571
     31 H           3.5640    1.7127    0.1197 H       1  UNL1        0.0475
     32 H           3.6012    0.5858    1.5079 H       1  UNL1        0.0475
     33 H           4.4459    4.5585    4.6930 H       1  UNL1        0.1919
     34 H           3.6398    7.0656    4.2827 H       1  UNL1        0.1774
     35 H           2.9481    9.2212    3.8787 H       1  UNL1        0.0852
     36 H          -0.3460    8.5957    2.4165 H       1  UNL1        0.0624
     37 H          -1.6515   10.1275    0.9660 H       1  UNL1        0.0618
     38 H          -0.6016   12.1643    0.0401 H       1  UNL1        0.0633
     39 H           2.3627   -1.5262   -1.3039 H       1  UNL1        0.1487
     40 H           4.7419   -1.0505    0.1847 H       1  UNL1        0.0465
     41 H           4.6701    0.0398   -1.2167 H       1  UNL1        0.0465
     42 H           4.5718   -1.9338   -2.7568 H       1  UNL1        0.0328
     43 H           4.5619   -3.0243   -1.3698 H       1  UNL1        0.0328
     44 H           6.7284   -0.0164   -1.0316 H       1  UNL1        0.0621
     45 H           9.1351   -0.0631   -1.0733 H       1  UNL1        0.0632
     46 H           9.0664   -4.1214   -2.5009 H       1  UNL1        0.0632
     47 H           6.5982   -4.1041   -2.4662 H       1  UNL1        0.0621
@<TRIPOS>BOND
     1     1     2    2
     2     2     3    1
     3     3     4    1
     4     4     5    1
     5     5     6   ar
     6     6     7   ar
     7     7     8   ar
     8     8     9    1
     9     9    10    1
    10    10    11    2
    11    11    12    1
    12    12    13   ar
    13    13    14   ar
    14    14    15   ar
    15    15    16   ar
    16    16    17    1
    17    16    18   ar
    18    12    18   ar
    19    18    19    1
    20     8    20   ar
    21     5    20   ar
    22     2    21   am
    23    21    22    1
    24    22    23    1
    25    23    24    1
    26    24    25   ar
    27    25    26   ar
    28    26    27   ar
    29    27    28    1
    30    27    29   ar
    31    29    30   ar
    32    24    30   ar
    33     3    31    1
    34     3    32    1
    35     7    33    1
    36     9    34    1
    37    11    35    1
    38    13    36    1
    39    14    37    1
    40    15    38    1
    41    21    39    1
    42    22    40    1
    43    22    41    1
    44    23    42    1
    45    23    43    1
    46    25    44    1
    47    26    45    1
    48    29    46    1
    49    30    47    1
