REMARK  4 active torsions:
REMARK  status: ('A' for Active; 'I' for Inactive)
REMARK       I    between atoms: C_2  and  N_3 
REMARK    1  A    between atoms: C_2  and  C_15 
REMARK    2  A    between atoms: N_3  and  N_4 
REMARK       I    between atoms: N_4  and  C_5 
REMARK    3  A    between atoms: C_5  and  C_7 
REMARK    4  A    between atoms: C_20  and  O_21 
ROOT
ATOM      1  O   UNL d   1       1.036   0.147   0.135  0.00  0.00    -0.266 OA
ATOM      2  C   UNL d   1       2.267   0.136   0.132  0.00  0.00     0.272 C 
ATOM      3  N   UNL d   1       3.011   0.908   1.020  0.00  0.00    -0.263 N 
ATOM      4  H   UNL d   1       4.027   0.974   1.007  0.00  0.00     0.190 HD
ENDROOT
BRANCH   3   5
ATOM      5  N   UNL d   1       2.325   1.754   1.933  0.00  0.00    -0.263 N 
ATOM      6  C   UNL d   1       3.049   2.589   2.775  0.00  0.00     0.271 C 
ATOM      7  O   UNL d   1       4.280   2.592   2.806  0.00  0.00    -0.266 OA
ATOM      8  H   UNL d   1       1.310   1.765   1.843  0.00  0.00     0.190 HD
BRANCH   6   9
ATOM      9  C   UNL d   1       2.257   3.484   3.679  0.00  0.00     0.057 A 
ATOM     10  C   UNL d   1       1.195   2.935   4.419  0.00  0.00     0.042 A 
ATOM     11  C   UNL d   1       0.433   3.745   5.270  0.00  0.00     0.035 A 
ATOM     12 CL   UNL d   1      -0.862   3.059   6.173  0.00  0.00    -0.084 Cl
ATOM     13  C   UNL d   1       0.706   5.104   5.397  0.00  0.00     0.025 A 
ATOM     14  C   UNL d   1       1.775   5.653   4.689  0.00  0.00     0.026 A 
ATOM     15  C   UNL d   1       2.561   4.847   3.846  0.00  0.00     0.050 A 
ATOM     16 CL   UNL d   1       3.860   5.635   3.025  0.00  0.00    -0.083 Cl
ENDBRANCH   6   9
ENDBRANCH   3   5
BRANCH   2  17
ATOM     17  C   UNL d   1       3.029  -0.764  -0.794  0.00  0.00     0.066 A 
ATOM     18  C   UNL d   1       4.036  -1.591  -0.274  0.00  0.00     0.020 A 
ATOM     19  C   UNL d   1       4.697  -2.516  -1.095  0.00  0.00     0.001 A 
ATOM     20  C   UNL d   1       4.365  -2.621  -2.445  0.00  0.00     0.003 A 
ATOM     21  C   UNL d   1       3.368  -1.803  -2.979  0.00  0.00     0.037 A 
ATOM     22  C   UNL d   1       2.700  -0.884  -2.156  0.00  0.00     0.081 A 
BRANCH  22  23
ATOM     23  O   UNL d   1       1.738  -0.081  -2.704  0.00  0.00    -0.360 OA
ATOM     24  H   UNL d   1       1.571  -0.343  -3.624  0.00  0.00     0.217 HD
ENDBRANCH  22  23
ENDBRANCH   2  17
TORSDOF 4
