@<TRIPOS>MOLECULE
*****
 46 48 0 0 0
SMALL
GASTEIGER

@<TRIPOS>ATOM
      1 C           4.1553    6.8052   -3.5083 C.3     1  UNL1       -0.0306
      2 C           4.1075    5.2942   -3.4645 C.3     1  UNL1        0.0898
      3 O           4.5570    4.8767   -2.1652 O.3     1  UNL1       -0.4607
      4 C           4.6866    3.5272   -2.0594 C.2     1  UNL1        0.3806
      5 O           4.5730    2.7553   -3.0156 O.2     1  UNL1       -0.2439
      6 C           4.8725    3.0371   -0.5789 C.3     1  UNL1        0.3734
      7 N           4.0451    1.7938   -0.5282 N.am    1  UNL1       -0.2437
      8 C           2.7047    2.0202   -0.9055 C.2     1  UNL1        0.3288
      9 O           2.3945    3.1026   -1.3525 O.2     1  UNL1       -0.2505
     10 N           1.7487    1.0771   -0.6311 N.am    1  UNL1       -0.1391
     11 C           0.5415    1.5719   -0.5259 C.ar    1  UNL1        0.1654
     12 N          -0.0054    2.8791   -0.5833 N.ar    1  UNL1       -0.3353
     13 C          -1.2624    3.0509    0.0803 C.ar    1  UNL1        0.0549
     14 C          -1.9587    4.2201    0.5313 C.ar    1  UNL1       -0.0372
     15 C          -3.2000    4.1351    1.1703 C.ar    1  UNL1       -0.0598
     16 C          -3.8006    2.8933    1.2737 C.ar    1  UNL1       -0.0606
     17 C          -3.1063    1.7356    0.9026 C.ar    1  UNL1       -0.0459
     18 C          -1.8447    1.8185    0.3440 C.ar    1  UNL1        0.0387
     19 S          -0.7709    0.4520   -0.0724 S.2     1  UNL1       -0.0522
     20 O           4.6396    3.8823    0.5813 O.3     1  UNL1       -0.4508
     21 C           3.4109    4.1147    1.1206 C.ar    1  UNL1        0.1244
     22 C           2.6121    3.1079    1.6823 C.ar    1  UNL1       -0.0198
     23 C           1.2883    3.3841    1.9346 C.ar    1  UNL1       -0.0583
     24 C           0.8704    4.6803    1.6639 C.ar    1  UNL1       -0.0615
     25 C           1.6768    5.7571    1.4301 C.ar    1  UNL1       -0.0583
     26 C           2.9674    5.4483    1.0941 C.ar    1  UNL1       -0.0198
     27 C           6.4226    2.9123   -0.5950 C.3     1  UNL1        0.4592
     28 F           6.9110    2.4535    0.5871 F       1  UNL1       -0.1647
     29 F           6.8980    2.0849   -1.5510 F       1  UNL1       -0.1647
     30 F           7.0086    4.1268   -0.7966 F       1  UNL1       -0.1647
     31 H           3.8654    7.1785   -4.4942 H       1  UNL1        0.0262
     32 H           5.1655    7.1561   -3.2762 H       1  UNL1        0.0262
     33 H           3.4843    7.2321   -2.7562 H       1  UNL1        0.0262
     34 H           4.7558    4.8842   -4.2483 H       1  UNL1        0.0694
     35 H           3.0782    4.9501   -3.6311 H       1  UNL1        0.0694
     36 H           4.4562    0.8875   -0.3386 H       1  UNL1        0.1549
     37 H           0.6785    3.6304   -0.6592 H       1  UNL1        0.1677
     38 H          -1.5948    5.2519    0.5360 H       1  UNL1        0.0638
     39 H          -3.6965    5.0313    1.5534 H       1  UNL1        0.0618
     40 H          -4.8205    2.8246    1.6353 H       1  UNL1        0.0618
     41 H          -3.5564    0.7628    1.0272 H       1  UNL1        0.0629
     42 H           2.9085    2.0628    1.7177 H       1  UNL1        0.0654
     43 H           0.5749    2.5587    2.0075 H       1  UNL1        0.0619
     44 H          -0.0039    4.8226    1.0836 H       1  UNL1        0.0618
     45 H           1.2009    6.7160    1.2360 H       1  UNL1        0.0619
     46 H           3.5771    6.2430    0.6912 H       1  UNL1        0.0654
@<TRIPOS>BOND
     1     1     2    1
     2     2     3    1
     3     3     4    1
     4     4     5    2
     5     7     8   am
     6     8     9    2
     7     8    10    1
     8    10    11    2
     9    11    12   ar
    10    12    13   ar
    11    13    14   ar
    12    14    15   ar
    13    15    16   ar
    14    16    17   ar
    15    17    18   ar
    16    13    18   ar
    17    18    19   ar
    18    11    19   ar
    19     6    20    1
    20    20    21    1
    21    21    22   ar
    22    22    23   ar
    23    23    24   ar
    24    24    25   ar
    25    25    26   ar
    26    21    26   ar
    27     6    27    1
    28    27    28    1
    29    27    29    1
    30    27    30    1
    31     6     7    1
    32     6     4    1
    33     1    31    1
    34     1    32    1
    35     1    33    1
    36     2    34    1
    37     2    35    1
    38     7    36    1
    39    12    37    1
    40    14    38    1
    41    15    39    1
    42    16    40    1
    43    17    41    1
    44    22    42    1
    45    23    43    1
    46    24    44    1
    47    25    45    1
    48    26    46    1
