@<TRIPOS>MOLECULE
*****
 81 84 0 0 0
SMALL
GASTEIGER

@<TRIPOS>ATOM
      1 O          26.9765   12.3690   31.6550 O.2     1  UNL1       -0.2755
      2 C          25.7761   12.2355   31.9231 C.2     1  UNL1        0.2172
      3 C          24.7401   11.9101   30.8609 C.3     1  UNL1        0.0243
      4 C          25.3190   11.7671   29.4689 C.3     1  UNL1       -0.0448
      5 C          24.2103   11.3819   28.4939 C.3     1  UNL1       -0.0526
      6 C          24.7821   11.2140   27.0976 C.3     1  UNL1       -0.0530
      7 C          23.6822   10.8444   26.1079 C.3     1  UNL1       -0.0526
      8 C          24.2674   10.6891   24.7147 C.3     1  UNL1       -0.0448
      9 C          23.2120   10.3226   23.6641 C.3     1  UNL1        0.0243
     10 C          23.8879   10.1916   22.3106 C.2     1  UNL1        0.2172
     11 O          25.1046   10.3650   22.1971 O.2     1  UNL1       -0.2755
     12 N          23.0493    9.9054   21.2430 N.am    1  UNL1       -0.2855
     13 C          23.5644    9.6919   19.9413 C.ar    1  UNL1        0.0336
     14 C          22.9032   10.1637   18.8063 C.ar    1  UNL1       -0.0370
     15 C          23.4432    9.9158   17.5283 C.ar    1  UNL1       -0.0182
     16 C          24.6516    9.2216   17.3776 C.ar    1  UNL1        0.1207
     17 O          25.1327    9.0909   16.1006 O.3     1  UNL1       -0.4894
     18 C          26.4345    8.4961   15.9663 C.3     1  UNL1        0.1156
     19 C          26.8863    8.5495   14.5006 C.3     1  UNL1        0.0927
     20 C          27.0984    9.9721   14.0036 C.3     1  UNL1       -0.0213
     21 C          28.5743   10.1955   14.2217 C.3     1  UNL1       -0.0270
     22 C          29.1596    8.8219   13.9909 C.3     1  UNL1        0.0482
     23 O          28.1503    7.8698   14.3552 O.3     1  UNL1       -0.3732
     24 C          25.2826    8.7275   18.5126 C.ar    1  UNL1       -0.0182
     25 C          24.7457    8.9658   19.7765 C.ar    1  UNL1       -0.0370
     26 N          25.3412   12.4778   33.2042 N.am    1  UNL1       -0.2855
     27 C          24.0584   12.2634   33.7326 C.ar    1  UNL1        0.0336
     28 C          23.5307   13.1388   34.6800 C.ar    1  UNL1       -0.0370
     29 C          22.2507   12.9003   35.2104 C.ar    1  UNL1       -0.0182
     30 C          21.4765   11.8240   34.7599 C.ar    1  UNL1        0.1207
     31 O          20.2037   11.7245   35.2541 O.3     1  UNL1       -0.4894
     32 C          19.4070   10.6469   34.7286 C.3     1  UNL1        0.1156
     33 C          17.9899   10.7323   35.3125 C.3     1  UNL1        0.0927
     34 C          16.9803   11.2952   34.3191 C.3     1  UNL1       -0.0213
     35 C          16.4045   10.0596   33.6700 C.3     1  UNL1       -0.0270
     36 C          16.4409    9.0456   34.7884 C.3     1  UNL1        0.0482
     37 O          17.5332    9.4031   35.6411 O.3     1  UNL1       -0.3732
     38 C          22.0322   10.9345   33.8521 C.ar    1  UNL1       -0.0182
     39 C          23.3204   11.1384   33.3778 C.ar    1  UNL1       -0.0370
     40 H          23.9638   12.6852   30.8723 H       1  UNL1        0.0358
     41 H          24.2868   10.9443   31.0681 H       1  UNL1        0.0358
     42 H          26.0883   10.9850   29.4760 H       1  UNL1        0.0270
     43 H          25.7996   12.7004   29.1586 H       1  UNL1        0.0270
     44 H          23.4288   12.1519   28.4909 H       1  UNL1        0.0265
     45 H          23.7335   10.4449   28.8119 H       1  UNL1        0.0265
     46 H          25.5551   10.4351   27.1092 H       1  UNL1        0.0265
     47 H          25.2691   12.1473   26.7892 H       1  UNL1        0.0265
     48 H          22.9127   11.6247   26.1036 H       1  UNL1        0.0265
     49 H          23.2040    9.9083   26.4180 H       1  UNL1        0.0265
     50 H          25.0508    9.9191   24.7365 H       1  UNL1        0.0270
     51 H          24.7629   11.6263   24.4264 H       1  UNL1        0.0270
     52 H          22.4436   11.1016   23.6183 H       1  UNL1        0.0358
     53 H          22.7370    9.3713   23.9286 H       1  UNL1        0.0358
     54 H          22.0476   10.0018   21.3523 H       1  UNL1        0.1548
     55 H          22.0169   10.7876   18.8902 H       1  UNL1        0.0637
     56 H          22.9227   10.2803   16.6447 H       1  UNL1        0.0655
     57 H          26.3980    7.4464   16.2844 H       1  UNL1        0.0723
     58 H          27.1746    9.0185   16.5882 H       1  UNL1        0.0723
     59 H          26.1405    8.0374   13.8825 H       1  UNL1        0.0630
     60 H          26.4781   10.7149   14.5127 H       1  UNL1        0.0292
     61 H          26.8715   10.0239   12.9324 H       1  UNL1        0.0292
     62 H          28.7561   10.5050   15.2571 H       1  UNL1        0.0288
     63 H          29.0015   10.9567   13.5629 H       1  UNL1        0.0288
     64 H          30.0575    8.6480   14.5918 H       1  UNL1        0.0560
     65 H          29.4169    8.6675   12.9371 H       1  UNL1        0.0560
     66 H          26.1966    8.1478   18.4635 H       1  UNL1        0.0655
     67 H          25.2648    8.5537   20.6376 H       1  UNL1        0.0637
     68 H          26.0461   12.8866   33.8069 H       1  UNL1        0.1548
     69 H          24.0713   14.0344   34.9781 H       1  UNL1        0.0637
     70 H          21.8548   13.5653   35.9746 H       1  UNL1        0.0655
     71 H          19.8632    9.6865   35.0000 H       1  UNL1        0.0723
     72 H          19.3609   10.7210   33.6333 H       1  UNL1        0.0723
     73 H          18.0018   11.3279   36.2313 H       1  UNL1        0.0630
     74 H          17.4130   11.9940   33.5965 H       1  UNL1        0.0292
     75 H          16.1897   11.8271   34.8608 H       1  UNL1        0.0292
     76 H          17.0527    9.7293   32.8504 H       1  UNL1        0.0288
     77 H          15.3990   10.2063   33.2657 H       1  UNL1        0.0288
     78 H          16.5887    8.0261   34.4199 H       1  UNL1        0.0560
     79 H          15.5212    9.0674   35.3826 H       1  UNL1        0.0560
     80 H          21.5125   10.0511   33.5009 H       1  UNL1        0.0655
     81 H          23.7431   10.3518   32.7671 H       1  UNL1        0.0637
@<TRIPOS>BOND
     1     1     2    2
     2     2     3    1
     3     3     4    1
     4     4     5    1
     5     5     6    1
     6     6     7    1
     7     7     8    1
     8     8     9    1
     9     9    10    1
    10    10    11    2
    11    10    12   am
    12    12    13    1
    13    13    14   ar
    14    14    15   ar
    15    15    16   ar
    16    16    17    1
    17    17    18    1
    18    19    20    1
    19    20    21    1
    20    21    22    1
    21    22    23    1
    22    19    23    1
    23    16    24   ar
    24    24    25   ar
    25    13    25   ar
    26     2    26   am
    27    26    27    1
    28    27    28   ar
    29    28    29   ar
    30    29    30   ar
    31    30    31    1
    32    31    32    1
    33    33    34    1
    34    34    35    1
    35    35    36    1
    36    36    37    1
    37    33    37    1
    38    30    38   ar
    39    38    39   ar
    40    27    39   ar
    41    33    32    1
    42    19    18    1
    43     3    40    1
    44     3    41    1
    45     4    42    1
    46     4    43    1
    47     5    44    1
    48     5    45    1
    49     6    46    1
    50     6    47    1
    51     7    48    1
    52     7    49    1
    53     8    50    1
    54     8    51    1
    55     9    52    1
    56     9    53    1
    57    12    54    1
    58    14    55    1
    59    15    56    1
    60    18    57    1
    61    18    58    1
    62    19    59    1
    63    20    60    1
    64    20    61    1
    65    21    62    1
    66    21    63    1
    67    22    64    1
    68    22    65    1
    69    24    66    1
    70    25    67    1
    71    26    68    1
    72    28    69    1
    73    29    70    1
    74    32    71    1
    75    32    72    1
    76    33    73    1
    77    34    74    1
    78    34    75    1
    79    35    76    1
    80    35    77    1
    81    36    78    1
    82    36    79    1
    83    38    80    1
    84    39    81    1
