REMARK  3 active torsions:
REMARK  status: ('A' for Active; 'I' for Inactive)
REMARK    1  A    between atoms: C_5  and  N_6 
REMARK       I    between atoms: N_6  and  C_7 
REMARK    2  A    between atoms: C_7  and  C_9 
REMARK    3  A    between atoms: C_17  and  O_18 
ROOT
ATOM      1  N   UNL d   1      -2.292  -2.023  -0.070  0.00  0.00    -0.320 N 
ATOM      2  C   UNL d   1      -2.295  -3.416  -0.072  0.00  0.00     0.259 C 
ATOM      3  O   UNL d   1      -1.317  -4.161  -0.017  0.00  0.00    -0.267 OA
ATOM      4  H   UNL d   1      -3.189  -1.564  -0.120  0.00  0.00     0.169 HD
ENDROOT
BRANCH   1   5
ATOM      5  C   UNL d   1      -1.117  -1.204  -0.026  0.00  0.00     0.068 A 
ATOM      6  C   UNL d   1       0.163  -1.777   0.003  0.00  0.00     0.033 A 
ATOM      7  C   UNL d   1       1.332  -1.010   0.022  0.00  0.00     0.009 A 
ATOM      8  C   UNL d   1       1.260   0.376   0.005  0.00  0.00    -0.059 A 
ATOM      9  C   UNL d   1       2.500   1.216  -0.001  0.00  0.00     0.048 C 
ATOM     10  C   UNL d   1      -0.002   0.976  -0.009  0.00  0.00     0.045 A 
ATOM     11  C   UNL d   1      -1.175   0.202  -0.018  0.00  0.00     0.092 A 
BRANCH  11  12
ATOM     12  O   UNL d   1      -2.327   0.941  -0.015  0.00  0.00    -0.358 OA
ATOM     13  H   UNL d   1      -3.096   0.362   0.021  0.00  0.00     0.217 HD
ENDBRANCH  11  12
ENDBRANCH   1   5
BRANCH   2  14
ATOM     14  C   UNL d   1      -3.591  -4.120  -0.099  0.00  0.00     0.072 A 
ATOM     15  C   UNL d   1      -3.733  -5.266   0.703  0.00  0.00     0.039 A 
ATOM     16  C   UNL d   1      -4.902  -6.022   0.639  0.00  0.00     0.012 A 
ATOM     17 BR   UNL d   1      -5.086  -7.558   1.725  0.00  0.00    -0.051 Br
ATOM     18  C   UNL d   1      -5.929  -5.656  -0.229  0.00  0.00     0.022 A 
ATOM     19  C   UNL d   1      -5.777  -4.532  -1.046  0.00  0.00     0.044 A 
ATOM     20  C   UNL d   1      -4.609  -3.769  -0.978  0.00  0.00     0.132 A 
ATOM     21  F   UNL d   1      -4.478  -2.713  -1.792  0.00  0.00    -0.205 F 
ENDBRANCH   2  14
TORSDOF 3
