@<TRIPOS>MOLECULE
*****
 70 72 0 0 0
SMALL
GASTEIGER

@<TRIPOS>ATOM
      1 C           1.1345   -0.0389   -0.6259 C.3     1  UNL1        0.0790
      2 O           2.4741   -0.0996   -0.1406 O.3     1  UNL1       -0.4915
      3 C           2.9566    0.7393    0.8404 C.ar    1  UNL1        0.1615
      4 C           4.1934    1.3399    0.4955 C.ar    1  UNL1       -0.0160
      5 C           5.0167    1.9822    1.4469 C.ar    1  UNL1       -0.0548
      6 C           4.5886    2.1245    2.7658 C.ar    1  UNL1       -0.0422
      7 C           5.3878    2.9205    3.7869 C.3     1  UNL1       -0.0119
      8 C           4.7074    3.0241    5.1687 C.3     1  UNL1        0.0156
      9 N           5.4010    3.8130    6.1794 N.am    1  UNL1       -0.3150
     10 C           4.8476    3.9416    7.4499 C.2     1  UNL1        0.2135
     11 O           3.7788    3.4069    7.7473 O.2     1  UNL1       -0.2758
     12 C           5.6447    4.7844    8.4586 C.3     1  UNL1        0.0322
     13 C           4.9665    4.8838    9.8745 C.3     1  UNL1        0.0336
     14 C           5.7425    5.7486   10.9479 C.2     1  UNL1        0.2295
     15 O           6.8178    6.2898   10.6381 O.2     1  UNL1       -0.2743
     16 N           5.1794    5.8882   12.2536 N.am    1  UNL1       -0.2344
     17 N           5.8124    6.8443   13.3728 N.am    1  UNL1       -0.2341
     18 C           5.1853    7.1189   14.7002 C.2     1  UNL1        0.2335
     19 O           4.1754    6.4166   15.0076 O.2     1  UNL1       -0.2739
     20 C           5.9067    8.3206   15.7950 C.3     1  UNL1        0.0528
     21 C           5.4489    8.9026   17.5188 C.ar    1  UNL1       -0.0106
     22 C           6.4772    8.2018   18.1088 C.ar    1  UNL1        0.0175
     23 C           7.8135    8.9059   17.9566 C.3     1  UNL1       -0.0242
     24 N           5.6023    7.6980   19.0761 N.ar    1  UNL1       -0.3577
     25 C           5.5460    8.6859   20.0141 C.ar    1  UNL1        0.0499
     26 C           5.5577    8.4922   21.4163 C.ar    1  UNL1       -0.0263
     27 C           5.4125    7.0969   21.9300 C.3     1  UNL1       -0.0377
     28 C           5.7886    9.5284   22.3036 C.ar    1  UNL1       -0.0539
     29 C           6.2379   10.7274   21.7784 C.ar    1  UNL1       -0.0495
     30 C           6.7656   11.6466   22.9648 C.3     1  UNL1       -0.0397
     31 C           6.2048   10.8821   20.1944 C.ar    1  UNL1       -0.0494
     32 C           5.5954    9.7882   19.1459 C.ar    1  UNL1        0.0041
     33 C           3.3655    1.5368    3.0965 C.ar    1  UNL1       -0.0131
     34 C           2.5484    0.8522    2.1800 C.ar    1  UNL1        0.1617
     35 O           1.4693    0.3689    2.8789 O.3     1  UNL1       -0.4914
     36 C           0.4877   -0.2364    2.1007 C.3     1  UNL1        0.0790
     37 H           1.0697   -0.5896   -1.5672 H       1  UNL1        0.0660
     38 H           0.7609    0.9820   -0.7307 H       1  UNL1        0.0660
     39 H           0.4299   -0.6396   -0.0556 H       1  UNL1        0.0660
     40 H           4.5462    1.2945   -0.5350 H       1  UNL1        0.0655
     41 H           5.9973    2.3512    1.1479 H       1  UNL1        0.0621
     42 H           5.5221    3.9337    3.3873 H       1  UNL1        0.0328
     43 H           6.3843    2.4765    3.8987 H       1  UNL1        0.0328
     44 H           4.5746    2.0176    5.5864 H       1  UNL1        0.0465
     45 H           3.7089    3.4670    5.0516 H       1  UNL1        0.0465
     46 H           6.2759    4.2610    5.9409 H       1  UNL1        0.1487
     47 H           5.7653    5.7848    8.0263 H       1  UNL1        0.0363
     48 H           6.6399    4.3331    8.5476 H       1  UNL1        0.0363
     49 H           4.8372    3.8624   10.2540 H       1  UNL1        0.0363
     50 H           3.9646    5.3084    9.7319 H       1  UNL1        0.0363
     51 H           4.2994    5.4433   12.5117 H       1  UNL1        0.1728
     52 H           6.7303    7.1789   13.0677 H       1  UNL1        0.1728
     53 H           6.2585    9.1524   15.1987 H       1  UNL1        0.0408
     54 H           6.7877    7.6526   15.9932 H       1  UNL1        0.0408
     55 H           8.1672    8.7762   16.9246 H       1  UNL1        0.0292
     56 H           8.5805    8.6409   18.6625 H       1  UNL1        0.0292
     57 H           7.6666   10.0060   17.9604 H       1  UNL1        0.0292
     58 H           4.6649    7.3721   18.8584 H       1  UNL1        0.1656
     59 H           5.3526    6.4043   21.0866 H       1  UNL1        0.0278
     60 H           4.4872    7.0147   22.4980 H       1  UNL1        0.0278
     61 H           6.2843    6.8029   22.5188 H       1  UNL1        0.0278
     62 H           5.7314    9.3337   23.3821 H       1  UNL1        0.0623
     63 H           6.5930   11.1671   23.9670 H       1  UNL1        0.0278
     64 H           6.2292   12.5938   23.0844 H       1  UNL1        0.0278
     65 H           7.8533   11.8100   23.0052 H       1  UNL1        0.0278
     66 H           6.6879   11.8056   19.8572 H       1  UNL1        0.0627
     67 H           2.9967    1.5628    4.1201 H       1  UNL1        0.0658
     68 H          -0.3781   -0.5933    2.6570 H       1  UNL1        0.0660
     69 H           0.9464   -1.1266    1.6606 H       1  UNL1        0.0660
     70 H           0.0933    0.5355    1.4318 H       1  UNL1        0.0660
@<TRIPOS>BOND
     1     1     2    1
     2     2     3    1
     3     3     4   ar
     4     4     5   ar
     5     5     6   ar
     6     6     7    1
     7     7     8    1
     8     8     9    1
     9     9    10   am
    10    10    11    2
    11    10    12    1
    12    12    13    1
    13    13    14    1
    14    14    15    2
    15    14    16   am
    16    16    17    1
    17    17    18   am
    18    18    19    2
    19    18    20    1
    20    20    21    1
    21    21    22   ar
    22    22    23    1
    23    22    24   ar
    24    24    25   ar
    25    25    26   ar
    26    26    27    1
    27    26    28   ar
    28    28    29   ar
    29    29    30    1
    30    29    31   ar
    31    31    32   ar
    32    21    32   ar
    33    25    32   ar
    34     6    33   ar
    35    33    34   ar
    36     3    34   ar
    37    34    35    1
    38    35    36    1
    39     1    37    1
    40     1    38    1
    41     1    39    1
    42     4    40    1
    43     5    41    1
    44     7    42    1
    45     7    43    1
    46     8    44    1
    47     8    45    1
    48     9    46    1
    49    12    47    1
    50    12    48    1
    51    13    49    1
    52    13    50    1
    53    16    51    1
    54    17    52    1
    55    20    53    1
    56    20    54    1
    57    23    55    1
    58    23    56    1
    59    23    57    1
    60    24    58    1
    61    27    59    1
    62    27    60    1
    63    27    61    1
    64    28    62    1
    65    30    63    1
    66    30    64    1
    67    30    65    1
    68    31    66    1
    69    33    67    1
    70    36    68    1
    71    36    69    1
    72    36    70    1
