REMARK  7 active torsions:
REMARK  status: ('A' for Active; 'I' for Inactive)
REMARK    1  A    between atoms: C_2  and  C_3 
REMARK    2  A    between atoms: C_3  and  N_6 
REMARK    3  A    between atoms: C_10  and  C_11 
REMARK    4  A    between atoms: C_11  and  C_12 
REMARK    5  A    between atoms: C_11  and  N_26 
REMARK    6  A    between atoms: N_29  and  C_30 
REMARK    7  A    between atoms: C_35  and  O_36 
ROOT
ATOM      1  C   UNL d   1       4.979  -0.359  -3.917  0.00  0.00     0.299 C 
ENDROOT
BRANCH   1   2
ATOM      2  C   UNL d   1       5.527  -0.306  -2.445  0.00  0.00     0.184 A 
ATOM      3  N   UNL d   1       6.834  -0.211  -2.225  0.00  0.00    -0.111 NA
ATOM      4  N   UNL d   1       7.039  -0.253  -0.874  0.00  0.00    -0.023 NA
ATOM      5  N   UNL d   1       5.899  -0.353  -0.230  0.00  0.00    -0.043 NA
ATOM      6  N   UNL d   1       4.959  -0.420  -1.169  0.00  0.00    -0.223 N 
BRANCH   6   7
ATOM      7  C   UNL d   1       3.583  -0.443  -0.689  0.00  0.00     0.051 C 
ATOM      8  C   UNL d   1       3.066  -1.940  -0.842  0.00  0.00     0.040 C 
ATOM      9  C   UNL d   1       3.001   0.616  -1.513  0.00  0.00     0.040 C 
BRANCH   7  10
ATOM     10  C   UNL d   1       3.208   0.345   0.620  0.00  0.00     0.028 C 
ATOM     11  C   UNL d   1       1.770   0.898   0.635  0.00  0.00     0.007 C 
ENDBRANCH   7  10
ENDBRANCH   6   7
ENDBRANCH   1   2
BRANCH   1  12
ATOM     12  C   UNL d   1       5.617  -1.500  -4.692  0.00  0.00     0.049 C 
ATOM     13  C   UNL d   1       6.417  -1.343  -5.778  0.00  0.00     0.029 C 
ATOM     14  C   UNL d   1       6.991  -2.523  -6.449  0.00  0.00    -0.006 C 
ATOM     15  C   UNL d   1       7.748  -2.562  -7.640  0.00  0.00     0.053 C 
ATOM     16  C   UNL d   1       6.714  -3.756  -5.846  0.00  0.00     0.048 C 
ATOM     17  C   UNL d   1       8.207  -3.828  -8.024  0.00  0.00     0.105 C 
ATOM     18  C   UNL d   1       8.352  -4.786  -7.066  0.00  0.00     0.107 C 
ATOM     19  O   UNL d   1       8.251  -4.520  -9.235  0.00  0.00    -0.323 OA
ATOM     20  C   UNL d   1       7.409  -4.886  -6.118  0.00  0.00     0.070 C 
ATOM     21  O   UNL d   1       8.950  -5.924  -7.482  0.00  0.00    -0.323 OA
ATOM     22  C   UNL d   1       8.258  -5.918  -8.719  0.00  0.00     0.352 C 
ATOM     23  N   UNL d   1       5.788  -3.908  -4.846  0.00  0.00    -0.322 N 
ATOM     24  C   UNL d   1       5.385  -2.865  -4.158  0.00  0.00     0.254 C 
ATOM     25  H   UNL d   1       5.633  -4.832  -4.454  0.00  0.00     0.169 HD
ATOM     26  O   UNL d   1       4.756  -3.107  -3.085  0.00  0.00    -0.268 OA
ENDBRANCH   1  12
BRANCH   1  27
ATOM     27  N   UNL d   1       3.358  -0.221  -4.362  0.00  0.00    -0.052 N 
ATOM     28  C   UNL d   1       2.623  -1.495  -3.827  0.00  0.00     0.256 C 
ATOM     29  C   UNL d   1       1.119  -1.549  -3.292  0.00  0.00     0.150 C 
ATOM     30  N   UNL d   1       0.736  -0.410  -2.409  0.00  0.00    -0.375 N 
ATOM     31  C   UNL d   1       1.180   1.004  -3.365  0.00  0.00     0.150 C 
ATOM     32  C   UNL d   1       2.776   1.163  -3.983  0.00  0.00     0.256 C 
ATOM     33  H   UNL d   1       3.329  -0.271  -5.386  0.00  0.00     0.281 HD
BRANCH  30  34
ATOM     34  C   UNL d   1      -0.138  -0.656  -1.092  0.00  0.00     0.064 C 
ATOM     35  C   UNL d   1       0.282  -1.525   0.146  0.00  0.00     0.032 C 
ATOM     36  C   UNL d   1      -0.041  -1.313   1.560  0.00  0.00     0.002 C 
ATOM     37  C   UNL d   1      -0.967  -0.363   1.882  0.00  0.00     0.003 C 
ATOM     38  C   UNL d   1      -1.509   0.367   0.804  0.00  0.00     0.039 C 
ATOM     39  C   UNL d   1      -1.148   0.236  -0.632  0.00  0.00     0.094 C 
BRANCH  39  40
ATOM     40  O   UNL d   1      -1.928   1.067  -1.400  0.00  0.00    -0.354 OA
ATOM     41  C   UNL d   1      -1.620   1.039  -2.768  0.00  0.00     0.210 C 
ENDBRANCH  39  40
ENDBRANCH  30  34
ENDBRANCH   1  27
TORSDOF 7
