@<TRIPOS>MOLECULE
*****
 37 38 0 0 0
SMALL
GASTEIGER

@<TRIPOS>ATOM
      1 O           1.0585    0.1097    0.0090 O.2     1  UNL1       -0.2685
      2 C           2.2888    0.1036    0.0000 C.2     1  UNL1        0.2637
      3 N           3.0249    0.9259   -0.8501 N.am    1  UNL1       -0.2303
      4 N           2.3430    1.7633   -1.7663 N.am    1  UNL1       -0.2339
      5 C           3.0684    2.5376   -2.6528 C.2     1  UNL1        0.2322
      6 O           4.3034    2.5253   -2.6494 O.2     1  UNL1       -0.2740
      7 C           2.2891    3.4553   -3.6236 C.3     1  UNL1        0.0370
      8 C           0.7743    3.2186   -3.6808 C.3     1  UNL1       -0.0419
      9 C           0.0537    4.2014   -4.6052 C.3     1  UNL1       -0.0524
     10 C           0.3548    5.6472   -4.2290 C.3     1  UNL1       -0.0530
     11 C           1.8571    5.8996   -4.2352 C.3     1  UNL1       -0.0524
     12 C           2.5927    4.9308   -3.3056 C.3     1  UNL1       -0.0419
     13 C           3.0837   -0.7714    0.9256 C.ar    1  UNL1        0.0808
     14 C           4.2275   -0.2415    1.5428 C.ar    1  UNL1       -0.0277
     15 C           5.0168   -1.0429    2.3719 C.ar    1  UNL1        0.0419
     16 CL          6.4402   -0.3889    3.0846 Cl      1  UNL1       -0.0835
     17 C           4.6741   -2.3697    2.6201 C.ar    1  UNL1       -0.0399
     18 C           3.5157   -2.8979    2.0507 C.ar    1  UNL1       -0.0180
     19 C           2.7221   -2.1017    1.2108 C.ar    1  UNL1        0.1291
     20 O           1.6113   -2.6626    0.6463 O.3     1  UNL1       -0.5060
     21 H           4.0407    0.9146   -0.9247 H       1  UNL1        0.1731
     22 H           1.3278    1.7022   -1.7402 H       1  UNL1        0.1728
     23 H           2.6890    3.2364   -4.6255 H       1  UNL1        0.0395
     24 H           0.3457    3.3219   -2.6772 H       1  UNL1        0.0272
     25 H           0.5719    2.1950   -4.0166 H       1  UNL1        0.0272
     26 H          -1.0270    4.0273   -4.5530 H       1  UNL1        0.0265
     27 H           0.3574    4.0251   -5.6443 H       1  UNL1        0.0265
     28 H          -0.0523    5.8649   -3.2336 H       1  UNL1        0.0265
     29 H          -0.1419    6.3266   -4.9316 H       1  UNL1        0.0265
     30 H           2.0574    6.9331   -3.9295 H       1  UNL1        0.0265
     31 H           2.2381    5.7915   -5.2586 H       1  UNL1        0.0265
     32 H           2.3088    5.1441   -2.2676 H       1  UNL1        0.0272
     33 H           3.6702    5.1212   -3.3796 H       1  UNL1        0.0272
     34 H           4.5011    0.7994    1.3954 H       1  UNL1        0.0641
     35 H           5.3022   -2.9931    3.2535 H       1  UNL1        0.0633
     36 H           3.2582   -3.9337    2.2609 H       1  UNL1        0.0655
     37 H           1.4887   -3.5687    0.9760 H       1  UNL1        0.2922
@<TRIPOS>BOND
     1     1     2    2
     2     2     3   am
     3     3     4    1
     4     4     5   am
     5     5     6    2
     6     5     7    1
     7     7     8    1
     8     8     9    1
     9     9    10    1
    10    10    11    1
    11    11    12    1
    12     7    12    1
    13     2    13    1
    14    13    14   ar
    15    14    15   ar
    16    15    16    1
    17    15    17   ar
    18    17    18   ar
    19    18    19   ar
    20    13    19   ar
    21    19    20    1
    22     3    21    1
    23     4    22    1
    24     7    23    1
    25     8    24    1
    26     8    25    1
    27     9    26    1
    28     9    27    1
    29    10    28    1
    30    10    29    1
    31    11    30    1
    32    11    31    1
    33    12    32    1
    34    12    33    1
    35    14    34    1
    36    17    35    1
    37    18    36    1
    38    20    37    1
