REMARK  9 active torsions:
REMARK  status: ('A' for Active; 'I' for Inactive)
REMARK    1  A    between atoms: N_2  and  C_3 
REMARK    2  A    between atoms: C_3  and  N_5 
REMARK    3  A    between atoms: N_5  and  N_6 
REMARK       I    between atoms: N_6  and  C_7 
REMARK    4  A    between atoms: C_7  and  C_9 
REMARK    5  A    between atoms: C_9  and  S_10 
REMARK    6  A    between atoms: S_10  and  C_11 
REMARK    7  A    between atoms: C_12  and  N_13 
REMARK    8  A    between atoms: N_19  and  C_20 
REMARK    9  A    between atoms: C_20  and  C_21 
ROOT
ATOM      1  C   UNL d   1      10.065   3.575   3.787  0.00  0.00     0.127 A 
ATOM      2  C   UNL d   1      10.116   4.947   3.980  0.00  0.00     0.231 A 
ATOM      3  N   UNL d   1      10.972   5.280   5.023  0.00  0.00    -0.210 NA
ATOM      4  C   UNL d   1      11.480   4.142   5.456  0.00  0.00     0.106 A 
ATOM      5  C   UNL d   1      12.450   3.970   6.594  0.00  0.00     0.091 C 
ATOM      6  N   UNL d   1      10.995   3.066   4.702  0.00  0.00    -0.322 N 
ENDROOT
BRANCH   1   7
ATOM      7  S   UNL d   1       9.292   2.688   2.485  0.00  0.00    -0.099 SA
BRANCH   7   8
ATOM      8  C   UNL d   1       7.513   2.553   2.782  0.00  0.00     0.185 C 
BRANCH   8   9
ATOM      9  C   UNL d   1       6.826   1.580   1.775  0.00  0.00     0.245 C 
ATOM     10  N   UNL d   1       5.436   1.589   1.829  0.00  0.00    -0.267 N 
ATOM     11  H   UNL d   1       4.908   2.203   2.447  0.00  0.00     0.190 HD
ATOM     12  O   UNL d   1       7.418   0.830   0.988  0.00  0.00    -0.271 OA
BRANCH  10  13
ATOM     13  N   UNL d   1       4.641   0.774   0.949  0.00  0.00    -0.274 N 
ATOM     14  H   UNL d   1       5.161   0.193   0.292  0.00  0.00     0.189 HD
BRANCH  13  15
ATOM     15  C   UNL d   1       3.249   0.839   1.007  0.00  0.00     0.186 C 
ATOM     16  S   UNL d   1       2.448   1.843   2.095  0.00  0.00    -0.040 SA
BRANCH  15  17
ATOM     17  N   UNL d   1       2.591   0.009   0.111  0.00  0.00    -0.370 N 
ATOM     18  C   UNL d   1       1.134  -0.090  -0.001  0.00  0.00     0.148 C 
ATOM     19  H   UNL d   1       3.127  -0.568  -0.524  0.00  0.00     0.161 HD
ENDBRANCH  15  17
ENDBRANCH  13  15
ENDBRANCH  10  13
ENDBRANCH   8   9
ENDBRANCH   7   8
ENDBRANCH   1   7
BRANCH   2  20
ATOM     20  N   UNL d   1       9.435   5.980   3.211  0.00  0.00    -0.093 N 
ATOM     21  O   UNL d   1       9.543   7.150   3.594  0.00  0.00    -0.530 OA
ATOM     22  O   UNL d   1       8.761   5.625   2.230  0.00  0.00    -0.530 OA
ENDBRANCH   2  20
BRANCH   6  23
ATOM     23  C   UNL d   1      11.518   1.713   4.970  0.00  0.00     0.169 C 
BRANCH  23  24
ATOM     24  C   UNL d   1      11.128   0.658   3.989  0.00  0.00    -0.040 C 
ATOM     25  C   UNL d   1      10.206  -0.343   4.318  0.00  0.00     0.009 C 
ATOM     26  C   UNL d   1       9.719  -1.180   3.317  0.00  0.00     0.001 C 
ATOM     27  C   UNL d   1      10.075  -0.957   1.986  0.00  0.00     0.000 C 
ATOM     28  C   UNL d   1      11.016   0.016   1.661  0.00  0.00     0.001 C 
ATOM     29  C   UNL d   1      11.598   0.774   2.670  0.00  0.00     0.009 C 
ENDBRANCH  23  24
ENDBRANCH   6  23
TORSDOF 9
