@<TRIPOS>MOLECULE
*****
 52 56 0 0 0
SMALL
GASTEIGER

@<TRIPOS>ATOM
      1 C          11.1425    3.8322   -4.8290 C.3     1  UNL1        0.0820
      2 O          10.4393    3.0035   -3.8890 O.3     1  UNL1       -0.4633
      3 C          11.2395    2.3269   -3.0035 C.2     1  UNL1        0.3608
      4 O          12.4696    2.3908   -3.0232 O.2     1  UNL1       -0.2431
      5 C          10.4890    1.5176   -2.0436 C.ar    1  UNL1        0.1889
      6 C           9.3610    0.7503   -2.2671 C.ar    1  UNL1        0.0603
      7 N           9.1082    0.1226   -1.0677 N.ar    1  UNL1       -0.2430
      8 C           8.0239   -0.8135   -0.7987 C.3     1  UNL1        0.1061
      9 C           8.1746   -2.0479   -1.6757 C.3     1  UNL1        0.0731
     10 O           8.8650   -3.0282   -0.8965 O.3     1  UNL1       -0.3698
     11 C           8.4938   -2.8522    0.4781 C.3     1  UNL1        0.1073
     12 C           7.9017   -1.4464    0.5929 C.3     1  UNL1        0.1110
     13 O           6.5050   -1.6331    0.9425 O.3     1  UNL1       -0.3698
     14 C           6.4057   -2.9018    1.6165 C.3     1  UNL1        0.0691
     15 C           7.3725   -3.8323    0.8948 C.3     1  UNL1        0.0765
     16 N           7.8406   -4.9945    1.6816 N.am    1  UNL1       -0.2915
     17 C           8.6477   -5.9400    1.0754 C.2     1  UNL1        0.3042
     18 O           8.9557   -5.8310   -0.1066 O.2     1  UNL1       -0.2525
     19 N           9.0608   -6.9843    1.8936 N.am    1  UNL1       -0.2689
     20 C           9.9515   -8.0019    1.4017 C.ar    1  UNL1        0.0425
     21 C          11.0498   -7.5919    0.6305 C.ar    1  UNL1       -0.0398
     22 C          11.9467   -8.5088    0.0908 C.ar    1  UNL1       -0.0594
     23 C          11.7651   -9.8675    0.3103 C.ar    1  UNL1       -0.0539
     24 C          10.7096  -10.3240    1.1082 C.ar    1  UNL1       -0.0161
     25 C          10.5752  -11.7067    1.3271 C.ar    1  UNL1       -0.0540
     26 C           9.5334  -12.2077    2.0999 C.ar    1  UNL1       -0.0612
     27 C           8.6106  -11.3287    2.6533 C.ar    1  UNL1       -0.0611
     28 C           8.7283   -9.9467    2.4414 C.ar    1  UNL1       -0.0523
     29 C           9.7839   -9.3953    1.6790 C.ar    1  UNL1        0.0034
     30 N           9.9794    0.5353   -0.1326 N.ar    1  UNL1       -0.0645
     31 N          10.8492    1.3558   -0.7218 N.ar    1  UNL1       -0.1228
     32 H          10.4060    4.3799   -5.4271 H       1  UNL1        0.0661
     33 H          11.7396    3.2164   -5.5091 H       1  UNL1        0.0661
     34 H          11.7760    4.5693   -4.3223 H       1  UNL1        0.0661
     35 H           8.7847    0.5552   -3.1585 H       1  UNL1        0.0851
     36 H           7.1142   -0.2585   -1.0583 H       1  UNL1        0.0595
     37 H           8.7351   -1.8857   -2.6005 H       1  UNL1        0.0582
     38 H           7.1947   -2.4587   -1.9422 H       1  UNL1        0.0582
     39 H           9.3876   -2.9725    1.0973 H       1  UNL1        0.0642
     40 H           8.3519   -0.8668    1.4043 H       1  UNL1        0.0645
     41 H           5.3676   -3.2506    1.5780 H       1  UNL1        0.0579
     42 H           6.6774   -2.7520    2.6668 H       1  UNL1        0.0579
     43 H           6.8779   -4.2303   -0.0035 H       1  UNL1        0.0548
     44 H           7.5222   -5.1282    2.6296 H       1  UNL1        0.1507
     45 H           8.5478   -7.1812    2.7373 H       1  UNL1        0.1564
     46 H          11.2292   -6.5341    0.4525 H       1  UNL1        0.0636
     47 H          12.7841   -8.1560   -0.5046 H       1  UNL1        0.0618
     48 H          12.4608  -10.5664   -0.1512 H       1  UNL1        0.0624
     49 H          11.2870  -12.4098    0.8949 H       1  UNL1        0.0624
     50 H           9.4417  -13.2794    2.2617 H       1  UNL1        0.0618
     51 H           7.7898  -11.7195    3.2491 H       1  UNL1        0.0618
     52 H           7.9661   -9.3043    2.8692 H       1  UNL1        0.0624
@<TRIPOS>BOND
     1     1     2    1
     2     2     3    1
     3     3     4    2
     4     3     5    1
     5     5     6   ar
     6     6     7   ar
     7     8     9    1
     8     9    10    1
     9    10    11    1
    10    11    12    1
    11     8    12    1
    12    12    13    1
    13    13    14    1
    14    14    15    1
    15    11    15    1
    16    15    16    1
    17    16    17   am
    18    17    18    2
    19    17    19   am
    20    19    20    1
    21    20    21   ar
    22    21    22   ar
    23    22    23   ar
    24    23    24   ar
    25    24    25   ar
    26    25    26   ar
    27    26    27   ar
    28    27    28   ar
    29    28    29   ar
    30    20    29   ar
    31    24    29   ar
    32     7    30   ar
    33    30    31   ar
    34     5    31   ar
    35     8     7    1
    36     1    32    1
    37     1    33    1
    38     1    34    1
    39     6    35    1
    40     8    36    1
    41     9    37    1
    42     9    38    1
    43    11    39    1
    44    12    40    1
    45    14    41    1
    46    14    42    1
    47    15    43    1
    48    16    44    1
    49    19    45    1
    50    21    46    1
    51    22    47    1
    52    23    48    1
    53    25    49    1
    54    26    50    1
    55    27    51    1
    56    28    52    1
