@<TRIPOS>MOLECULE
*****
 72 74 0 0 0
SMALL
GASTEIGER

@<TRIPOS>ATOM
      1 C           0.9514   -0.1928    0.2596 C.3     1  UNL1       -0.0245
      2 C           2.4494    0.0054    0.1372 C.3     1  UNL1       -0.0348
      3 N           2.8968    0.4882   -1.2407 N.4     1  UNL1        0.2359
      4 C           2.4048    1.8763   -1.6268 C.3     1  UNL1       -0.0348
      5 C           0.9090    1.9843   -1.8121 C.3     1  UNL1       -0.0245
      6 C           4.4400    0.4417   -1.2881 C.3     1  UNL1       -0.0160
      7 C           5.0134    0.8126   -2.6633 C.3     1  UNL1        0.0520
      8 N           6.4571    0.8276   -2.7159 N.am    1  UNL1       -0.3063
      9 C           7.0790    1.2878   -3.8765 C.2     1  UNL1        0.2442
     10 O           6.4634    1.6358   -4.8635 O.2     1  UNL1       -0.2702
     11 C           8.5620    1.2830   -3.8634 C.ar    1  UNL1        0.0368
     12 C           9.3588    2.2325   -4.5203 C.ar    1  UNL1       -0.0479
     13 C          10.7806    2.0743   -4.6075 C.ar    1  UNL1       -0.0398
     14 C          11.4194    0.9803   -3.9997 C.ar    1  UNL1        0.0326
     15 N          12.8759    0.8145   -3.9432 N.am    1  UNL1       -0.2966
     16 C          13.5947   -0.1942   -3.2198 C.2     1  UNL1        0.1411
     17 S          12.8981   -1.4075   -2.2657 S.2     1  UNL1       -0.0182
     18 N          15.0057   -0.1379   -3.3104 N.am    1  UNL1       -0.2636
     19 C          15.8506   -1.1211   -2.7331 C.2     1  UNL1        0.2495
     20 O          15.5032   -2.1289   -2.1188 O.2     1  UNL1       -0.2698
     21 C          17.3099   -1.0318   -2.7875 C.ar    1  UNL1        0.0373
     22 C          18.0216   -2.2461   -2.8956 C.ar    1  UNL1       -0.0462
     23 C          19.3921   -2.2880   -2.6584 C.ar    1  UNL1       -0.0192
     24 C          20.0735   -1.1097   -2.3758 C.ar    1  UNL1        0.1206
     25 O          21.4352   -1.2466   -2.2557 O.3     1  UNL1       -0.4916
     26 C          22.1394   -0.0122   -2.1632 C.3     1  UNL1        0.0935
     27 C          23.6578   -0.2080   -2.2368 C.3     1  UNL1        0.0066
     28 C          24.3990    1.0966   -2.0166 C.ar    1  UNL1       -0.0442
     29 C          25.6542    1.1048   -1.3955 C.ar    1  UNL1       -0.0585
     30 C          26.2567    2.3175   -1.0452 C.ar    1  UNL1       -0.0615
     31 C          25.6608    3.5291   -1.3939 C.ar    1  UNL1       -0.0617
     32 C          24.4497    3.5337   -2.0716 C.ar    1  UNL1       -0.0615
     33 C          23.8334    2.3280   -2.3889 C.ar    1  UNL1       -0.0585
     34 C          19.3525    0.0901   -2.2382 C.ar    1  UNL1       -0.0192
     35 C          17.9686    0.1322   -2.4288 C.ar    1  UNL1       -0.0462
     36 C          10.5421    0.0510   -3.4371 C.ar    1  UNL1       -0.0398
     37 C           9.1710    0.1877   -3.3127 C.ar    1  UNL1       -0.0479
     38 H           0.7032   -0.7243    1.1814 H       1  UNL1        0.0281
     39 H           0.5375   -0.7393   -0.5930 H       1  UNL1        0.0281
     40 H           0.4271    0.7508    0.3803 H       1  UNL1        0.0281
     41 H           2.9396   -0.9603    0.3040 H       1  UNL1        0.0812
     42 H           2.8186    0.7301    0.8691 H       1  UNL1        0.0812
     43 H           2.5580   -0.1893   -1.9404 H       1  UNL1        0.2034
     44 H           2.8315    2.1075   -2.6027 H       1  UNL1        0.0812
     45 H           2.7890    2.5767   -0.8804 H       1  UNL1        0.0812
     46 H           0.5115    1.1517   -2.3999 H       1  UNL1        0.0281
     47 H           0.6630    2.9230   -2.3148 H       1  UNL1        0.0281
     48 H           0.3820    2.0652   -0.8673 H       1  UNL1        0.0281
     49 H           4.7441   -0.5768   -1.0173 H       1  UNL1        0.0830
     50 H           4.8027    1.1306   -0.5161 H       1  UNL1        0.0830
     51 H           4.7136    1.8212   -2.9543 H       1  UNL1        0.0515
     52 H           4.6430    0.1206   -3.4283 H       1  UNL1        0.0515
     53 H           7.0206    0.6377   -1.8944 H       1  UNL1        0.1492
     54 H           8.8737    3.0980   -4.9694 H       1  UNL1        0.0626
     55 H          11.3316    2.8117   -5.1889 H       1  UNL1        0.0636
     56 H          13.3977    1.5581   -4.3997 H       1  UNL1        0.1538
     57 H          15.4513    0.6200   -3.8072 H       1  UNL1        0.1568
     58 H          17.4928   -3.1777   -3.1044 H       1  UNL1        0.0626
     59 H          19.9196   -3.2392   -2.6731 H       1  UNL1        0.0654
     60 H          21.8910    0.4647   -1.2060 H       1  UNL1        0.0700
     61 H          21.8258    0.6304   -2.9947 H       1  UNL1        0.0700
     62 H          23.9432   -0.6455   -3.2005 H       1  UNL1        0.0346
     63 H          23.9455   -0.9340   -1.4651 H       1  UNL1        0.0346
     64 H          26.1638    0.1733   -1.1562 H       1  UNL1        0.0620
     65 H          27.1858    2.3205   -0.4809 H       1  UNL1        0.0618
     66 H          26.1427    4.4700   -1.1456 H       1  UNL1        0.0618
     67 H          23.9664    4.4688   -2.3393 H       1  UNL1        0.0618
     68 H          22.8868    2.3818   -2.9165 H       1  UNL1        0.0620
     69 H          19.8386    1.0136   -1.9426 H       1  UNL1        0.0654
     70 H          17.4210    1.0445   -2.2205 H       1  UNL1        0.0626
     71 H          10.8357   -0.9150   -3.0906 H       1  UNL1        0.0636
     72 H           8.6324   -0.6287   -2.8414 H       1  UNL1        0.0626
@<TRIPOS>UNITY_ATOM_ATTR
3 1
charge 1
@<TRIPOS>BOND
     1     1     2    1
     2     2     3    1
     3     3     4    1
     4     4     5    1
     5     3     6    1
     6     6     7    1
     7     7     8    1
     8     8     9   am
     9     9    10    2
    10     9    11    1
    11    11    12   ar
    12    12    13   ar
    13    13    14   ar
    14    14    15    1
    15    15    16    1
    16    16    17    2
    17    16    18    1
    18    18    19   am
    19    19    20    2
    20    19    21    1
    21    21    22   ar
    22    22    23   ar
    23    23    24   ar
    24    24    25    1
    25    25    26    1
    26    26    27    1
    27    27    28    1
    28    28    29   ar
    29    29    30   ar
    30    30    31   ar
    31    31    32   ar
    32    32    33   ar
    33    28    33   ar
    34    24    34   ar
    35    34    35   ar
    36    21    35   ar
    37    14    36   ar
    38    36    37   ar
    39    11    37   ar
    40     1    38    1
    41     1    39    1
    42     1    40    1
    43     2    41    1
    44     2    42    1
    45     3    43    1
    46     4    44    1
    47     4    45    1
    48     5    46    1
    49     5    47    1
    50     5    48    1
    51     6    49    1
    52     6    50    1
    53     7    51    1
    54     7    52    1
    55     8    53    1
    56    12    54    1
    57    13    55    1
    58    15    56    1
    59    18    57    1
    60    22    58    1
    61    23    59    1
    62    26    60    1
    63    26    61    1
    64    27    62    1
    65    27    63    1
    66    29    64    1
    67    30    65    1
    68    31    66    1
    69    32    67    1
    70    33    68    1
    71    34    69    1
    72    35    70    1
    73    36    71    1
    74    37    72    1
