@<TRIPOS>MOLECULE
*****
 42 43 0 0 0
SMALL
GASTEIGER

@<TRIPOS>ATOM
      1 N           1.1190   -0.0920   -0.0324 N.3     1  UNL1       -0.2543
      2 N           2.5310    0.0026   -0.0508 N.am    1  UNL1       -0.2508
      3 C           3.1459    1.0268    0.6820 C.2     1  UNL1        0.2639
      4 O           2.5039    1.9163    1.2404 O.2     1  UNL1       -0.2708
      5 C           4.6855    0.9756    0.6820 C.3     1  UNL1        0.1664
      6 O           5.1977    2.0123    1.5205 O.3     1  UNL1       -0.4827
      7 C           6.5436    2.2379    1.5194 C.ar    1  UNL1        0.1212
      8 C           7.0853    2.6855    2.7257 C.ar    1  UNL1       -0.0192
      9 C           8.4323    3.0532    2.8038 C.ar    1  UNL1       -0.0462
     10 C           9.2770    2.9144    1.6913 C.ar    1  UNL1        0.0369
     11 C          10.7328    3.1650    1.8894 C.2     1  UNL1        0.2443
     12 O          11.1190    3.4610    3.0217 O.2     1  UNL1       -0.2702
     13 N          11.5962    3.0165    0.8164 N.am    1  UNL1       -0.3085
     14 C          13.0440    3.1935    0.9458 C.3     1  UNL1        0.0234
     15 C          13.3893    4.5897    1.4837 C.3     1  UNL1       -0.0345
     16 C          14.8756    4.7777    1.7454 C.3     1  UNL1       -0.0514
     17 C          15.4270    3.6684    2.6340 C.3     1  UNL1       -0.0529
     18 C          15.1688    2.2986    2.0168 C.3     1  UNL1       -0.0514
     19 C          13.6788    2.0694    1.7780 C.3     1  UNL1       -0.0345
     20 C           8.7234    2.4967    0.4785 C.ar    1  UNL1       -0.0462
     21 C           7.3625    2.1647    0.3947 C.ar    1  UNL1       -0.0192
     22 H           0.7816   -0.8373   -0.6406 H       1  UNL1        0.1405
     23 H           0.7353    0.7893   -0.3921 H       1  UNL1        0.1405
     24 H           3.0756   -0.7546   -0.4564 H       1  UNL1        0.1688
     25 H           5.0099    1.0850   -0.3578 H       1  UNL1        0.0795
     26 H           5.0122    0.0087    1.0806 H       1  UNL1        0.0795
     27 H           6.4636    2.7439    3.6171 H       1  UNL1        0.0654
     28 H           8.8218    3.4457    3.7436 H       1  UNL1        0.0626
     29 H          11.2601    2.6914   -0.0769 H       1  UNL1        0.1493
     30 H          13.4455    3.1179   -0.0753 H       1  UNL1        0.0498
     31 H          12.8763    4.7782    2.4304 H       1  UNL1        0.0283
     32 H          13.0258    5.3540    0.7869 H       1  UNL1        0.0283
     33 H          15.0312    5.7479    2.2307 H       1  UNL1        0.0266
     34 H          15.4181    4.7970    0.7940 H       1  UNL1        0.0266
     35 H          14.9590    3.7186    3.6258 H       1  UNL1        0.0265
     36 H          16.5024    3.8149    2.7796 H       1  UNL1        0.0265
     37 H          15.5584    1.5163    2.6777 H       1  UNL1        0.0266
     38 H          15.7119    2.2185    1.0674 H       1  UNL1        0.0266
     39 H          13.1781    1.9881    2.7492 H       1  UNL1        0.0283
     40 H          13.5323    1.1041    1.2770 H       1  UNL1        0.0283
     41 H           9.3172    2.4293   -0.4243 H       1  UNL1        0.0626
     42 H           6.9691    1.8799   -0.5734 H       1  UNL1        0.0654
@<TRIPOS>BOND
     1     1     2    1
     2     2     3   am
     3     3     4    2
     4     3     5    1
     5     5     6    1
     6     6     7    1
     7     7     8   ar
     8     8     9   ar
     9     9    10   ar
    10    10    11    1
    11    11    12    2
    12    11    13   am
    13    13    14    1
    14    14    15    1
    15    15    16    1
    16    16    17    1
    17    17    18    1
    18    18    19    1
    19    14    19    1
    20    10    20   ar
    21    20    21   ar
    22     7    21   ar
    23     1    22    1
    24     1    23    1
    25     2    24    1
    26     5    25    1
    27     5    26    1
    28     8    27    1
    29     9    28    1
    30    13    29    1
    31    14    30    1
    32    15    31    1
    33    15    32    1
    34    16    33    1
    35    16    34    1
    36    17    35    1
    37    17    36    1
    38    18    37    1
    39    18    38    1
    40    19    39    1
    41    19    40    1
    42    20    41    1
    43    21    42    1
