REMARK  10 active torsions:
REMARK  status: ('A' for Active; 'I' for Inactive)
REMARK       I    between atoms: C_2  and  N_3 
REMARK       I    between atoms: C_2  and  N_14 
REMARK    1  A    between atoms: N_3  and  C_4 
REMARK    2  A    between atoms: C_4  and  C_5 
REMARK    3  A    between atoms: C_5  and  C_6 
REMARK    4  A    between atoms: C_6  and  O_7 
REMARK    5  A    between atoms: O_7  and  C_8 
REMARK    6  A    between atoms: C_9  and  C_8 
REMARK    7  A    between atoms: N_14  and  N_15 
REMARK    8  A    between atoms: N_15  and  C_16 
REMARK    9  A    between atoms: C_19  and  O_20 
REMARK   10  A    between atoms: O_20  and  C_21 
ROOT
ATOM      1  O   UNL d   1       5.525  11.948   9.722  0.00  0.00    -0.246 OA
ATOM      2  C   UNL d   1       5.549  12.808   8.836  0.00  0.00     0.330 C 
ATOM      3  N   UNL d   1       5.271  12.521   7.525  0.00  0.00    -0.342 N 
ATOM      4  N   UNL d   1       5.920  14.107   9.135  0.00  0.00    -0.269 N 
ATOM      5  H   UNL d   1       5.278  13.260   6.847  0.00  0.00     0.164 HD
ATOM      6  H   UNL d   1       5.927  14.289  10.136  0.00  0.00     0.185 HD
ENDROOT
BRANCH   4   7
ATOM      7  N   UNL d   1       5.521  15.200   8.342  0.00  0.00    -0.202 NA
ATOM      8  H   UNL d   1       5.667  15.063   7.343  0.00  0.00     0.153 HD
BRANCH   7   9
ATOM      9  C   UNL d   1       6.002  16.486   8.720  0.00  0.00     0.028 A 
ATOM     10  C   UNL d   1       5.338  17.592   8.169  0.00  0.00     0.028 A 
ATOM     11  C   UNL d   1       5.728  18.910   8.455  0.00  0.00     0.039 A 
ATOM     12  C   UNL d   1       6.769  19.164   9.347  0.00  0.00     0.078 A 
ATOM     13  C   UNL d   1       7.460  18.076   9.880  0.00  0.00     0.039 A 
ATOM     14  C   UNL d   1       7.084  16.750   9.567  0.00  0.00     0.028 A 
BRANCH  12  15
ATOM     15  O   UNL d   1       6.995  20.485   9.621  0.00  0.00    -0.255 OA
BRANCH  15  16
ATOM     16  C   UNL d   1       7.966  20.792  10.613  0.00  0.00     0.530 C 
ATOM     17  F   UNL d   1       7.680  20.193  11.789  0.00  0.00    -0.144 F 
ATOM     18  F   UNL d   1       9.198  20.419  10.206  0.00  0.00    -0.144 F 
ATOM     19  F   UNL d   1       7.982  22.128  10.821  0.00  0.00    -0.144 F 
ENDBRANCH  15  16
ENDBRANCH  12  15
ENDBRANCH   7   9
ENDBRANCH   4   7
BRANCH   3  20
ATOM     20  C   UNL d   1       4.989  11.161   7.093  0.00  0.00     0.126 C 
BRANCH  20  21
ATOM     21  C   UNL d   1       4.752  11.037   5.593  0.00  0.00     0.046 C 
BRANCH  21  22
ATOM     22  C   UNL d   1       4.496   9.578   5.215  0.00  0.00     0.169 C 
BRANCH  22  23
ATOM     23  O   UNL d   1       4.374   9.501   3.807  0.00  0.00    -0.389 OA
BRANCH  23  24
ATOM     24  C   UNL d   1       4.017   8.196   3.331  0.00  0.00     0.199 C 
BRANCH  24  25
ATOM     25  C   UNL d   1       3.681   8.266   1.827  0.00  0.00     0.145 C 
ATOM     26  C   UNL d   1       3.290   9.678   1.403  0.00  0.00     0.036 C 
ATOM     27  C   UNL d   1       4.606  10.244   0.917  0.00  0.00     0.029 C 
ATOM     28  C   UNL d   1       5.247   9.043   0.266  0.00  0.00     0.168 C 
ATOM     29  O   UNL d   1       4.829   7.901   1.026  0.00  0.00    -0.384 OA
ENDBRANCH  24  25
ENDBRANCH  23  24
ENDBRANCH  22  23
ENDBRANCH  21  22
ENDBRANCH  20  21
ENDBRANCH   3  20
TORSDOF 10
