@<TRIPOS>MOLECULE
*****
 68 70 0 0 0
SMALL
GASTEIGER

@<TRIPOS>ATOM
      1 C           0.9196    0.0023   -0.0537 C.3     1  UNL1       -0.0416
      2 C           2.4350    0.0060   -0.0402 C.3     1  UNL1        0.0450
      3 O           2.9214   -0.3630   -1.3311 O.3     1  UNL1       -0.3767
      4 C           4.3515   -0.3834   -1.3492 C.3     1  UNL1        0.0817
      5 C           4.8552   -0.7879   -2.7346 C.3     1  UNL1        0.1128
      6 O           6.2849   -0.8609   -2.7037 O.3     1  UNL1       -0.4897
      7 C           6.8972   -1.1191   -3.9002 C.ar    1  UNL1        0.1207
      8 C           8.0268   -1.9277   -3.8524 C.ar    1  UNL1       -0.0192
      9 C           8.7751   -2.1536   -5.0184 C.ar    1  UNL1       -0.0462
     10 C           8.3793   -1.6341   -6.2764 C.ar    1  UNL1        0.0373
     11 C           9.1725   -2.0587   -7.4890 C.2     1  UNL1        0.2495
     12 O          10.1241   -2.8006   -7.2406 O.2     1  UNL1       -0.2698
     13 N           8.8193   -1.6569   -8.8057 N.am    1  UNL1       -0.2627
     14 C           9.4668   -2.0444  -10.0074 C.2     1  UNL1        0.1533
     15 S          10.8025   -3.0748  -10.1053 S.2     1  UNL1       -0.0170
     16 N           8.9273   -1.5035  -11.1922 N.am    1  UNL1       -0.2453
     17 N           9.5351   -1.8619  -12.4654 N.am    1  UNL1       -0.2311
     18 C           9.1297   -1.3045  -13.6696 C.2     1  UNL1        0.2601
     19 O           8.2008   -0.4966  -13.7558 O.2     1  UNL1       -0.2687
     20 C           9.8644   -1.7394  -14.9129 C.ar    1  UNL1        0.0383
     21 C          10.1535   -0.8423  -15.9587 C.ar    1  UNL1       -0.0478
     22 C          10.7426   -1.2829  -17.1781 C.ar    1  UNL1       -0.0398
     23 C          11.1029   -2.6259  -17.3520 C.ar    1  UNL1        0.0334
     24 N          11.8113   -3.0598  -18.5238 N.am    1  UNL1       -0.2853
     25 C          12.2895   -4.3559  -18.7107 C.2     1  UNL1        0.2203
     26 O          12.0917   -5.2820  -17.9233 O.2     1  UNL1       -0.2752
     27 C          13.0893   -4.6599  -19.9872 C.3     1  UNL1        0.0359
     28 C          14.3742   -3.8343  -20.1036 C.3     1  UNL1       -0.0419
     29 C          15.2385   -4.2851  -21.2868 C.3     1  UNL1       -0.0524
     30 C          15.5730   -5.7727  -21.2239 C.3     1  UNL1       -0.0530
     31 C          14.3032   -6.6062  -21.1420 C.3     1  UNL1       -0.0524
     32 C          13.4474   -6.1709  -19.9646 C.3     1  UNL1       -0.0419
     33 C          10.7656   -3.5025  -16.3124 C.ar    1  UNL1       -0.0398
     34 C          10.1698   -3.0801  -15.1134 C.ar    1  UNL1       -0.0478
     35 C           7.2613   -0.8022   -6.3024 C.ar    1  UNL1       -0.0462
     36 C           6.5333   -0.5435   -5.1200 C.ar    1  UNL1       -0.0192
     37 H           0.5260    0.2837    0.9277 H       1  UNL1        0.0252
     38 H           0.5363   -0.9892   -0.3156 H       1  UNL1        0.0252
     39 H           0.5361    0.7037   -0.8015 H       1  UNL1        0.0252
     40 H           2.7976   -0.7089    0.7064 H       1  UNL1        0.0557
     41 H           2.7984    1.0075    0.2149 H       1  UNL1        0.0557
     42 H           4.7235   -1.0870   -0.5955 H       1  UNL1        0.0594
     43 H           4.7343    0.6128   -1.0948 H       1  UNL1        0.0594
     44 H           4.4911   -0.0489   -3.4552 H       1  UNL1        0.0720
     45 H           4.4442   -1.7675   -3.0056 H       1  UNL1        0.0720
     46 H           8.3261   -2.3962   -2.9155 H       1  UNL1        0.0654
     47 H           9.6831   -2.7531   -4.9294 H       1  UNL1        0.0626
     48 H           8.0141   -1.0589   -8.9025 H       1  UNL1        0.1569
     49 H           8.1267   -0.8783  -11.2652 H       1  UNL1        0.1718
     50 H          10.3588   -2.4621  -12.3936 H       1  UNL1        0.1731
     51 H           9.9276    0.2153  -15.8295 H       1  UNL1        0.0626
     52 H          10.8962   -0.5534  -17.9721 H       1  UNL1        0.0636
     53 H          12.0408   -2.3556  -19.2162 H       1  UNL1        0.1548
     54 H          12.4421   -4.4683  -20.8524 H       1  UNL1        0.0394
     55 H          14.9570   -3.9250  -19.1777 H       1  UNL1        0.0272
     56 H          14.1342   -2.7721  -20.2196 H       1  UNL1        0.0272
     57 H          16.1667   -3.7041  -21.3103 H       1  UNL1        0.0265
     58 H          14.7059   -4.0792  -22.2236 H       1  UNL1        0.0265
     59 H          16.2061   -5.9737  -20.3501 H       1  UNL1        0.0265
     60 H          16.1477   -6.0673  -22.1090 H       1  UNL1        0.0265
     61 H          14.5600   -7.6672  -21.0386 H       1  UNL1        0.0265
     62 H          13.7265   -6.5017  -22.0677 H       1  UNL1        0.0265
     63 H          13.9924   -6.4065  -19.0378 H       1  UNL1        0.0272
     64 H          12.5314   -6.7747  -19.9430 H       1  UNL1        0.0272
     65 H          10.9339   -4.5692  -16.3877 H       1  UNL1        0.0636
     66 H           9.9292   -3.8406  -14.3767 H       1  UNL1        0.0626
     67 H           6.9298   -0.3229   -7.2140 H       1  UNL1        0.0626
     68 H           5.6896    0.1362   -5.1769 H       1  UNL1        0.0654
@<TRIPOS>BOND
     1     1     2    1
     2     2     3    1
     3     3     4    1
     4     4     5    1
     5     5     6    1
     6     6     7    1
     7     7     8   ar
     8     8     9   ar
     9     9    10   ar
    10    10    11    1
    11    11    12    2
    12    11    13   am
    13    13    14    1
    14    14    15    2
    15    14    16    1
    16    16    17    1
    17    17    18   am
    18    18    19    2
    19    18    20    1
    20    20    21   ar
    21    21    22   ar
    22    22    23   ar
    23    23    24    1
    24    24    25   am
    25    25    26    2
    26    25    27    1
    27    27    28    1
    28    28    29    1
    29    29    30    1
    30    30    31    1
    31    31    32    1
    32    27    32    1
    33    23    33   ar
    34    33    34   ar
    35    20    34   ar
    36    10    35   ar
    37    35    36   ar
    38     7    36   ar
    39     1    37    1
    40     1    38    1
    41     1    39    1
    42     2    40    1
    43     2    41    1
    44     4    42    1
    45     4    43    1
    46     5    44    1
    47     5    45    1
    48     8    46    1
    49     9    47    1
    50    13    48    1
    51    16    49    1
    52    17    50    1
    53    21    51    1
    54    22    52    1
    55    24    53    1
    56    27    54    1
    57    28    55    1
    58    28    56    1
    59    29    57    1
    60    29    58    1
    61    30    59    1
    62    30    60    1
    63    31    61    1
    64    31    62    1
    65    32    63    1
    66    32    64    1
    67    33    65    1
    68    34    66    1
    69    35    67    1
    70    36    68    1
