@<TRIPOS>MOLECULE
*****
 58 61 0 0 0
SMALL
GASTEIGER

@<TRIPOS>ATOM
      1 C           1.2045    0.5369    1.3044 C.3     1  UNL1       -0.0307
      2 C           2.7659    0.8466    0.7770 C.3     1  UNL1        0.0868
      3 O           3.3173    0.7826   -0.9067 O.3     1  UNL1       -0.4916
      4 C           4.6542    0.5381   -1.5685 C.ar    1  UNL1        0.1324
      5 C           5.5056   -0.6293   -1.4578 C.ar    1  UNL1        0.0260
      6 C           6.8432   -0.4764   -1.5273 C.ar    1  UNL1        0.1697
      7 C           7.3397    0.6077   -2.1493 C.ar    1  UNL1        0.1669
      8 C           6.4653    1.5425   -2.7318 C.ar    1  UNL1       -0.0044
      9 C           5.0582    1.4858   -2.4863 C.ar    1  UNL1        0.0423
     10 C           4.0424    2.3947   -3.1401 C.3     1  UNL1       -0.0023
     11 N           2.5509    2.1007   -2.8588 N.4     1  UNL1        0.2388
     12 C           2.1695    0.6001   -3.3598 C.3     1  UNL1       -0.0286
     13 C           0.8914    0.0432   -2.7944 C.3     1  UNL1        0.0209
     14 C           0.9458   -0.0069   -1.2658 C.3     1  UNL1        0.1069
     15 O          -0.4573   -0.2701   -1.0322 O.3     1  UNL1       -0.3833
     16 C           1.8715   -1.4337   -0.5733 C.ar    1  UNL1        0.0640
     17 C           3.2123   -1.3608   -0.2897 C.ar    1  UNL1        0.0439
     18 N           4.1096   -1.7017    0.6931 N.ar    1  UNL1       -0.2028
     19 C           3.9063   -2.7228    1.1646 C.ar    1  UNL1        0.3208
     20 O           5.1358   -3.3300    1.0912 O.3     1  UNL1       -0.4657
     21 C           5.2176   -4.2569    2.0889 C.3     1  UNL1        0.0819
     22 N           2.6561   -3.2421    1.0500 N.ar    1  UNL1       -0.1593
     23 C           1.6213   -2.4091    0.4000 C.ar    1  UNL1        0.2264
     24 O           0.4897   -2.5850    1.1426 O.3     1  UNL1       -0.4793
     25 C          -0.7684   -1.9385    1.0409 C.3     1  UNL1        0.0804
     26 C           1.0244    1.7970   -0.9743 C.3     1  UNL1        0.0209
     27 C           2.2333    2.5877   -1.4496 C.3     1  UNL1       -0.0286
     28 O           8.7007    0.5528   -2.1392 O.3     1  UNL1       -0.4526
     29 C           8.9513   -0.6318   -1.3150 C.3     1  UNL1        0.2332
     30 O           7.7429   -1.3094   -0.9592 O.3     1  UNL1       -0.4525
     31 H           1.1269    0.2159    2.3391 H       1  UNL1        0.0262
     32 H           0.8805   -0.3483    0.8366 H       1  UNL1        0.0262
     33 H           0.2729    1.0866    1.0743 H       1  UNL1        0.0262
     34 H           3.2012    0.0550    1.3627 H       1  UNL1        0.0694
     35 H           3.1857    1.7562    1.1500 H       1  UNL1        0.0694
     36 H           5.2875   -1.6572   -1.1563 H       1  UNL1        0.0692
     37 H           6.8925    2.3440   -3.3207 H       1  UNL1        0.0661
     38 H           4.1060    2.3419   -4.2291 H       1  UNL1        0.0868
     39 H           4.2281    3.4127   -2.7911 H       1  UNL1        0.0868
     40 H           1.9682    2.7347   -3.4106 H       1  UNL1        0.2037
     41 H           2.9395   -0.1354   -3.1156 H       1  UNL1        0.0815
     42 H           2.1252    0.6419   -4.4522 H       1  UNL1        0.0815
     43 H           0.6339   -0.9595   -3.1653 H       1  UNL1        0.0348
     44 H           0.0462    0.6746   -3.1293 H       1  UNL1        0.0348
     45 H          -0.6206   -1.1750   -1.3522 H       1  UNL1        0.2106
     46 H           3.8897   -0.5908   -0.2704 H       1  UNL1        0.0837
     47 H           6.2675   -4.5220    2.1845 H       1  UNL1        0.0661
     48 H           4.6197   -5.0611    1.6802 H       1  UNL1        0.0661
     49 H           4.8492   -3.8284    3.0261 H       1  UNL1        0.0661
     50 H          -1.4233   -2.3565    1.8045 H       1  UNL1        0.0660
     51 H          -1.2200   -2.1550    0.0807 H       1  UNL1        0.0660
     52 H          -0.8214   -0.8684    1.2792 H       1  UNL1        0.0660
     53 H           0.9212    2.2047    0.0347 H       1  UNL1        0.0348
     54 H           0.1205    2.2551   -1.4020 H       1  UNL1        0.0348
     55 H           3.1259    2.5821   -0.7841 H       1  UNL1        0.0815
     56 H           2.1510    3.6820   -1.3572 H       1  UNL1        0.0815
     57 H           9.4842   -0.3331   -0.4013 H       1  UNL1        0.1166
     58 H           9.5644   -1.3597   -1.8582 H       1  UNL1        0.1166
@<TRIPOS>UNITY_ATOM_ATTR
11 1
charge 1
@<TRIPOS>BOND
     1     1     2    1
     2     2     3    1
     3     3     4    1
     4     4     5   ar
     5     5     6   ar
     6     6     7   ar
     7     7     8   ar
     8     8     9   ar
     9     4     9   ar
    10     9    10    1
    11    10    11    1
    12    11    12    1
    13    12    13    1
    14    13    14    1
    15    14    15    1
    16    14    16    1
    17    16    17   ar
    18    17    18   ar
    19    18    19   ar
    20    19    20    1
    21    20    21    1
    22    19    22   ar
    23    22    23   ar
    24    16    23   ar
    25    23    24    1
    26    24    25    1
    27    14    26    1
    28    26    27    1
    29    11    27    1
    30     7    28    1
    31    28    29    1
    32    29    30    1
    33     6    30    1
    34     1    31    1
    35     1    32    1
    36     1    33    1
    37     2    34    1
    38     2    35    1
    39     5    36    1
    40     8    37    1
    41    10    38    1
    42    10    39    1
    43    11    40    1
    44    12    41    1
    45    12    42    1
    46    13    43    1
    47    13    44    1
    48    15    45    1
    49    17    46    1
    50    21    47    1
    51    21    48    1
    52    21    49    1
    53    25    50    1
    54    25    51    1
    55    25    52    1
    56    26    53    1
    57    26    54    1
    58    27    55    1
    59    27    56    1
    60    29    57    1
    61    29    58    1
