REMARK  12 active torsions:
REMARK  status: ('A' for Active; 'I' for Inactive)
REMARK    1  A    between atoms: O_2  and  C_3 
REMARK    2  A    between atoms: C_6  and  C_5 
REMARK    3  A    between atoms: C_6  and  N_18 
REMARK    4  A    between atoms: C_6  and  C_7 
REMARK       I    between atoms: C_7  and  N_9 
REMARK    5  A    between atoms: N_9  and  C_10 
REMARK    6  A    between atoms: C_10  and  C_13 
REMARK    7  A    between atoms: C_13  and  C_14 
REMARK       I    between atoms: N_18  and  C_19 
REMARK    8  A    between atoms: N_18  and  C_29 
REMARK    9  A    between atoms: C_19  and  C_21 
REMARK   10  A    between atoms: C_22  and  O_23 
REMARK   11  A    between atoms: C_27  and  O_28 
REMARK   12  A    between atoms: C_35  and  O_36 
ROOT
ATOM      1  C   UNL d   1       6.877   2.077  -0.227  0.00  0.00     0.208 C 
ENDROOT
BRANCH   1   2
ATOM      2  N   UNL d   1       7.337   3.654  -0.120  0.00  0.00    -0.322 N 
ATOM      3  C   UNL d   1       6.555   4.956  -0.008  0.00  0.00     0.261 C 
ATOM      4  O   UNL d   1       6.976   6.096  -0.205  0.00  0.00    -0.267 OA
BRANCH   3   5
ATOM      5  C   UNL d   1       5.122   5.118   0.402  0.00  0.00     0.098 C 
ATOM      6  C   UNL d   1       4.472   4.222   1.770  0.00  0.00     0.084 C 
ATOM      7  C   UNL d   1       2.787   3.702   1.764  0.00  0.00     0.038 C 
ATOM      8  C   UNL d   1       1.853   3.876   0.119  0.00  0.00     0.005 C 
ATOM      9  C   UNL d   1       2.629   4.990  -1.169  0.00  0.00     0.038 C 
ATOM     10  C   UNL d   1       4.220   5.501  -0.988  0.00  0.00     0.084 C 
BRANCH   6  11
ATOM     11  O   UNL d   1       5.238   3.146   2.309  0.00  0.00    -0.360 OA
ATOM     12  H   UNL d   1       6.151   3.106   1.976  0.00  0.00     0.217 HD
ENDBRANCH   6  11
BRANCH  10  13
ATOM     13  O   UNL d   1       4.770   6.294  -1.974  0.00  0.00    -0.360 OA
ATOM     14  H   UNL d   1       4.068   6.726  -2.490  0.00  0.00     0.217 HD
ENDBRANCH  10  13
ENDBRANCH   3   5
BRANCH   2  15
ATOM     15  C   UNL d   1       8.843   3.810  -0.131  0.00  0.00     0.026 C 
ATOM     16  C   UNL d   1       9.437   3.147   1.116  0.00  0.00     0.037 C 
ATOM     17  C   UNL d   1       9.582   3.185  -1.326  0.00  0.00     0.037 C 
ATOM     18  C   UNL d   1       9.259   5.271  -0.161  0.00  0.00     0.037 C 
ENDBRANCH   2  15
ENDBRANCH   1   2
BRANCH   1  19
ATOM     19  C   UNL d   1       5.392   1.787  -0.397  0.00  0.00     0.225 C 
ATOM     20  O   UNL d   1       4.818   0.731  -0.548  0.00  0.00    -0.277 OA
ATOM     21  N   UNL d   1       4.891   2.995  -0.334  0.00  0.00    -0.252 NA
ATOM     22  H   UNL d   1       5.519   3.308   0.352  0.00  0.00     0.131 HD
BRANCH  21  23
ATOM     23  C   UNL d   1       3.574   3.351  -0.049  0.00  0.00     0.011 C 
ATOM     24  C   UNL d   1       2.867   2.748  -1.619  0.00  0.00     0.032 C 
ATOM     25  C   UNL d   1       2.871   1.781   0.887  0.00  0.00     0.032 C 
BRANCH  23  26
ATOM     26  C   UNL d   1       2.846   5.318   0.786  0.00  0.00     0.033 C 
BRANCH  26  27
ATOM     27  C   UNL d   1       0.869   5.349   0.962  0.00  0.00    -0.050 C 
ATOM     28  C   UNL d   1       0.013   5.113  -0.583  0.00  0.00     0.014 C 
ATOM     29  C   UNL d   1       0.239   4.170   1.978  0.00  0.00     0.014 C 
ATOM     30  C   UNL d   1       0.529   6.671   1.455  0.00  0.00     0.014 C 
ENDBRANCH  26  27
ENDBRANCH  23  26
ENDBRANCH  21  23
ENDBRANCH   1  19
BRANCH   1  31
ATOM     31  C   UNL d   1       7.301   1.345  -1.446  0.00  0.00    -0.024 C 
ATOM     32  C   UNL d   1       7.501   2.015  -2.645  0.00  0.00     0.049 C 
ATOM     33  C   UNL d   1       7.889   1.319  -3.763  0.00  0.00     0.101 C 
ATOM     34  C   UNL d   1       7.770  -0.071  -3.744  0.00  0.00     0.099 C 
ATOM     35  C   UNL d   1       7.345  -0.744  -2.601  0.00  0.00     0.040 C 
ATOM     36  C   UNL d   1       7.172  -0.045  -1.433  0.00  0.00     0.012 C 
BRANCH  33  37
ATOM     37  O   UNL d   1       8.365   2.126  -4.755  0.00  0.00    -0.353 OA
ATOM     38  C   UNL d   1       8.641   1.460  -5.971  0.00  0.00     0.210 C 
ENDBRANCH  33  37
BRANCH  34  39
ATOM     39  O   UNL d   1       8.044  -0.793  -4.867  0.00  0.00    -0.358 OA
ATOM     40  H   UNL d   1       7.849  -1.730  -4.735  0.00  0.00     0.217 HD
ENDBRANCH  34  39
ENDBRANCH   1  31
TORSDOF 12
