REMARK  9 active torsions:
REMARK  status: ('A' for Active; 'I' for Inactive)
REMARK    1  A    between atoms: C_2  and  C_3 
REMARK    2  A    between atoms: C_7  and  C_6 
REMARK    3  A    between atoms: C_10  and  S_11 
REMARK    4  A    between atoms: S_11  and  C_12 
REMARK    5  A    between atoms: C_12  and  C_13 
REMARK       I    between atoms: C_13  and  N_15 
REMARK    6  A    between atoms: CA_16  and  N_15 
REMARK    7  A    between atoms: CA_16  and  C_27 
REMARK    8  A    between atoms: CA_16  and  CB_17 
REMARK    9  A    between atoms: CB_17  and  CG_18 
ROOT
ATOM      1  C   UNK d   0      -3.305   8.954  -2.429  0.00  0.00     0.228 C 
ATOM      2  O   UNK d   0      -4.347   8.424  -1.974  0.00  0.00    -0.273 OA
ATOM      3  N   TRP d   1      -2.562   9.794  -1.652  0.00  0.00    -0.346 N 
ATOM      4  H   TRP d   1      -3.066  10.120  -0.816  0.00  0.00     0.163 HD
ENDROOT
BRANCH   1   5
ATOM      5  C   UNK d   0      -2.771   8.697  -3.823  0.00  0.00     0.185 C 
BRANCH   5   6
ATOM      6  S   UNK d   0      -3.688   7.425  -4.751  0.00  0.00    -0.081 SA
BRANCH   6   7
ATOM      7  C   UNK d   0      -2.781   7.264  -6.198  0.00  0.00     0.183 C 
ATOM      8  N   UNK d   0      -1.775   7.944  -6.648  0.00  0.00    -0.152 NA
ATOM      9  N   UNK d   0      -1.527   7.392  -7.880  0.00  0.00    -0.284 N 
ATOM     10  C   UNK d   0      -2.118   6.085  -8.084  0.00  0.00     0.235 C 
ATOM     11  H   UNK d   0      -0.751   7.710  -8.449  0.00  0.00     0.185 HD
ATOM     12  N   UNK d   0      -3.169   6.210  -7.077  0.00  0.00    -0.342 N 
ATOM     13  H   UNK d   0      -4.031   5.711  -6.961  0.00  0.00     0.164 HD
BRANCH  10  14
ATOM     14  C   UNK d   0      -2.608   5.811  -9.488  0.00  0.00    -0.015 A 
ATOM     15  C   UNK d   0      -1.700   5.745 -10.570  0.00  0.00     0.011 A 
ATOM     16  C   UNK d   0      -2.146   5.580 -11.894  0.00  0.00     0.007 A 
ATOM     17  C   UNK d   0      -3.503   5.381 -12.153  0.00  0.00    -0.059 A 
ATOM     18  C   UNK d   0      -4.385   5.325 -11.069  0.00  0.00     0.007 A 
ATOM     19  C   UNK d   0      -3.953   5.554  -9.766  0.00  0.00     0.011 A 
BRANCH  17  20
ATOM     20  C   UNK d   0      -4.057   5.215 -13.547  0.00  0.00     0.034 C 
ATOM     21  C   UNK d   0      -5.172   6.225 -13.813  0.00  0.00     0.010 C 
ENDBRANCH  17  20
ENDBRANCH  10  14
ENDBRANCH   6   7
ENDBRANCH   5   6
ENDBRANCH   1   5
BRANCH   3  22
ATOM     22  CA  TRP d   1      -1.307  10.675  -2.025  0.00  0.00     0.189 C 
BRANCH  22  23
ATOM     23  C   TRP d   1      -1.463  11.969  -1.001  0.00  0.00     0.197 C 
ATOM     24  O   TRP d   1      -0.482  12.214  -0.258  0.00  0.00    -0.646 OA
ATOM     25  OXT TRP d   1      -2.619  12.512  -1.013  0.00  0.00    -0.646 OA
ENDBRANCH  22  23
BRANCH  22  26
ATOM     26  CB  TRP d   1       0.131   9.643  -2.085  0.00  0.00     0.073 C 
BRANCH  26  27
ATOM     27  CG  TRP d   1       1.661   9.867  -2.923  0.00  0.00    -0.046 C 
ATOM     28  CD1 TRP d   1       2.124  11.037  -2.336  0.00  0.00     0.112 C 
ATOM     29  NE1 TRP d   1       2.531  11.589  -3.521  0.00  0.00    -0.282 NA
ATOM     30  CE2 TRP d   1       3.669  10.889  -3.770  0.00  0.00     0.019 A 
ATOM     31  HE1 TRP d   1       1.943  11.757  -4.314  0.00  0.00     0.128 HD
ATOM     32  CZ2 TRP d   1       4.875  11.513  -4.164  0.00  0.00     0.024 A 
ATOM     33  CD2 TRP d   1       3.323   9.582  -3.421  0.00  0.00    -0.011 A 
ATOM     34  CH2 TRP d   1       6.072  10.875  -4.263  0.00  0.00     0.002 A 
ATOM     35  CZ3 TRP d   1       5.990   9.541  -3.966  0.00  0.00     0.001 A 
ATOM     36  CE3 TRP d   1       4.648   8.839  -3.596  0.00  0.00     0.013 A 
ENDBRANCH  26  27
ENDBRANCH  22  26
ENDBRANCH   3  22
TORSDOF 9
