REMARK  10 active torsions:
REMARK  status: ('A' for Active; 'I' for Inactive)
REMARK    1  A    between atoms: C_5  and  S_6 
REMARK    2  A    between atoms: S_6  and  N_9 
REMARK    3  A    between atoms: N_9  and  N_10 
REMARK    4  A    between atoms: N_10  and  C_11 
REMARK    5  A    between atoms: C_11  and  S_13 
REMARK    6  A    between atoms: S_13  and  C_14 
REMARK    7  A    between atoms: C_14  and  C_15 
REMARK       I    between atoms: C_15  and  N_17 
REMARK    8  A    between atoms: C_18  and  N_17 
REMARK    9  A    between atoms: C_18  and  C_20 
REMARK   10  A    between atoms: C_18  and  O_19 
ROOT
ATOM      1  C   UNL d   1     -11.269   0.432  -1.147  0.00  0.00     0.154 C 
ATOM      2  S   UNL d   1     -10.902   1.214  -2.580  0.00  0.00    -0.051 SA
ENDROOT
BRANCH   1   3
ATOM      3  N   UNL d   1     -11.058  -0.926  -0.940  0.00  0.00    -0.275 N 
ATOM      4  H   UNL d   1     -11.214  -1.345  -0.022  0.00  0.00     0.189 HD
BRANCH   3   5
ATOM      5  N   UNL d   1     -10.561  -1.842  -2.014  0.00  0.00    -0.221 N 
ATOM      6  H   UNL d   1     -10.920  -1.639  -2.951  0.00  0.00     0.200 HD
BRANCH   5   7
ATOM      7  S   UNL d   1     -10.348  -3.488  -1.613  0.00  0.00     0.276 S 
ATOM      8  O   UNL d   1     -11.677  -4.032  -1.456  0.00  0.00    -0.199 OA
ATOM      9  O   UNL d   1      -9.380  -3.540  -0.534  0.00  0.00    -0.199 OA
BRANCH   7  10
ATOM     10  C   UNL d   1      -9.613  -4.302  -3.022  0.00  0.00     0.081 A 
ATOM     11  C   UNL d   1      -9.389  -5.686  -2.930  0.00  0.00     0.026 A 
ATOM     12  C   UNL d   1      -8.849  -6.392  -4.013  0.00  0.00     0.008 A 
ATOM     13  C   UNL d   1      -8.526  -5.726  -5.200  0.00  0.00    -0.062 A 
ATOM     14  C   UNL d   1      -7.967  -6.473  -6.380  0.00  0.00     0.048 C 
ATOM     15  C   UNL d   1      -8.737  -4.342  -5.277  0.00  0.00     0.008 A 
ATOM     16  C   UNL d   1      -9.273  -3.627  -4.194  0.00  0.00     0.026 A 
ENDBRANCH   7  10
ENDBRANCH   5   7
ENDBRANCH   3   5
ENDBRANCH   1   3
BRANCH   1  17
ATOM     17  S   UNL d   1     -11.954   1.176   0.300  0.00  0.00    -0.090 SA
BRANCH  17  18
ATOM     18  C   UNL d   1     -12.124   2.960  -0.101  0.00  0.00     0.184 C 
BRANCH  18  19
ATOM     19  C   UNL d   1     -12.744   3.768   1.051  0.00  0.00     0.229 C 
ATOM     20  O   UNL d   1     -13.133   3.285   2.114  0.00  0.00    -0.273 OA
ATOM     21  N   UNL d   1     -12.898   5.125   0.891  0.00  0.00    -0.330 N 
ATOM     22  H   UNL d   1     -13.359   5.575   1.677  0.00  0.00     0.165 HD
BRANCH  21  23
ATOM     23  C   UNL d   1     -12.464   5.937  -0.232  0.00  0.00     0.275 C 
BRANCH  23  24
ATOM     24  C   UNL d   1     -13.002   7.416  -0.255  0.00  0.00     0.231 C 
ATOM     25 CL   UNL d   1     -12.441   8.287   1.216  0.00  0.00    -0.079 Cl
ATOM     26 CL   UNL d   1     -12.385   8.283  -1.696  0.00  0.00    -0.079 Cl
ATOM     27 CL   UNL d   1     -14.790   7.437  -0.284  0.00  0.00    -0.079 Cl
ENDBRANCH  23  24
BRANCH  23  28
ATOM     28  O   UNL d   1     -11.040   5.883  -0.193  0.00  0.00    -0.372 OA
ATOM     29  H   UNL d   1     -10.760   6.366   0.607  0.00  0.00     0.212 HD
ENDBRANCH  23  28
ENDBRANCH  21  23
ENDBRANCH  18  19
ENDBRANCH  17  18
ENDBRANCH   1  17
TORSDOF 10
