@<TRIPOS>MOLECULE
*****
 25 26 0 0 0
SMALL
GASTEIGER

@<TRIPOS>ATOM
      1 O           0.9356   -0.0075   -0.1000 O.2     1  UNL1       -0.2686
      2 C           2.1709    0.0069   -0.0904 C.2     1  UNL1        0.2631
      3 N           2.9293   -0.0117   -1.2587 N.am    1  UNL1       -0.2324
      4 N           2.2770    0.3442   -2.4556 N.pl3   1  UNL1       -0.2642
      5 C           2.9397    0.1204   -3.6838 C.ar    1  UNL1        0.0444
      6 C           2.5013    0.8615   -4.7951 C.ar    1  UNL1       -0.0394
      7 C           3.0990    0.7272   -6.0537 C.ar    1  UNL1       -0.0600
      8 C           4.1820   -0.1279   -6.2180 C.ar    1  UNL1       -0.0616
      9 C           4.6280   -0.8822   -5.1340 C.ar    1  UNL1       -0.0600
     10 C           4.0049   -0.7674   -3.8784 C.ar    1  UNL1       -0.0394
     11 C           2.9150   -0.0118    1.1611 C.ar    1  UNL1        0.0757
     12 C           2.6264   -0.7786    2.3330 C.ar    1  UNL1       -0.0117
     13 C           3.5702   -0.4450    3.2752 C.ar    1  UNL1        0.0924
     14 O           4.4072    0.5018    2.7813 O.2     1  UNL1       -0.4703
     15 C           4.0024    0.7683    1.5088 C.ar    1  UNL1        0.1038
     16 H           3.9352    0.1116   -1.2415 H       1  UNL1        0.1730
     17 H           1.2815    0.0879   -2.4710 H       1  UNL1        0.1700
     18 H           1.7040    1.5914   -4.6722 H       1  UNL1        0.0636
     19 H           2.7219    1.2968   -6.8996 H       1  UNL1        0.0618
     20 H           4.6736   -0.2057   -7.1855 H       1  UNL1        0.0618
     21 H           5.4600   -1.5697   -5.2712 H       1  UNL1        0.0618
     22 H           4.3618   -1.3982   -3.0705 H       1  UNL1        0.0636
     23 H           1.8261   -1.4942    2.4639 H       1  UNL1        0.0656
     24 H           3.7641   -0.7650    4.2914 H       1  UNL1        0.1029
     25 H           4.5622    1.5487    1.0127 H       1  UNL1        0.1037
@<TRIPOS>BOND
     1     1     2    2
     2     2     3   am
     3     3     4    1
     4     4     5    1
     5     5     6   ar
     6     6     7   ar
     7     7     8   ar
     8     8     9   ar
     9     9    10   ar
    10     5    10   ar
    11     2    11    1
    12    11    12   ar
    13    12    13   ar
    14    13    14   ar
    15    14    15   ar
    16    11    15   ar
    17     3    16    1
    18     4    17    1
    19     6    18    1
    20     7    19    1
    21     8    20    1
    22     9    21    1
    23    10    22    1
    24    12    23    1
    25    13    24    1
    26    15    25    1
