REMARK  7 active torsions:
REMARK  status: ('A' for Active; 'I' for Inactive)
REMARK    1  A    between atoms: O_2  and  C_3 
REMARK    2  A    between atoms: C_6  and  N_7 
REMARK       I    between atoms: N_7  and  C_8 
REMARK    3  A    between atoms: C_8  and  C_10 
REMARK    4  A    between atoms: C_10  and  S_11 
REMARK    5  A    between atoms: S_11  and  C_12 
REMARK    6  A    between atoms: C_15  and  C_16 
REMARK    7  A    between atoms: C_29  and  O_30 
ROOT
ATOM      1  C   UNL d   1       5.364  10.325  -0.822  0.00  0.00     0.172 A 
ATOM      2  N   UNL d   1       4.688  11.393  -0.479  0.00  0.00    -0.221 NA
ATOM      3  C   UNL d   1       5.259  12.613  -0.844  0.00  0.00     0.104 A 
ATOM      4  C   UNL d   1       4.794  13.941  -0.662  0.00  0.00     0.021 A 
ATOM      5  C   UNL d   1       5.771  14.764  -1.210  0.00  0.00     0.103 A 
ATOM      6  N   UNL d   1       6.768  13.974  -1.724  0.00  0.00    -0.359 N 
ATOM      7  C   UNL d   1       6.451  12.666  -1.504  0.00  0.00     0.131 A 
ATOM      8  C   UNL d   1       7.190  11.521  -1.871  0.00  0.00     0.278 A 
ATOM      9  O   UNL d   1       8.267  11.599  -2.474  0.00  0.00    -0.265 OA
ATOM     10  N   UNL d   1       6.591  10.328  -1.494  0.00  0.00    -0.296 N 
ATOM     11  C   UNL d   1       7.348   9.150  -1.821  0.00  0.00     0.162 C 
ATOM     12  H   UNL d   1       7.610  14.293  -2.188  0.00  0.00     0.165 HD
ENDROOT
BRANCH   1  13
ATOM     13  S   UNL d   1       4.615   8.828  -0.296  0.00  0.00    -0.082 SA
BRANCH  13  14
ATOM     14  C   UNL d   1       5.324   7.317  -1.079  0.00  0.00     0.185 C 
BRANCH  14  15
ATOM     15  C   UNL d   1       4.503   6.108  -0.691  0.00  0.00     0.232 C 
ATOM     16  N   UNL d   1       5.033   4.842  -1.020  0.00  0.00    -0.324 N 
ATOM     17  H   UNL d   1       5.840   4.793  -1.632  0.00  0.00     0.169 HD
ATOM     18  O   UNL d   1       3.410   6.346  -0.188  0.00  0.00    -0.272 OA
BRANCH  16  19
ATOM     19  C   UNL d   1       4.386   3.581  -0.734  0.00  0.00     0.068 C 
ATOM     20  C   UNL d   1       4.868   2.383  -1.301  0.00  0.00     0.035 C 
ATOM     21  C   UNL d   1       4.161   1.166  -1.127  0.00  0.00     0.039 C 
ATOM     22  C   UNL d   1       2.996   1.122  -0.362  0.00  0.00     0.070 C 
ATOM     23  C   UNL d   1       2.566   2.281   0.252  0.00  0.00     0.075 C 
ATOM     24  C   UNL d   1       3.266   3.471   0.111  0.00  0.00     0.097 C 
BRANCH  22  25
ATOM     25  O   UNL d   1       2.392  -0.085  -0.135  0.00  0.00    -0.356 OA
ATOM     26  C   UNL d   1       0.969  -0.024   0.011  0.00  0.00     0.210 C 
ENDBRANCH  22  25
BRANCH  24  27
ATOM     27  O   UNL d   1       2.994   4.498   0.954  0.00  0.00    -0.354 OA
ATOM     28  C   UNL d   1       1.729   4.622   1.572  0.00  0.00     0.210 C 
ENDBRANCH  24  27
ENDBRANCH  16  19
ENDBRANCH  14  15
ENDBRANCH  13  14
ENDBRANCH   1  13
BRANCH   4  29
ATOM     29  C   UNL d   1       3.635  14.499   0.012  0.00  0.00    -0.022 A 
ATOM     30  C   UNL d   1       2.777  15.391  -0.649  0.00  0.00     0.012 A 
ATOM     31  C   UNL d   1       1.749  16.032   0.049  0.00  0.00     0.001 A 
ATOM     32  C   UNL d   1       1.528  15.734   1.392  0.00  0.00     0.000 A 
ATOM     33  C   UNL d   1       2.368  14.838   2.052  0.00  0.00     0.001 A 
ATOM     34  C   UNL d   1       3.424  14.231   1.367  0.00  0.00     0.012 A 
ENDBRANCH   4  29
TORSDOF 7
