@<TRIPOS>MOLECULE
*****
 56 59 0 0 0
SMALL
GASTEIGER

@<TRIPOS>ATOM
      1 C           0.9485    0.1581    0.0331 C.3     1  UNL1       -0.0308
      2 C           2.4750    0.1505   -0.0263 C.3     1  UNL1        0.1351
      3 C           2.9259    0.2419   -1.4866 C.ar    1  UNL1       -0.0148
      4 C           3.6339    1.3526   -1.9573 C.ar    1  UNL1       -0.0560
      5 C           3.8714    1.5086   -3.3169 C.ar    1  UNL1       -0.0607
      6 C           3.4872    0.5180   -4.2200 C.ar    1  UNL1       -0.0496
      7 C           2.8190   -0.6275   -3.7800 C.ar    1  UNL1        0.0368
      8 C           2.3176   -1.6757   -4.7186 C.2     1  UNL1        0.2415
      9 N           2.5589   -1.5133   -6.0547 N.am    1  UNL1       -0.3253
     10 O           1.6847   -2.6511   -4.3290 O.2     1  UNL1       -0.2704
     11 C           2.5512   -0.7620   -2.4125 C.ar    1  UNL1       -0.0440
     12 N           3.1208    1.0944    0.8419 N.am    1  UNL1       -0.2813
     13 C           4.3046    0.5515    1.3154 C.2     1  UNL1        0.3100
     14 O           5.2727    1.2196    1.6443 O.2     1  UNL1       -0.2522
     15 N           4.1655   -0.8096    1.3297 N.am    1  UNL1       -0.2150
     16 C           5.0565   -1.7083    2.1130 C.3     1  UNL1        0.1005
     17 C           4.6058   -3.1752    2.2114 C.2     1  UNL1        0.2351
     18 O           3.5264   -3.5408    1.7542 O.2     1  UNL1       -0.2737
     19 N           5.3491   -4.1144    2.9035 N.am    1  UNL1       -0.2841
     20 C           4.8991   -5.4727    2.8741 C.ar    1  UNL1        0.0369
     21 C           4.8965   -6.2834    4.0005 C.ar    1  UNL1       -0.0402
     22 C           4.5100   -7.6304    3.8850 C.ar    1  UNL1       -0.0565
     23 C           4.0883   -8.1597    2.6552 C.ar    1  UNL1       -0.0192
     24 C           4.0589   -7.3455    1.5279 C.ar    1  UNL1        0.1302
     25 O           3.6403   -7.9005    0.3348 O.3     1  UNL1       -0.4560
     26 C           3.8101   -7.1785   -0.8324 C.ar    1  UNL1        0.1284
     27 C           2.7002   -7.0251   -1.6619 C.ar    1  UNL1       -0.0193
     28 C           2.8278   -6.3420   -2.8742 C.ar    1  UNL1       -0.0583
     29 C           4.0390   -5.7393   -3.2175 C.ar    1  UNL1       -0.0615
     30 C           5.1477   -5.8814   -2.3866 C.ar    1  UNL1       -0.0583
     31 C           5.0456   -6.6396   -1.2196 C.ar    1  UNL1       -0.0193
     32 C           4.4410   -6.0141    1.6652 C.ar    1  UNL1        0.0019
     33 C           3.0341   -1.1073    0.6060 C.2     1  UNL1        0.2512
     34 O           2.4816   -2.1734    0.3442 O.2     1  UNL1       -0.2724
     35 H           0.5402    1.0571   -0.4383 H       1  UNL1        0.0258
     36 H           0.5747    0.0932    1.0587 H       1  UNL1        0.0258
     37 H           0.5279   -0.7031   -0.5061 H       1  UNL1        0.0258
     38 H           3.9956    2.1200   -1.2774 H       1  UNL1        0.0621
     39 H           4.3371    2.4209   -3.6777 H       1  UNL1        0.0618
     40 H           3.7220    0.6780   -5.2635 H       1  UNL1        0.0625
     41 H           3.0383   -0.7307   -6.4674 H       1  UNL1        0.1453
     42 H           2.1838   -2.2152   -6.6786 H       1  UNL1        0.1453
     43 H           2.0185   -1.6534   -2.0692 H       1  UNL1        0.0629
     44 H           2.9352    2.0869    0.8451 H       1  UNL1        0.1516
     45 H           5.0929   -1.3037    3.1346 H       1  UNL1        0.0566
     46 H           6.0756   -1.6327    1.7134 H       1  UNL1        0.0566
     47 H           6.0119   -3.8383    3.6136 H       1  UNL1        0.1549
     48 H           5.1083   -5.8723    4.9818 H       1  UNL1        0.0636
     49 H           4.5354   -8.2754    4.7601 H       1  UNL1        0.0619
     50 H           3.7736   -9.1983    2.5867 H       1  UNL1        0.0654
     51 H           1.7318   -7.4109   -1.3574 H       1  UNL1        0.0654
     52 H           1.9782   -6.2626   -3.5476 H       1  UNL1        0.0619
     53 H           4.1091   -5.1500   -4.1282 H       1  UNL1        0.0618
     54 H           6.0879   -5.4020   -2.6437 H       1  UNL1        0.0619
     55 H           5.9165   -6.7459   -0.5793 H       1  UNL1        0.0654
     56 H           4.3864   -5.3657    0.7976 H       1  UNL1        0.0673
@<TRIPOS>BOND
     1     1     2    1
     2     2     3    1
     3     3     4   ar
     4     4     5   ar
     5     5     6   ar
     6     6     7   ar
     7     7     8    1
     8     8     9   am
     9     8    10    2
    10     7    11   ar
    11     3    11   ar
    12     2    12    1
    13    12    13   am
    14    13    14    2
    15    13    15   am
    16    15    16    1
    17    16    17    1
    18    17    18    2
    19    17    19   am
    20    19    20    1
    21    20    21   ar
    22    21    22   ar
    23    22    23   ar
    24    23    24   ar
    25    24    25    1
    26    25    26    1
    27    26    27   ar
    28    27    28   ar
    29    28    29   ar
    30    29    30   ar
    31    30    31   ar
    32    26    31   ar
    33    24    32   ar
    34    20    32   ar
    35    15    33   am
    36     2    33    1
    37    33    34    2
    38     1    35    1
    39     1    36    1
    40     1    37    1
    41     4    38    1
    42     5    39    1
    43     6    40    1
    44     9    41    1
    45     9    42    1
    46    11    43    1
    47    12    44    1
    48    16    45    1
    49    16    46    1
    50    19    47    1
    51    21    48    1
    52    22    49    1
    53    23    50    1
    54    27    51    1
    55    28    52    1
    56    29    53    1
    57    30    54    1
    58    31    55    1
    59    32    56    1
