@<TRIPOS>MOLECULE
*****
 60 63 0 0 0
SMALL
GASTEIGER

@<TRIPOS>ATOM
      1 C           1.1996   -0.0647    0.4917 C.3     1  UNL1        0.0790
      2 O           2.5782   -0.0547    0.1223 O.3     1  UNL1       -0.4914
      3 C           3.0748   -0.9762   -0.7758 C.ar    1  UNL1        0.1623
      4 C           4.1962   -1.6765   -0.2714 C.ar    1  UNL1       -0.0023
      5 C           5.0352   -2.4655   -1.0909 C.ar    1  UNL1        0.0627
      6 C           6.3379   -2.9318   -0.5345 C.2     1  UNL1        0.3400
      7 O           6.7067   -2.6333    0.6070 O.2     1  UNL1       -0.2449
      8 O           7.0905   -3.6533   -1.3959 O.3     1  UNL1       -0.4501
      9 C           8.3859   -4.1302   -0.9117 C.3     1  UNL1        0.1625
     10 C           8.1669   -5.1420    0.1968 C.3     1  UNL1       -0.0203
     11 C           9.0609   -4.8451   -2.0774 C.2     1  UNL1        0.2060
     12 O           8.4360   -4.9393   -3.1377 O.2     1  UNL1       -0.2882
     13 C          10.4347   -5.4579   -1.9888 C.2     1  UNL1        0.0761
     14 C          10.9408   -6.0614   -3.0755 C.ar    1  UNL1        0.0583
     15 C          10.4606   -6.2313   -4.4045 C.ar    1  UNL1       -0.0477
     16 C          11.1268   -7.0065   -5.2601 C.ar    1  UNL1       -0.0608
     17 C          12.4084   -7.5766   -4.9114 C.ar    1  UNL1       -0.0555
     18 C          12.9736   -7.4439   -3.6936 C.ar    1  UNL1        0.0098
     19 C          12.2327   -6.6527   -2.6771 C.ar    1  UNL1        0.2090
     20 N          12.5202   -6.3742   -1.4627 N.2     1  UNL1       -0.2364
     21 C          11.4114   -5.5650   -0.8470 C.3     1  UNL1        0.1730
     22 C           4.6751   -2.6713   -2.4186 C.ar    1  UNL1       -0.0441
     23 C           3.5723   -1.9812   -2.9349 C.ar    1  UNL1       -0.0155
     24 C           2.7885   -1.1031   -2.1500 C.ar    1  UNL1        0.1626
     25 O           1.8818   -0.4426   -2.9474 O.3     1  UNL1       -0.4791
     26 C           0.9212    0.3354   -2.2866 C.3     1  UNL1        0.1656
     27 C          -0.2059    0.9983   -3.0580 C.2     1  UNL1        0.2548
     28 O          -0.3742    0.7467   -4.2484 O.2     1  UNL1       -0.2717
     29 N          -1.0192    1.8615   -2.2999 N.am    1  UNL1       -0.2827
     30 C          -2.1578    2.4535   -2.8905 C.ar    1  UNL1        0.0337
     31 C          -2.4845    3.7973   -2.6774 C.ar    1  UNL1       -0.0378
     32 C          -3.5976    4.3449   -3.3334 C.ar    1  UNL1       -0.0247
     33 C          -4.3504    3.5575   -4.2024 C.ar    1  UNL1        0.1235
     34 F          -5.3661    4.1012   -4.8845 F       1  UNL1       -0.2055
     35 C          -4.0538    2.2179   -4.3863 C.ar    1  UNL1       -0.0247
     36 C          -2.9670    1.6691   -3.7196 C.ar    1  UNL1       -0.0378
     37 H           1.0699    0.3337    1.4999 H       1  UNL1        0.0660
     38 H           0.7299   -1.0482    0.4034 H       1  UNL1        0.0660
     39 H           0.6473    0.6887   -0.0713 H       1  UNL1        0.0660
     40 H           4.4545   -1.5610    0.7816 H       1  UNL1        0.0663
     41 H           9.0068   -3.2696   -0.6416 H       1  UNL1        0.0815
     42 H           7.5492   -5.9719   -0.1652 H       1  UNL1        0.0270
     43 H           7.6478   -4.7050    1.0491 H       1  UNL1        0.0270
     44 H           9.1045   -5.5467    0.5703 H       1  UNL1        0.0270
     45 H           9.5513   -5.7504   -4.7385 H       1  UNL1        0.0626
     46 H          10.6955   -7.1828   -6.2418 H       1  UNL1        0.0618
     47 H          12.9107   -8.0923   -5.7283 H       1  UNL1        0.0620
     48 H          13.9425   -7.8896   -3.4972 H       1  UNL1        0.0683
     49 H          13.3891   -6.6870   -1.0235 H       1  UNL1        0.4459
     50 H          11.8220   -4.5966   -0.5463 H       1  UNL1        0.1081
     51 H          11.0573   -6.1237    0.0231 H       1  UNL1        0.1081
     52 H           5.2548   -3.3155   -3.0758 H       1  UNL1        0.0627
     53 H           3.3439   -2.0797   -3.9974 H       1  UNL1        0.0655
     54 H           1.4532    1.1504   -1.7865 H       1  UNL1        0.0795
     55 H           0.3642   -0.3715   -1.6670 H       1  UNL1        0.0795
     56 H          -0.7274    2.2133   -1.3930 H       1  UNL1        0.1549
     57 H          -1.8501    4.4562   -2.0900 H       1  UNL1        0.0637
     58 H          -3.8770    5.3858   -3.1972 H       1  UNL1        0.0647
     59 H          -4.6515    1.6025   -5.0484 H       1  UNL1        0.0647
     60 H          -2.7481    0.6137   -3.8593 H       1  UNL1        0.0637
@<TRIPOS>UNITY_ATOM_ATTR
20 1
charge 1
@<TRIPOS>BOND
     1     1     2    1
     2     2     3    1
     3     3     4   ar
     4     4     5   ar
     5     5     6    1
     6     6     7    2
     7     6     8    1
     8     8     9    1
     9     9    10    1
    10     9    11    1
    11    11    12    2
    12    11    13    1
    13    13    14    2
    14    14    15   ar
    15    15    16   ar
    16    16    17   ar
    17    17    18   ar
    18    18    19   ar
    19    14    19   ar
    20    19    20    2
    21    20    21    1
    22    13    21    1
    23     5    22   ar
    24    22    23   ar
    25    23    24   ar
    26     3    24   ar
    27    24    25    1
    28    25    26    1
    29    26    27    1
    30    27    28    2
    31    27    29   am
    32    29    30    1
    33    30    31   ar
    34    31    32   ar
    35    32    33   ar
    36    33    34    1
    37    33    35   ar
    38    35    36   ar
    39    30    36   ar
    40     1    37    1
    41     1    38    1
    42     1    39    1
    43     4    40    1
    44     9    41    1
    45    10    42    1
    46    10    43    1
    47    10    44    1
    48    15    45    1
    49    16    46    1
    50    17    47    1
    51    18    48    1
    52    20    49    1
    53    21    50    1
    54    21    51    1
    55    22    52    1
    56    23    53    1
    57    26    54    1
    58    26    55    1
    59    29    56    1
    60    31    57    1
    61    32    58    1
    62    35    59    1
    63    36    60    1
