REMARK  7 active torsions:
REMARK  status: ('A' for Active; 'I' for Inactive)
REMARK       I    between atoms: C_2  and  N_3 
REMARK    1  A    between atoms: C_2  and  C_22 
REMARK    2  A    between atoms: N_3  and  C_4 
REMARK    3  A    between atoms: C_4  and  C_5 
REMARK    4  A    between atoms: C_5  and  S_6 
REMARK    5  A    between atoms: S_6  and  C_7 
REMARK    6  A    between atoms: C_8  and  C_9 
REMARK    7  A    between atoms: C_22  and  C_24 
ROOT
ATOM      1  C   UNL d   1       3.065  -3.455  -1.181  0.00  0.00     0.099 C 
ENDROOT
BRANCH   1   2
ATOM      2  C   UNL d   1       2.136  -2.324  -0.747  0.00  0.00     0.133 C 
BRANCH   2   3
ATOM      3  N   UNL d   1       2.867  -1.141  -0.284  0.00  0.00    -0.353 N 
ATOM      4  C   UNL d   1       2.187   0.018   0.074  0.00  0.00     0.292 C 
ATOM      5  O   UNL d   1       0.955   0.081   0.032  0.00  0.00    -0.264 OA
ATOM      6  H   UNL d   1       3.881  -1.167  -0.250  0.00  0.00     0.162 HD
BRANCH   4   7
ATOM      7  C   UNL d   1       3.006   1.249   0.562  0.00  0.00     0.251 C 
ATOM      8  O   UNL d   1       2.387   2.238   0.972  0.00  0.00    -0.281 OA
BRANCH   7   9
ATOM      9  C   UNL d   1       4.465   1.260   0.551  0.00  0.00     0.048 C 
ATOM     10  C   UNL d   1       5.293   1.745   1.547  0.00  0.00     0.105 C 
ATOM     11  N   UNL d   1       6.596   1.549   1.165  0.00  0.00    -0.364 N 
ATOM     12  C   UNL d   1       6.637   1.063  -0.121  0.00  0.00     0.043 C 
ATOM     13  H   UNL d   1       7.412   1.798   1.710  0.00  0.00     0.165 HD
ATOM     14  C   UNL d   1       7.725   0.760  -0.947  0.00  0.00     0.030 C 
ATOM     15  C   UNL d   1       5.312   0.924  -0.537  0.00  0.00     0.006 C 
ATOM     16  C   UNL d   1       7.433   0.424  -2.269  0.00  0.00     0.002 C 
ATOM     17  C   UNL d   1       6.114   0.399  -2.727  0.00  0.00     0.001 C 
ATOM     18  C   UNL d   1       5.046   0.548  -1.857  0.00  0.00     0.015 C 
ENDBRANCH   7   9
ENDBRANCH   4   7
ENDBRANCH   2   3
ENDBRANCH   1   2
BRANCH   1  19
ATOM     19  S   UNL d   1       2.218  -4.956  -1.732  0.00  0.00    -0.125 SA
BRANCH  19  20
ATOM     20  C   UNL d   1       3.467  -6.156  -2.124  0.00  0.00     0.040 A 
ATOM     21  C   UNL d   1       4.730  -6.025  -2.678  0.00  0.00     0.060 A 
ATOM     22  N   UNL d   1       5.242  -7.285  -2.879  0.00  0.00    -0.354 N 
ATOM     23  C   UNL d   1       4.323  -8.240  -2.528  0.00  0.00     0.044 A 
ATOM     24  H   UNL d   1       6.151  -7.476  -3.281  0.00  0.00     0.166 HD
ATOM     25  C   UNL d   1       4.389  -9.635  -2.619  0.00  0.00     0.030 A 
ATOM     26  C   UNL d   1       3.204  -7.560  -2.043  0.00  0.00     0.010 A 
ATOM     27  C   UNL d   1       3.265 -10.357  -2.212  0.00  0.00     0.002 A 
ATOM     28  C   UNL d   1       2.133  -9.711  -1.722  0.00  0.00     0.001 A 
ATOM     29  C   UNL d   1       2.093  -8.319  -1.628  0.00  0.00     0.015 A 
BRANCH  21  30
ATOM     30  C   UNL d   1       5.473  -4.866  -3.099  0.00  0.00    -0.008 C 
ATOM     31  C   UNL d   1       5.835  -3.932  -2.142  0.00  0.00     0.014 C 
ATOM     32  C   UNL d   1       6.237  -2.684  -2.557  0.00  0.00     0.001 C 
ATOM     33  C   UNL d   1       6.483  -2.443  -3.910  0.00  0.00     0.000 C 
ATOM     34  C   UNL d   1       6.219  -3.407  -4.865  0.00  0.00     0.001 C 
ATOM     35  C   UNL d   1       5.702  -4.624  -4.458  0.00  0.00     0.014 C 
ENDBRANCH  21  30
ENDBRANCH  19  20
ENDBRANCH   1  19
TORSDOF 7
