@<TRIPOS>MOLECULE
*****
 62 64 0 0 0
SMALL
GASTEIGER

@<TRIPOS>ATOM
      1 C           0.9821    0.0117    0.1331 C.3     1  UNL1        0.0788
      2 O           2.3997    0.0412    0.2785 O.3     1  UNL1       -0.4950
      3 C           3.0419   -0.9986   -0.3344 C.ar    1  UNL1        0.1243
      4 C           4.1904   -1.5073    0.3177 C.ar    1  UNL1        0.0218
      5 C           4.9943   -2.4758   -0.2739 C.ar    1  UNL1        0.1243
      6 O           6.1702   -2.8355    0.3257 O.3     1  UNL1       -0.4950
      7 C           7.0540   -3.6757   -0.4371 C.3     1  UNL1        0.0788
      8 C           4.5506   -2.9916   -1.4629 C.ar    1  UNL1       -0.0061
      9 C           3.4066   -2.4650   -2.1297 C.ar    1  UNL1        0.0630
     10 C           3.1423   -2.9665   -3.4628 C.2     1  UNL1        0.3408
     11 O           4.0514   -3.7645   -3.6869 O.2     1  UNL1       -0.2483
     12 N           2.1189   -2.5234   -4.2851 N.am    1  UNL1        0.0006
     13 C           1.9365   -2.9704   -5.5072 C.2     1  UNL1        0.3842
     14 N           2.6344   -3.9397   -6.1971 N.pl3   1  UNL1       -0.2745
     15 C           3.7659   -4.6802   -5.6968 C.3     1  UNL1        0.0906
     16 C           4.4869   -5.7257   -6.4876 C.3     1  UNL1        0.0891
     17 C           3.7844   -6.0553   -7.7579 C.3     1  UNL1       -0.0215
     18 C           4.0572   -7.5165   -7.9122 C.3     1  UNL1       -0.0270
     19 C           4.1201   -8.0211   -6.4867 C.3     1  UNL1        0.0482
     20 O           4.5821   -6.9318   -5.6982 O.3     1  UNL1       -0.3734
     21 N           0.9386   -2.3990   -6.3134 N.pl3   1  UNL1       -0.2450
     22 C           0.4205   -2.8659   -7.5530 C.ar    1  UNL1        0.1001
     23 C           0.1180   -2.0135   -8.6192 C.ar    1  UNL1       -0.0232
     24 C          -0.2598   -2.5369   -9.8711 C.ar    1  UNL1       -0.0582
     25 C          -0.2799   -3.9171  -10.0905 C.ar    1  UNL1       -0.0581
     26 C          -0.0139   -4.7938   -9.0360 C.ar    1  UNL1       -0.0415
     27 C          -0.0484   -6.3020   -9.2337 C.3     1  UNL1       -0.0214
     28 C           0.9701   -6.7438  -10.2914 C.3     1  UNL1       -0.0586
     29 C           0.1754   -7.0943   -7.9354 C.3     1  UNL1       -0.0586
     30 C           0.2763   -4.2369   -7.7812 C.ar    1  UNL1       -0.0198
     31 C           2.6586   -1.4592   -1.5841 C.ar    1  UNL1       -0.0061
     32 H           0.5912    0.9082    0.6170 H       1  UNL1        0.0660
     33 H           0.5752   -0.8698    0.6381 H       1  UNL1        0.0660
     34 H           0.6442    0.0444   -0.9085 H       1  UNL1        0.0660
     35 H           4.4563   -1.1296    1.2983 H       1  UNL1        0.0691
     36 H           8.0007   -3.7673    0.1047 H       1  UNL1        0.0660
     37 H           7.2891   -3.2541   -1.4246 H       1  UNL1        0.0660
     38 H           6.6380   -4.6847   -0.5417 H       1  UNL1        0.0660
     39 H           5.1176   -3.7996   -1.9240 H       1  UNL1        0.0662
     40 H           2.5095   -3.9476   -7.1964 H       1  UNL1        0.2578
     41 H           3.3860   -5.2242   -4.8221 H       1  UNL1        0.0681
     42 H           4.5496   -3.9290   -5.5623 H       1  UNL1        0.0681
     43 H           5.5233   -5.4098   -6.6519 H       1  UNL1        0.0627
     44 H           4.1004   -5.4068   -8.5764 H       1  UNL1        0.0292
     45 H           2.7204   -5.9051   -7.6303 H       1  UNL1        0.0292
     46 H           5.0277   -7.6375   -8.3981 H       1  UNL1        0.0288
     47 H           3.2881   -8.0217   -8.4960 H       1  UNL1        0.0288
     48 H           4.8133   -8.8571   -6.3720 H       1  UNL1        0.0560
     49 H           3.1387   -8.3223   -6.1037 H       1  UNL1        0.0560
     50 H           0.3620   -1.6947   -5.8695 H       1  UNL1        0.2646
     51 H           0.2141   -0.9363   -8.5177 H       1  UNL1        0.0652
     52 H          -0.5225   -1.8703  -10.6910 H       1  UNL1        0.0619
     53 H          -0.5076   -4.2975  -11.0857 H       1  UNL1        0.0620
     54 H          -1.0549   -6.5566   -9.5872 H       1  UNL1        0.0343
     55 H           1.9893   -6.4562  -10.0133 H       1  UNL1        0.0235
     56 H           0.7635   -6.2916  -11.2674 H       1  UNL1        0.0235
     57 H           0.9463   -7.8304  -10.4235 H       1  UNL1        0.0235
     58 H           1.1589   -6.9104   -7.5119 H       1  UNL1        0.0235
     59 H           0.1118   -8.1718   -8.0897 H       1  UNL1        0.0235
     60 H          -0.5494   -6.8097   -7.1650 H       1  UNL1        0.0235
     61 H           0.4510   -4.8843   -6.9276 H       1  UNL1        0.0655
     62 H           1.8384   -1.0526   -2.1604 H       1  UNL1        0.0662
@<TRIPOS>BOND
     1     1     2    1
     2     2     3    1
     3     3     4   ar
     4     4     5   ar
     5     5     6    1
     6     6     7    1
     7     5     8   ar
     8     8     9   ar
     9     9    10    1
    10    10    11    2
    11    10    12    1
    12    12    13    2
    13    13    14    1
    14    14    15    1
    15    15    16    1
    16    16    17    1
    17    17    18    1
    18    18    19    1
    19    19    20    1
    20    16    20    1
    21    13    21    1
    22    21    22    1
    23    22    23   ar
    24    23    24   ar
    25    24    25   ar
    26    25    26   ar
    27    26    27    1
    28    27    28    1
    29    27    29    1
    30    26    30   ar
    31    22    30   ar
    32     9    31   ar
    33     3    31   ar
    34     1    32    1
    35     1    33    1
    36     1    34    1
    37     4    35    1
    38     7    36    1
    39     7    37    1
    40     7    38    1
    41     8    39    1
    42    14    40    1
    43    15    41    1
    44    15    42    1
    45    16    43    1
    46    17    44    1
    47    17    45    1
    48    18    46    1
    49    18    47    1
    50    19    48    1
    51    19    49    1
    52    21    50    1
    53    23    51    1
    54    24    52    1
    55    25    53    1
    56    27    54    1
    57    28    55    1
    58    28    56    1
    59    28    57    1
    60    29    58    1
    61    29    59    1
    62    29    60    1
    63    30    61    1
    64    31    62    1
