REMARK  7 active torsions:
REMARK  status: ('A' for Active; 'I' for Inactive)
REMARK    1  A    between atoms: O_2  and  C_3 
REMARK    2  A    between atoms: C_7  and  C_6 
REMARK    3  A    between atoms: C_7  and  N_9 
REMARK       I    between atoms: N_9  and  C_10 
REMARK       I    between atoms: C_10  and  N_12 
REMARK    4  A    between atoms: N_12  and  O_13 
REMARK    5  A    between atoms: O_13  and  C_14 
REMARK    6  A    between atoms: C_14  and  C_15 
REMARK    7  A    between atoms: C_22  and  O_23 
ROOT
ATOM      1  N   UNL d   1       4.748  -2.681  -5.527  0.00  0.00    -0.333 N 
ATOM      2  C   UNL d   1       5.365  -3.109  -6.688  0.00  0.00     0.340 C 
ATOM      3  O   UNL d   1       6.499  -3.598  -6.704  0.00  0.00    -0.245 OA
ATOM      4  N   UNL d   1       4.551  -3.049  -7.797  0.00  0.00    -0.216 N 
ATOM      5  H   UNL d   1       3.947  -2.076  -5.607  0.00  0.00     0.165 HD
ATOM      6  H   UNL d   1       3.831  -2.350  -7.898  0.00  0.00     0.199 HD
ENDROOT
BRANCH   1   7
ATOM      7  C   UNL d   1       5.290  -2.934  -4.176  0.00  0.00     0.115 C 
ATOM      8  C   UNL d   1       4.648  -1.967  -3.158  0.00  0.00     0.037 C 
BRANCH   7   9
ATOM      9  C   UNL d   1       5.098  -4.392  -3.728  0.00  0.00    -0.033 A 
ATOM     10  C   UNL d   1       4.632  -4.751  -2.461  0.00  0.00     0.012 A 
ATOM     11  C   UNL d   1       4.501  -6.095  -2.082  0.00  0.00     0.040 A 
ATOM     12  C   UNL d   1       4.767  -7.149  -2.971  0.00  0.00     0.101 A 
ATOM     13  C   UNL d   1       5.216  -6.812  -4.253  0.00  0.00     0.102 A 
ATOM     14  C   UNL d   1       5.412  -5.459  -4.576  0.00  0.00     0.049 A 
BRANCH  12  15
ATOM     15  O   UNL d   1       4.319  -8.361  -2.507  0.00  0.00    -0.353 OA
ATOM     16  C   UNL d   1       5.235  -9.446  -2.412  0.00  0.00     0.210 C 
ENDBRANCH  12  15
BRANCH  13  17
ATOM     17  O   UNL d   1       5.451  -7.556  -5.381  0.00  0.00    -0.353 OA
ATOM     18  C   UNL d   1       5.455  -8.940  -5.212  0.00  0.00     0.210 C 
ENDBRANCH  13  17
ENDBRANCH   7   9
ENDBRANCH   1   7
BRANCH   4  19
ATOM     19  O   UNL d   1       5.105  -3.629  -8.977  0.00  0.00    -0.272 OA
BRANCH  19  20
ATOM     20  C   UNL d   1       4.354  -3.252 -10.133  0.00  0.00     0.240 C 
BRANCH  20  21
ATOM     21  C   UNL d   1       4.856  -3.988 -11.355  0.00  0.00    -0.032 A 
ATOM     22  C   UNL d   1       4.567  -5.349 -11.535  0.00  0.00     0.009 A 
ATOM     23  C   UNL d   1       5.075  -6.047 -12.634  0.00  0.00     0.001 A 
ATOM     24  C   UNL d   1       5.814  -5.378 -13.607  0.00  0.00     0.000 A 
ATOM     25  C   UNL d   1       6.094  -4.022 -13.452  0.00  0.00     0.001 A 
ATOM     26  C   UNL d   1       5.631  -3.334 -12.326  0.00  0.00     0.009 A 
ENDBRANCH  20  21
ENDBRANCH  19  20
ENDBRANCH   4  19
TORSDOF 7
