REMARK  3 active torsions:
REMARK  status: ('A' for Active; 'I' for Inactive)
REMARK       I    between atoms: C_2  and  N_3 
REMARK    1  A    between atoms: C_2  and  C_21 
REMARK    2  A    between atoms: N_3  and  C_4 
REMARK    3  A    between atoms: C_9  and  C_10 
ROOT
ATOM      1  C   UNL d   1       2.349   1.403  -2.090  0.00  0.00     0.049 A 
ATOM      2  C   UNL d   1       2.798   1.255  -3.409  0.00  0.00     0.030 A 
ATOM      3  C   UNL d   1       2.162   1.937  -4.457  0.00  0.00     0.002 A 
ATOM      4  C   UNL d   1       1.058   2.748  -4.204  0.00  0.00     0.001 A 
ATOM      5  C   UNL d   1       0.613   2.917  -2.895  0.00  0.00     0.017 A 
ATOM      6  C   UNL d   1       1.255   2.259  -1.834  0.00  0.00     0.038 A 
ENDROOT
BRANCH   6   7
ATOM      7  C   UNL d   1       0.805   2.518  -0.476  0.00  0.00     0.158 A 
ATOM      8  N   UNL d   1       1.511   2.973   0.538  0.00  0.00    -0.207 NA
ATOM      9  C   UNL d   1       0.689   2.771   1.619  0.00  0.00     0.181 A 
ATOM     10  C   UNL d   1       1.051   3.175   2.960  0.00  0.00     0.013 A 
ATOM     11  N   UNL d   1      -0.524   2.287   1.311  0.00  0.00    -0.152 NA
ATOM     12  C   UNL d   1       0.884   2.307   4.045  0.00  0.00     0.015 A 
ATOM     13  C   UNL d   1       1.456   4.495   3.182  0.00  0.00     0.015 A 
ATOM     14  C   UNL d   1       1.018   2.790   5.348  0.00  0.00     0.001 A 
ATOM     15  C   UNL d   1       1.397   4.116   5.564  0.00  0.00     0.000 A 
ATOM     16  C   UNL d   1       1.626   4.965   4.482  0.00  0.00     0.001 A 
ATOM     17  N   UNL d   1      -0.419   2.124  -0.015  0.00  0.00    -0.258 N 
ATOM     18  H   UNL d   1      -1.158   1.660  -0.527  0.00  0.00     0.191 HD
ENDBRANCH   6   7
BRANCH   1  19
ATOM     19  N   UNL d   1       3.014   0.697  -1.051  0.00  0.00    -0.321 N 
ATOM     20  C   UNL d   1       2.331  -0.039  -0.090  0.00  0.00     0.276 C 
ATOM     21  O   UNL d   1       1.117  -0.269  -0.149  0.00  0.00    -0.266 OA
ATOM     22  H   UNL d   1       4.018   0.569  -1.094  0.00  0.00     0.169 HD
BRANCH  20  23
ATOM     23  C   UNL d   1       3.151  -0.710   0.930  0.00  0.00     0.146 A 
ATOM     24  C   UNL d   1       2.814  -1.960   1.519  0.00  0.00     0.058 A 
ATOM     25  C   UNL d   1       3.836  -2.254   2.383  0.00  0.00     0.112 A 
ATOM     26  N   UNL d   1       4.672  -1.179   2.339  0.00  0.00    -0.289 N 
ATOM     27  N   UNL d   1       4.326  -0.258   1.412  0.00  0.00    -0.170 NA
ATOM     28  H   UNL d   1       5.514  -1.030   2.887  0.00  0.00     0.188 HD
ENDBRANCH  20  23
ENDBRANCH   1  19
TORSDOF 3
