@<TRIPOS>MOLECULE
*****
 52 54 0 0 0
SMALL
GASTEIGER

@<TRIPOS>ATOM
      1 C           2.5037    1.0564    0.0153 C.3     1  UNL1       -0.0397
      2 C           1.1943    0.3154    0.0052 C.ar    1  UNL1       -0.0501
      3 C           1.1611   -1.0818    0.0011 C.ar    1  UNL1       -0.0570
      4 C          -0.0584   -1.7699   -0.0671 C.ar    1  UNL1       -0.0348
      5 C          -1.2693   -1.0652   -0.1445 C.ar    1  UNL1        0.1084
      6 S          -2.8075   -1.9798   -0.3641 S.O2    1  UNL1        0.0612
      7 O          -3.7846   -1.3293    0.5148 O.2     1  UNL1       -0.1528
      8 O          -3.0743   -2.0885   -1.7635 O.2     1  UNL1       -0.1528
      9 N          -2.5587   -3.4614    0.3850 N.3     1  UNL1       -0.1736
     10 C          -2.8105   -3.3893    1.8280 C.3     1  UNL1        0.0363
     11 C          -4.1229   -4.1296    2.0008 C.3     1  UNL1        0.0291
     12 N          -3.8142   -5.5517    1.8792 N.am    1  UNL1       -0.2983
     13 C          -3.8570   -6.2765    3.0666 C.2     1  UNL1        0.2259
     14 O          -4.2123   -5.7070    4.1054 O.2     1  UNL1       -0.2747
     15 C          -3.4568   -7.7580    3.0695 C.3     1  UNL1        0.0777
     16 S          -3.8019   -8.4922    4.7178 S.3     1  UNL1       -0.0784
     17 C          -3.2247  -10.1190    4.5883 C.ar    1  UNL1        0.1712
     18 N          -1.9886  -10.4067    4.3658 N.ar    1  UNL1       -0.2088
     19 C          -1.6307  -11.7351    4.3816 C.ar    1  UNL1        0.1241
     20 N          -0.3206  -12.0465    4.1824 N.pl3   1  UNL1       -0.3429
     21 C          -2.5221  -12.7195    4.5842 C.ar    1  UNL1        0.0424
     22 C          -3.9311  -12.3708    4.7986 C.ar    1  UNL1        0.2539
     23 O          -4.7904  -13.2327    4.9365 O.2     1  UNL1       -0.2677
     24 N          -4.1970  -11.0390    4.8194 N.ar    1  UNL1       -0.3019
     25 C          -3.2549   -5.9090    0.5424 C.3     1  UNL1        0.0291
     26 C          -2.1648   -4.8573    0.0091 C.3     1  UNL1        0.0363
     27 C          -1.2644    0.3443   -0.0658 C.ar    1  UNL1       -0.0239
     28 C          -2.5036    1.1999   -0.0607 C.3     1  UNL1       -0.0378
     29 C          -0.0203    1.0159   -0.0083 C.ar    1  UNL1       -0.0541
     30 H           3.3557    0.3671    0.0070 H       1  UNL1        0.0278
     31 H           2.5884    1.6786    0.9120 H       1  UNL1        0.0278
     32 H           2.5905    1.6933   -0.8721 H       1  UNL1        0.0278
     33 H           2.0921   -1.6455    0.0307 H       1  UNL1        0.0621
     34 H          -0.0390   -2.8547   -0.0723 H       1  UNL1        0.0637
     35 H          -2.8870   -2.3751    2.2142 H       1  UNL1        0.0459
     36 H          -1.9436   -3.8236    2.3328 H       1  UNL1        0.0459
     37 H          -4.8527   -3.8950    1.2099 H       1  UNL1        0.0478
     38 H          -4.5688   -3.8381    2.9501 H       1  UNL1        0.0478
     39 H          -2.3929   -7.8298    2.8311 H       1  UNL1        0.0475
     40 H          -4.0593   -8.2800    2.3237 H       1  UNL1        0.0475
     41 H           0.3165  -11.2691    4.0703 H       1  UNL1        0.1437
     42 H           0.0114  -12.9998    4.1554 H       1  UNL1        0.1437
     43 H          -2.2669  -13.7707    4.6001 H       1  UNL1        0.0706
     44 H          -5.1428  -10.7459    5.0064 H       1  UNL1        0.1708
     45 H          -4.1024   -5.8907   -0.1540 H       1  UNL1        0.0478
     46 H          -2.8607   -6.9308    0.5651 H       1  UNL1        0.0478
     47 H          -1.9200   -5.0451   -1.0410 H       1  UNL1        0.0459
     48 H          -1.2457   -5.0749    0.5764 H       1  UNL1        0.0459
     49 H          -3.4397    0.6558   -0.0961 H       1  UNL1        0.0278
     50 H          -2.5235    1.8399   -0.9448 H       1  UNL1        0.0278
     51 H          -2.5430    1.8029    0.8531 H       1  UNL1        0.0278
     52 H          -0.0010    2.1068    0.0084 H       1  UNL1        0.0623
@<TRIPOS>BOND
     1     1     2    1
     2     2     3   ar
     3     3     4   ar
     4     4     5   ar
     5     5     6    1
     6     6     7    2
     7     6     8    2
     8     6     9    1
     9     9    10    1
    10    10    11    1
    11    11    12    1
    12    12    13   am
    13    13    14    2
    14    13    15    1
    15    15    16    1
    16    16    17    1
    17    17    18   ar
    18    18    19   ar
    19    19    20    1
    20    19    21   ar
    21    21    22   ar
    22    22    23    2
    23    22    24   ar
    24    17    24   ar
    25    12    25    1
    26    25    26    1
    27     9    26    1
    28     5    27   ar
    29    27    28    1
    30    27    29   ar
    31     2    29   ar
    32     1    30    1
    33     1    31    1
    34     1    32    1
    35     3    33    1
    36     4    34    1
    37    10    35    1
    38    10    36    1
    39    11    37    1
    40    11    38    1
    41    15    39    1
    42    15    40    1
    43    20    41    1
    44    20    42    1
    45    21    43    1
    46    24    44    1
    47    25    45    1
    48    25    46    1
    49    26    47    1
    50    26    48    1
    51    28    49    1
    52    28    50    1
    53    28    51    1
    54    29    52    1
