REMARK  6 active torsions:
REMARK  status: ('A' for Active; 'I' for Inactive)
REMARK    1  A    between atoms: C_2  and  C_4 
REMARK    2  A    between atoms: C_4  and  N_5 
REMARK       I    between atoms: N_5  and  C_6 
REMARK    3  A    between atoms: C_6  and  C_8 
REMARK    4  A    between atoms: C_8  and  N_9 
REMARK       I    between atoms: N_9  and  C_10 
REMARK       I    between atoms: C_10  and  N_12 
REMARK    5  A    between atoms: N_12  and  N_13 
REMARK    6  A    between atoms: N_13  and  C_14 
ROOT
ATOM      1  C   UNL d   1      10.894  -4.061  -6.066  0.00  0.00     0.049 A 
ATOM      2  C   UNL d   1      10.391  -3.959  -7.371  0.00  0.00     0.031 A 
ATOM      3  C   UNL d   1      10.808  -4.827  -8.393  0.00  0.00     0.004 A 
ATOM      4  C   UNL d   1      11.745  -5.825  -8.132  0.00  0.00     0.023 A 
ATOM      5  C   UNL d   1      12.302  -5.922  -6.856  0.00  0.00     0.046 A 
ATOM      6  C   UNL d   1      13.331  -6.902  -6.616  0.00  0.00     0.099 C 
ATOM      7  N   UNL d   1      14.167  -7.685  -6.454  0.00  0.00    -0.191 NA
ATOM      8  C   UNL d   1      11.871  -5.050  -5.829  0.00  0.00     0.053 A 
ENDROOT
BRANCH   1   9
ATOM      9  N   UNL d   1      10.451  -3.182  -5.050  0.00  0.00    -0.297 N 
ATOM     10  H   UNL d   1      11.063  -3.021  -4.247  0.00  0.00     0.187 HD
BRANCH   9  11
ATOM     11  N   UNL d   1       9.051  -3.127  -4.733  0.00  0.00    -0.251 N 
ATOM     12  C   UNL d   1       8.658  -2.417  -3.592  0.00  0.00     0.335 C 
ATOM     13  N   UNL d   1       7.293  -2.305  -3.400  0.00  0.00    -0.333 N 
ATOM     14  O   UNL d   1       9.467  -1.920  -2.810  0.00  0.00    -0.246 OA
ATOM     15  H   UNL d   1       6.633  -2.718  -4.046  0.00  0.00     0.164 HD
ATOM     16  H   UNL d   1       8.408  -3.588  -5.362  0.00  0.00     0.191 HD
BRANCH  13  17
ATOM     17  C   UNL d   1       6.699  -1.561  -2.262  0.00  0.00     0.227 C 
BRANCH  17  18
ATOM     18  C   UNL d   1       5.143  -1.564  -2.279  0.00  0.00     0.235 C 
ATOM     19  N   UNL d   1       4.496  -0.879  -1.258  0.00  0.00    -0.359 N 
ATOM     20  H   UNL d   1       5.031  -0.408  -0.538  0.00  0.00     0.162 HD
ATOM     21  O   UNL d   1       4.519  -2.152  -3.163  0.00  0.00    -0.272 OA
BRANCH  19  22
ATOM     22  C   UNL d   1       3.031  -0.845  -1.171  0.00  0.00     0.126 C 
BRANCH  22  23
ATOM     23  C   UNL d   1       2.488  -0.073   0.047  0.00  0.00    -0.005 C 
ATOM     24  C   UNL d   1       0.953  -0.054   0.040  0.00  0.00     0.011 C 
ATOM     25  C   UNL d   1       2.969  -0.705   1.352  0.00  0.00     0.011 C 
ENDBRANCH  22  23
ENDBRANCH  19  22
ENDBRANCH  17  18
ENDBRANCH  13  17
ENDBRANCH   9  11
ENDBRANCH   1   9
TORSDOF 6
