REMARK  12 active torsions:
REMARK  status: ('A' for Active; 'I' for Inactive)
REMARK    1  A    between atoms: C_2  and  O_3 
REMARK    2  A    between atoms: O_3  and  C_4 
REMARK    3  A    between atoms: C_4  and  C_6 
REMARK    4  A    between atoms: C_6  and  S_17 
REMARK    5  A    between atoms: N_7  and  N_8 
REMARK    6  A    between atoms: N_8  and  C_9 
REMARK    7  A    between atoms: C_12  and  O_13 
REMARK    8  A    between atoms: S_17  and  C_18 
REMARK    9  A    between atoms: C_21  and  C_22 
REMARK   10  A    between atoms: C_22  and  C_23 
REMARK   11  A    between atoms: C_23  and  C_24 
REMARK   12  A    between atoms: N_30  and  C_31 
ROOT
ATOM      1  C   UNL d   1       6.795   3.148   4.030  0.00  0.00     0.202 A 
ATOM      2  N   UNL d   1       6.787   4.460   4.132  0.00  0.00    -0.122 NA
ATOM      3  N   UNL d   1       7.055   4.798   5.448  0.00  0.00    -0.134 NA
ATOM      4  C   UNL d   1       7.262   3.689   6.142  0.00  0.00     0.136 A 
ATOM      5  N   UNL d   1       7.106   2.600   5.262  0.00  0.00    -0.275 N 
ENDROOT
BRANCH   1   6
ATOM      6  S   UNL d   1       6.606   2.212   2.547  0.00  0.00    -0.022 SA
BRANCH   6   7
ATOM      7  C   UNL d   1       4.879   1.940   2.466  0.00  0.00     0.196 C 
ATOM      8  N   UNL d   1       4.048   2.495   3.288  0.00  0.00    -0.161 NA
BRANCH   7   9
ATOM      9  C   UNL d   1       4.562   0.950   1.272  0.00  0.00     0.321 C 
ATOM     10  O   UNL d   1       5.382   0.380   0.591  0.00  0.00    -0.257 OA
BRANCH   9  11
ATOM     11  O   UNL d   1       3.200   0.822   1.102  0.00  0.00    -0.316 OA
BRANCH  11  12
ATOM     12  C   UNL d   1       2.704  -0.030   0.037  0.00  0.00     0.175 C 
ATOM     13  C   UNL d   1       1.171  -0.036   0.034  0.00  0.00     0.034 C 
ENDBRANCH  11  12
ENDBRANCH   9  11
ENDBRANCH   7   9
BRANCH   8  14
ATOM     14  N   UNL d   1       2.749   2.144   3.200  0.00  0.00    -0.277 N 
ATOM     15  H   UNL d   1       2.382   1.690   2.357  0.00  0.00     0.189 HD
BRANCH  14  16
ATOM     16  C   UNL d   1       1.784   2.916   3.855  0.00  0.00     0.050 A 
ATOM     17  C   UNL d   1       0.581   2.299   4.207  0.00  0.00     0.034 A 
ATOM     18  C   UNL d   1      -0.428   3.022   4.841  0.00  0.00     0.039 A 
ATOM     19  C   UNL d   1      -0.222   4.357   5.194  0.00  0.00     0.068 A 
ATOM     20  C   UNL d   1       0.979   4.976   4.845  0.00  0.00     0.039 A 
ATOM     21  C   UNL d   1       1.980   4.256   4.188  0.00  0.00     0.034 A 
BRANCH  19  22
ATOM     22  O   UNL d   1      -1.245   4.945   5.886  0.00  0.00    -0.356 OA
ATOM     23  C   UNL d   1      -0.998   6.264   6.364  0.00  0.00     0.210 C 
ENDBRANCH  19  22
ENDBRANCH  14  16
ENDBRANCH   8  14
ENDBRANCH   6   7
ENDBRANCH   1   6
BRANCH   5  24
ATOM     24  C   UNL d   1       7.343   1.235   5.534  0.00  0.00     0.043 C 
ATOM     25  C   UNL d   1       6.524   0.584   6.460  0.00  0.00     0.030 C 
ATOM     26  C   UNL d   1       7.023  -0.539   7.125  0.00  0.00     0.002 C 
ATOM     27  C   UNL d   1       8.242  -1.100   6.745  0.00  0.00     0.000 C 
ATOM     28  C   UNL d   1       8.986  -0.521   5.715  0.00  0.00     0.002 C 
ATOM     29  C   UNL d   1       8.556   0.668   5.122  0.00  0.00     0.030 C 
ENDBRANCH   5  24
BRANCH   4  30
ATOM     30  C   UNL d   1       7.649   3.686   7.620  0.00  0.00     0.085 C 
BRANCH  30  31
ATOM     31  C   UNL d   1       8.005   2.316   8.182  0.00  0.00     0.046 C 
BRANCH  31  32
ATOM     32  C   UNL d   1       8.292   2.030   9.613  0.00  0.00    -0.058 A 
ATOM     33  C   UNL d   1       8.309   0.693  10.069  0.00  0.00     0.007 A 
ATOM     34  C   UNL d   1       8.248   0.421  11.426  0.00  0.00     0.001 A 
ATOM     35  C   UNL d   1       8.305   1.482  12.321  0.00  0.00     0.000 A 
ATOM     36  C   UNL d   1       8.351   2.801  11.864  0.00  0.00     0.001 A 
ATOM     37  C   UNL d   1       8.329   3.076  10.512  0.00  0.00     0.007 A 
ENDBRANCH  31  32
ENDBRANCH  30  31
ENDBRANCH   4  30
TORSDOF 12
