@<TRIPOS>MOLECULE
*****
 53 55 0 0 0
SMALL
GASTEIGER

@<TRIPOS>ATOM
      1 C           1.0823    0.0542    0.0025 C.3     1  UNL1        0.0788
      2 O           2.5015    0.1283    0.0957 O.3     1  UNL1       -0.4951
      3 C           3.1506   -1.0340    0.4062 C.ar    1  UNL1        0.1201
      4 C           4.3305   -0.9039    1.1389 C.ar    1  UNL1       -0.0194
      5 C           5.1449   -2.0223    1.3951 C.ar    1  UNL1       -0.0511
      6 C           4.7560   -3.3083    0.9824 C.ar    1  UNL1       -0.0246
      7 C           5.5521   -4.5021    1.3647 C.2     1  UNL1       -0.0497
      8 C           5.2396   -5.7882    1.0909 C.2     1  UNL1        0.0010
      9 C           6.0907   -6.9112    1.6028 C.2     1  UNL1        0.2411
     10 O           7.0712   -6.6718    2.3007 O.2     1  UNL1       -0.2705
     11 N           5.7038   -8.1811    1.1839 N.am    1  UNL1       -0.2820
     12 C           6.3554   -9.3758    1.6063 C.ar    1  UNL1        0.0338
     13 C           6.4805  -10.4705    0.7435 C.ar    1  UNL1       -0.0386
     14 C           7.0877  -11.6692    1.1893 C.ar    1  UNL1       -0.0333
     15 C           7.6027  -11.7772    2.4971 C.ar    1  UNL1        0.1087
     16 S           8.5263  -13.2743    2.9373 S.O2    1  UNL1        0.0735
     17 O           7.5483  -14.3354    2.9579 O.2     1  UNL1       -0.1499
     18 O           9.6528  -13.2896    2.0192 O.2     1  UNL1       -0.1499
     19 N           9.1131  -13.0811    4.5031 N.pl3   1  UNL1       -0.1994
     20 C           9.8028  -14.1641    5.1224 C.ar    1  UNL1        0.1415
     21 C           9.4838  -14.5513    6.4094 C.ar    1  UNL1        0.0007
     22 C          10.2232  -15.5916    6.9462 C.ar    1  UNL1        0.0436
     23 C           9.9167  -16.1462    8.3090 C.3     1  UNL1       -0.0222
     24 N          11.2338  -16.1706    6.2692 N.ar    1  UNL1       -0.2374
     25 C          11.4947  -15.6994    5.0336 C.ar    1  UNL1        0.1284
     26 C          12.6176  -16.3405    4.2723 C.3     1  UNL1       -0.0045
     27 N          10.8133  -14.7035    4.4332 N.ar    1  UNL1       -0.2164
     28 C           7.4494  -10.6986    3.3633 C.ar    1  UNL1       -0.0333
     29 C           6.8406   -9.5112    2.9120 C.ar    1  UNL1       -0.0386
     30 C           3.5737   -3.4122    0.2393 C.ar    1  UNL1       -0.0511
     31 C           2.7795   -2.2936   -0.0473 C.ar    1  UNL1       -0.0194
     32 H           0.7215    1.0241   -0.3559 H       1  UNL1        0.0660
     33 H           0.6547   -0.1214    0.9940 H       1  UNL1        0.0660
     34 H           0.7290   -0.6956   -0.7113 H       1  UNL1        0.0660
     35 H           4.6158    0.0754    1.5191 H       1  UNL1        0.0654
     36 H           6.0867   -1.8605    1.9174 H       1  UNL1        0.0625
     37 H           6.4433   -4.2897    1.9584 H       1  UNL1        0.0625
     38 H           4.3575   -6.0567    0.5294 H       1  UNL1        0.0670
     39 H           4.9910   -8.2746    0.4707 H       1  UNL1        0.1551
     40 H           6.1889  -10.3891   -0.3027 H       1  UNL1        0.0637
     41 H           7.1707  -12.5111    0.5011 H       1  UNL1        0.0638
     42 H           8.8169  -12.3107    5.0824 H       1  UNL1        0.1752
     43 H           8.6834  -14.0925    6.9714 H       1  UNL1        0.0670
     44 H           9.0916  -15.6075    8.7855 H       1  UNL1        0.0293
     45 H          10.7924  -16.0689    8.9619 H       1  UNL1        0.0293
     46 H           9.6290  -17.2007    8.2332 H       1  UNL1        0.0293
     47 H          13.0625  -17.1641    4.8417 H       1  UNL1        0.0308
     48 H          13.4041  -15.6093    4.0621 H       1  UNL1        0.0308
     49 H          12.2465  -16.7446    3.3258 H       1  UNL1        0.0308
     50 H           7.7843  -10.7250    4.3901 H       1  UNL1        0.0638
     51 H           6.7285   -8.6893    3.6155 H       1  UNL1        0.0637
     52 H           3.2426   -4.3665   -0.1537 H       1  UNL1        0.0625
     53 H           1.8928   -2.4464   -0.6510 H       1  UNL1        0.0654
@<TRIPOS>BOND
     1     1     2    1
     2     2     3    1
     3     3     4   ar
     4     4     5   ar
     5     5     6   ar
     6     6     7    1
     7     7     8    2
     8     8     9    1
     9     9    10    2
    10     9    11   am
    11    11    12    1
    12    12    13   ar
    13    13    14   ar
    14    14    15   ar
    15    15    16    1
    16    16    17    2
    17    16    18    2
    18    16    19    1
    19    19    20    1
    20    20    21   ar
    21    21    22   ar
    22    22    23    1
    23    22    24   ar
    24    24    25   ar
    25    25    26    1
    26    25    27   ar
    27    20    27   ar
    28    15    28   ar
    29    28    29   ar
    30    12    29   ar
    31     6    30   ar
    32    30    31   ar
    33     3    31   ar
    34     1    32    1
    35     1    33    1
    36     1    34    1
    37     4    35    1
    38     5    36    1
    39     7    37    1
    40     8    38    1
    41    11    39    1
    42    13    40    1
    43    14    41    1
    44    19    42    1
    45    21    43    1
    46    23    44    1
    47    23    45    1
    48    23    46    1
    49    26    47    1
    50    26    48    1
    51    26    49    1
    52    28    50    1
    53    29    51    1
    54    30    52    1
    55    31    53    1
