@<TRIPOS>MOLECULE
*****
 79 80 0 0 0
SMALL
GASTEIGER

@<TRIPOS>ATOM
      1 C           1.9068    2.9096    0.1266 C.3     1  UNL1        0.0379
      2 O           3.0915    3.1800    0.8341 O.3     1  UNL1       -0.3659
      3 C           4.1990    2.3885    0.3168 C.3     1  UNL1        0.1591
      4 C           4.3945    2.8318   -1.1976 C.2     1  UNL1        0.2503
      5 O           5.4483    3.5011   -1.3656 O.2     1  UNL1       -0.2723
      6 N           3.5648    2.5075   -2.3114 N.am    1  UNL1       -0.2782
      7 C           2.9046    1.1231   -2.4731 C.3     1  UNL1        0.1347
      8 C           1.3535    0.8147   -1.7494 C.2     1  UNL1        0.2388
      9 O           0.4280    1.6635   -1.9506 O.2     1  UNL1       -0.2734
     10 N           1.1229   -0.2230   -0.8037 N.am    1  UNL1       -0.3085
     11 C           0.7076   -0.1289    0.8576 C.3     1  UNL1        0.0295
     12 C           1.5506    0.6817    2.0142 C.3     1  UNL1       -0.0440
     13 C          -0.6274    0.5678    0.7258 C.3     1  UNL1       -0.0440
     14 C           0.6610   -1.5850    1.5378 C.3     1  UNL1       -0.0272
     15 C           0.0897   -1.7604    2.9920 C.3     1  UNL1       -0.0358
     16 C           0.9058   -1.1200    4.1518 C.3     1  UNL1       -0.0600
     17 C          -1.3466   -1.2743    3.0007 C.3     1  UNL1       -0.0600
     18 C           0.1086   -3.2599    3.3312 C.3     1  UNL1       -0.0600
     19 C           3.9730   -0.0035   -2.5530 C.ar    1  UNL1        0.0648
     20 C           5.3216    0.0334   -2.0978 C.ar    1  UNL1        0.1292
     21 O           6.1076    1.1021   -1.8003 O.3     1  UNL1       -0.5062
     22 C           6.1298   -1.0850   -2.0045 C.ar    1  UNL1        0.0219
     23 C           5.7255   -2.2424   -2.5989 C.ar    1  UNL1        0.1238
     24 O           6.5667   -3.3081   -2.5861 O.3     1  UNL1       -0.5065
     25 C           4.4995   -2.2962   -3.2427 C.ar    1  UNL1        0.0219
     26 C           3.6233   -1.2010   -3.1830 C.ar    1  UNL1        0.1292
     27 O           2.3980   -1.2861   -3.7835 O.3     1  UNL1       -0.5062
     28 C           3.8393    3.2982   -3.6012 C.3     1  UNL1        0.0302
     29 C           4.0376    4.8149   -3.3024 C.3     1  UNL1       -0.0440
     30 C           5.0871    2.7508   -4.3256 C.3     1  UNL1       -0.0440
     31 C           2.6618    3.2755   -4.6199 C.3     1  UNL1       -0.0440
     32 C           4.4300    0.8493    0.6998 C.ar    1  UNL1       -0.0101
     33 C           5.5304    0.1575    1.1595 C.ar    1  UNL1       -0.0556
     34 C           5.5573   -1.3017    1.2515 C.ar    1  UNL1       -0.0614
     35 C           4.4771   -2.1262    0.9635 C.ar    1  UNL1       -0.0617
     36 C           3.4665   -1.4940    0.3645 C.ar    1  UNL1       -0.0614
     37 C           3.5199   -0.0837    0.2914 C.ar    1  UNL1       -0.0556
     38 H           0.9452    3.1959    0.5525 H       1  UNL1        0.0524
     39 H           1.8597    1.8620    0.1952 H       1  UNL1        0.0524
     40 H           1.9534    3.1024   -0.9292 H       1  UNL1        0.0524
     41 H           5.0356    2.8640    0.8499 H       1  UNL1        0.0744
     42 H           2.5285    1.1385   -3.5003 H       1  UNL1        0.0650
     43 H           1.6136   -1.0548   -1.1123 H       1  UNL1        0.1493
     44 H           1.9014    1.6988    1.9541 H       1  UNL1        0.0250
     45 H           2.4188    0.1390    2.4255 H       1  UNL1        0.0250
     46 H           0.8716    0.9077    2.8263 H       1  UNL1        0.0250
     47 H          -0.5216    1.4951    0.1682 H       1  UNL1        0.0250
     48 H          -1.0323    0.9127    1.6649 H       1  UNL1        0.0250
     49 H          -1.3192   -0.0779    0.1837 H       1  UNL1        0.0250
     50 H           1.6674   -1.9834    1.6859 H       1  UNL1        0.0291
     51 H           0.1964   -2.2916    0.8385 H       1  UNL1        0.0291
     52 H           0.8019   -0.0451    4.2613 H       1  UNL1        0.0235
     53 H           1.9756   -1.3573    4.0745 H       1  UNL1        0.0235
     54 H           0.5491   -1.4566    5.1277 H       1  UNL1        0.0235
     55 H          -1.3817   -0.1912    3.0287 H       1  UNL1        0.0235
     56 H          -1.8899   -1.5792    3.8910 H       1  UNL1        0.0235
     57 H          -1.8698   -1.6376    2.1073 H       1  UNL1        0.0235
     58 H           1.1375   -3.6348    3.4051 H       1  UNL1        0.0235
     59 H          -0.4210   -3.8475    2.5793 H       1  UNL1        0.0235
     60 H          -0.3716   -3.4226    4.3027 H       1  UNL1        0.0235
     61 H           5.9234    1.4727   -0.9296 H       1  UNL1        0.2922
     62 H           7.0761   -0.9922   -1.4777 H       1  UNL1        0.0691
     63 H           7.3750   -3.0222   -2.1188 H       1  UNL1        0.2921
     64 H           4.2376   -3.1995   -3.7757 H       1  UNL1        0.0691
     65 H           2.3945   -2.0682   -4.3634 H       1  UNL1        0.2922
     66 H           4.8946    5.0417   -2.6692 H       1  UNL1        0.0250
     67 H           3.1546    5.2238   -2.7995 H       1  UNL1        0.0250
     68 H           4.2205    5.3899   -4.2168 H       1  UNL1        0.0250
     69 H           5.9722    2.7661   -3.6858 H       1  UNL1        0.0250
     70 H           5.3290    3.3387   -5.2181 H       1  UNL1        0.0250
     71 H           4.9333    1.7162   -4.6515 H       1  UNL1        0.0250
     72 H           1.7409    3.6575   -4.1670 H       1  UNL1        0.0250
     73 H           2.4549    2.2849   -5.0329 H       1  UNL1        0.0250
     74 H           2.8868    3.9031   -5.4939 H       1  UNL1        0.0250
     75 H           6.4511    0.6914    1.3428 H       1  UNL1        0.0621
     76 H           6.4895   -1.8188    1.4230 H       1  UNL1        0.0618
     77 H           4.4203   -3.2064    1.0693 H       1  UNL1        0.0618
     78 H           2.6374   -2.0878   -0.0222 H       1  UNL1        0.0618
     79 H           2.7574    0.4266   -0.1753 H       1  UNL1        0.0621
@<TRIPOS>BOND
     1     1     2    1
     2     4     5    2
     3     4     6   am
     4     8     9    2
     5     8    10   am
     6    10    11    1
     7    11    12    1
     8    11    13    1
     9    11    14    1
    10    14    15    1
    11    15    16    1
    12    15    17    1
    13    15    18    1
    14     7    19    1
    15    19    20   ar
    16    20    21    1
    17    20    22   ar
    18    22    23   ar
    19    23    24    1
    20    23    25   ar
    21    25    26   ar
    22    19    26   ar
    23    26    27    1
    24     6    28    1
    25    28    29    1
    26    28    30    1
    27    28    31    1
    28     3    32    1
    29    32    33   ar
    30    33    34   ar
    31    34    35   ar
    32    35    36   ar
    33    36    37   ar
    34    32    37   ar
    35     3     4    1
    36     3     2    1
    37     7     8    1
    38     7     6    1
    39     1    38    1
    40     1    39    1
    41     1    40    1
    42     3    41    1
    43     7    42    1
    44    10    43    1
    45    12    44    1
    46    12    45    1
    47    12    46    1
    48    13    47    1
    49    13    48    1
    50    13    49    1
    51    14    50    1
    52    14    51    1
    53    16    52    1
    54    16    53    1
    55    16    54    1
    56    17    55    1
    57    17    56    1
    58    17    57    1
    59    18    58    1
    60    18    59    1
    61    18    60    1
    62    21    61    1
    63    22    62    1
    64    24    63    1
    65    25    64    1
    66    27    65    1
    67    29    66    1
    68    29    67    1
    69    29    68    1
    70    30    69    1
    71    30    70    1
    72    30    71    1
    73    31    72    1
    74    31    73    1
    75    31    74    1
    76    33    75    1
    77    34    76    1
    78    35    77    1
    79    36    78    1
    80    37    79    1
