REMARK  6 active torsions:
REMARK  status: ('A' for Active; 'I' for Inactive)
REMARK    1  A    between atoms: C_2  and  C_4 
REMARK    2  A    between atoms: C_4  and  C_5 
REMARK    3  A    between atoms: C_5  and  C_6 
REMARK       I    between atoms: C_6  and  N_8 
REMARK    4  A    between atoms: N_8  and  N_9 
REMARK       I    between atoms: N_9  and  C_10 
REMARK    5  A    between atoms: C_10  and  C_12 
REMARK    6  A    between atoms: C_17  and  N_18 
ROOT
ATOM      1  N   UNL d   1       7.111  -3.543  -2.707  0.00  0.00    -0.263 N 
ATOM      2  C   UNL d   1       8.483  -3.747  -2.796  0.00  0.00     0.270 C 
ATOM      3  O   UNL d   1       9.305  -3.066  -2.182  0.00  0.00    -0.266 OA
ATOM      4  H   UNL d   1       6.411  -4.146  -3.139  0.00  0.00     0.190 HD
ENDROOT
BRANCH   2   5
ATOM      5  C   UNL d   1       8.965  -4.835  -3.719  0.00  0.00     0.036 A 
ATOM      6  C   UNL d   1       8.338  -5.020  -4.953  0.00  0.00     0.019 A 
ATOM      7  C   UNL d   1       8.832  -5.958  -5.869  0.00  0.00     0.027 A 
ATOM      8  C   UNL d   1       9.961  -6.742  -5.585  0.00  0.00     0.067 A 
ATOM      9 CL   UNL d   1      10.403  -7.848  -6.840  0.00  0.00    -0.082 Cl
ATOM     10  C   UNL d   1      10.614  -6.565  -4.357  0.00  0.00     0.125 A 
ATOM     11  C   UNL d   1      10.114  -5.605  -3.427  0.00  0.00     0.054 A 
BRANCH  10  12
ATOM     12  N   UNL d   1      11.827  -7.330  -3.995  0.00  0.00    -0.114 N 
ATOM     13  O   UNL d   1      12.329  -7.104  -2.885  0.00  0.00    -0.532 OA
ATOM     14  O   UNL d   1      12.292  -8.154  -4.792  0.00  0.00    -0.532 OA
ENDBRANCH  10  12
ENDBRANCH   2   5
BRANCH   1  15
ATOM     15  N   UNL d   1       6.584  -2.497  -1.896  0.00  0.00    -0.267 N 
ATOM     16  C   UNL d   1       5.205  -2.360  -1.805  0.00  0.00     0.236 C 
ATOM     17  O   UNL d   1       4.441  -3.123  -2.398  0.00  0.00    -0.272 OA
ATOM     18  H   UNL d   1       7.255  -1.895  -1.421  0.00  0.00     0.190 HD
BRANCH  16  19
ATOM     19  C   UNL d   1       4.715  -1.215  -0.916  0.00  0.00     0.105 C 
BRANCH  19  20
ATOM     20  C   UNL d   1       3.176  -1.143  -0.846  0.00  0.00     0.013 C 
BRANCH  20  21
ATOM     21  C   UNL d   1       2.634  -0.010   0.051  0.00  0.00    -0.022 C 
ATOM     22  C   UNL d   1       1.100   0.005   0.029  0.00  0.00     0.009 C 
ATOM     23  C   UNL d   1       3.109  -0.160   1.496  0.00  0.00     0.009 C 
ENDBRANCH  20  21
ENDBRANCH  19  20
ENDBRANCH  16  19
ENDBRANCH   1  15
TORSDOF 6
