REMARK  7 active torsions:
REMARK  status: ('A' for Active; 'I' for Inactive)
REMARK    1  A    between atoms: C_2  and  C_4 
REMARK    2  A    between atoms: C_4  and  C_5 
REMARK    3  A    between atoms: C_5  and  C_6 
REMARK       I    between atoms: C_6  and  N_8 
REMARK    4  A    between atoms: N_8  and  N_9 
REMARK    5  A    between atoms: N_9  and  C_10 
REMARK    6  A    between atoms: C_10  and  C_11 
REMARK    7  A    between atoms: C_10  and  C_14 
REMARK       I    between atoms: C_11  and  N_12 
ROOT
ATOM      1  C   UNL d   1       8.518  -2.937  -3.362  0.00  0.00     0.201 C 
ENDROOT
BRANCH   1   2
ATOM      2  N   UNL d   1       7.043  -2.878  -3.319  0.00  0.00    -0.220 NA
ATOM      3  H   UNL d   1       6.680  -2.661  -4.252  0.00  0.00     0.147 HD
BRANCH   2   4
ATOM      4  N   UNL d   1       6.517  -1.914  -2.428  0.00  0.00    -0.290 N 
ATOM      5  C   UNL d   1       5.135  -1.879  -2.279  0.00  0.00     0.231 C 
ATOM      6  O   UNL d   1       4.354  -2.517  -2.990  0.00  0.00    -0.272 OA
ATOM      7  H   UNL d   1       7.108  -1.576  -1.663  0.00  0.00     0.183 HD
BRANCH   5   8
ATOM      8  C   UNL d   1       4.676  -0.954  -1.174  0.00  0.00     0.104 C 
BRANCH   8   9
ATOM      9  C   UNL d   1       3.147  -0.909  -1.099  0.00  0.00     0.013 C 
BRANCH   9  10
ATOM     10  C   UNL d   1       2.615   0.031  -0.008  0.00  0.00    -0.022 C 
ATOM     11  C   UNL d   1       1.085   0.046  -0.032  0.00  0.00     0.009 C 
ATOM     12  C   UNL d   1       3.098  -0.394   1.378  0.00  0.00     0.009 C 
ENDBRANCH   9  10
ENDBRANCH   8   9
ENDBRANCH   5   8
ENDBRANCH   2   4
ENDBRANCH   1   2
BRANCH   1  13
ATOM     13  C   UNL d   1       9.070  -3.365  -1.961  0.00  0.00     0.239 C 
ATOM     14  N   UNL d   1       9.889  -4.459  -1.874  0.00  0.00    -0.368 N 
ATOM     15  H   UNL d   1      10.131  -5.038  -2.669  0.00  0.00     0.159 HD
ATOM     16  H   UNL d   1      10.182  -4.775  -0.961  0.00  0.00     0.159 HD
ATOM     17  O   UNL d   1       8.803  -2.737  -0.932  0.00  0.00    -0.272 OA
ENDBRANCH   1  13
BRANCH   1  18
ATOM     18  C   UNL d   1       8.941  -3.882  -4.477  0.00  0.00    -0.030 A 
ATOM     19  C   UNL d   1       8.487  -5.215  -4.466  0.00  0.00     0.009 A 
ATOM     20  C   UNL d   1       8.983  -6.140  -5.375  0.00  0.00     0.001 A 
ATOM     21  C   UNL d   1       9.846  -5.718  -6.382  0.00  0.00     0.000 A 
ATOM     22  C   UNL d   1      10.266  -4.388  -6.438  0.00  0.00     0.001 A 
ATOM     23  C   UNL d   1       9.832  -3.473  -5.478  0.00  0.00     0.009 A 
ENDBRANCH   1  18
TORSDOF 7
