REMARK  11 active torsions:
REMARK  status: ('A' for Active; 'I' for Inactive)
REMARK       I    between atoms: C_2  and  N_3 
REMARK       I    between atoms: C_2  and  N_23 
REMARK    1  A    between atoms: N_3  and  C_4 
REMARK    2  A    between atoms: C_4  and  C_5 
REMARK    3  A    between atoms: C_5  and  C_6 
REMARK    4  A    between atoms: C_6  and  C_7 
REMARK    5  A    between atoms: C_7  and  C_8 
REMARK    6  A    between atoms: C_8  and  C_9 
REMARK    7  A    between atoms: C_9  and  N_10 
REMARK       I    between atoms: N_10  and  C_11 
REMARK       I    between atoms: C_11  and  N_13 
REMARK    8  A    between atoms: N_13  and  C_14 
REMARK    9  A    between atoms: C_18  and  N_19 
REMARK   10  A    between atoms: N_23  and  C_24 
REMARK   11  A    between atoms: C_28  and  N_29 
ROOT
ATOM      1  C   UNL d   1       2.559   3.591   3.479  0.00  0.00     0.002 C 
ENDROOT
BRANCH   1   2
ATOM      2  C   UNL d   1       3.293   2.642   2.531  0.00  0.00     0.020 C 
BRANCH   2   3
ATOM      3  C   UNL d   1       2.302   1.819   1.706  0.00  0.00     0.124 C 
BRANCH   3   4
ATOM      4  N   UNL d   1       2.985   0.916   0.808  0.00  0.00    -0.343 N 
ATOM      5  C   UNL d   1       2.331   0.065  -0.037  0.00  0.00     0.320 C 
ATOM      6  O   UNL d   1       1.101  -0.022  -0.089  0.00  0.00    -0.247 OA
ATOM      7  N   UNL d   1       3.108  -0.660  -0.905  0.00  0.00    -0.309 N 
ATOM      8  H   UNL d   1       2.573  -1.142  -1.619  0.00  0.00     0.170 HD
ATOM      9  H   UNL d   1       3.968   1.076   0.658  0.00  0.00     0.164 HD
BRANCH   7  10
ATOM     10  C   UNL d   1       4.502  -0.824  -0.908  0.00  0.00     0.038 A 
ATOM     11  C   UNL d   1       5.191  -0.957  -2.117  0.00  0.00     0.030 A 
ATOM     12  C   UNL d   1       6.583  -1.121  -2.115  0.00  0.00     0.005 A 
ATOM     13  C   UNL d   1       7.292  -1.124  -0.911  0.00  0.00     0.036 A 
ATOM     14  C   UNL d   1       6.589  -1.033   0.293  0.00  0.00     0.105 A 
ATOM     15  C   UNL d   1       5.201  -0.905   0.294  0.00  0.00     0.065 A 
BRANCH  14  16
ATOM     16  N   UNL d   1       7.286  -1.102   1.579  0.00  0.00    -0.116 N 
ATOM     17  O   UNL d   1       8.515  -1.238   1.562  0.00  0.00    -0.532 OA
ATOM     18  O   UNL d   1       6.599  -1.015   2.609  0.00  0.00    -0.532 OA
ENDBRANCH  14  16
ENDBRANCH   7  10
ENDBRANCH   3   4
ENDBRANCH   2   3
ENDBRANCH   1   2
BRANCH   1  19
ATOM     19  C   UNL d   1       3.530   4.428   4.316  0.00  0.00     0.002 C 
BRANCH  19  20
ATOM     20  C   UNL d   1       2.773   5.374   5.261  0.00  0.00     0.020 C 
BRANCH  20  21
ATOM     21  C   UNL d   1       3.728   6.215   6.104  0.00  0.00     0.124 C 
BRANCH  21  22
ATOM     22  N   UNL d   1       3.059   7.119   7.036  0.00  0.00    -0.343 N 
ATOM     23  C   UNL d   1       3.833   7.919   7.848  0.00  0.00     0.320 C 
ATOM     24  O   UNL d   1       5.060   7.869   7.792  0.00  0.00    -0.247 OA
ATOM     25  N   UNL d   1       3.127   8.732   8.720  0.00  0.00    -0.309 N 
ATOM     26  H   UNL d   1       2.142   8.567   8.863  0.00  0.00     0.170 HD
ATOM     27  H   UNL d   1       2.053   7.175   7.049  0.00  0.00     0.164 HD
BRANCH  25  28
ATOM     28  C   UNL d   1       3.762   9.715   9.528  0.00  0.00     0.038 A 
ATOM     29  C   UNL d   1       3.270  10.062  10.794  0.00  0.00     0.030 A 
ATOM     30  C   UNL d   1       3.847  11.122  11.520  0.00  0.00     0.005 A 
ATOM     31  C   UNL d   1       4.935  11.828  10.999  0.00  0.00     0.036 A 
ATOM     32  C   UNL d   1       5.426  11.476   9.739  0.00  0.00     0.105 A 
ATOM     33  C   UNL d   1       4.854  10.423   9.018  0.00  0.00     0.065 A 
BRANCH  32  34
ATOM     34  N   UNL d   1       6.496  12.262   9.116  0.00  0.00    -0.116 N 
ATOM     35  O   UNL d   1       6.966  13.209   9.761  0.00  0.00    -0.532 OA
ATOM     36  O   UNL d   1       6.849  11.954   7.967  0.00  0.00    -0.532 OA
ENDBRANCH  32  34
ENDBRANCH  25  28
ENDBRANCH  21  22
ENDBRANCH  20  21
ENDBRANCH  19  20
ENDBRANCH   1  19
TORSDOF 11
