REMARK  9 active torsions:
REMARK  status: ('A' for Active; 'I' for Inactive)
REMARK    1  A    between atoms: O_2  and  C_3 
REMARK    2  A    between atoms: C_3  and  C_5 
REMARK    3  A    between atoms: C_9  and  C_10 
REMARK       I    between atoms: C_10  and  N_12 
REMARK    4  A    between atoms: N_12  and  C_13 
REMARK    5  A    between atoms: C_13  and  N_15 
REMARK    6  A    between atoms: N_15  and  N_16 
REMARK       I    between atoms: N_16  and  C_17 
REMARK    7  A    between atoms: C_17  and  C_19 
REMARK    8  A    between atoms: C_19  and  O_20 
REMARK    9  A    between atoms: O_20  and  C_21 
ROOT
ATOM      1  N   UNL d   1       6.557   3.967  -3.924  0.00  0.00    -0.273 N 
ATOM      2  H   UNL d   1       5.544   3.873  -3.990  0.00  0.00     0.189 HD
ENDROOT
BRANCH   1   3
ATOM      3  C   UNL d   1       7.396   3.403  -2.943  0.00  0.00     0.193 C 
ATOM      4  S   UNL d   1       9.057   3.692  -3.026  0.00  0.00    -0.039 SA
BRANCH   3   5
ATOM      5  N   UNL d   1       6.763   2.619  -1.948  0.00  0.00    -0.298 N 
ATOM      6  C   UNL d   1       7.420   1.953  -0.876  0.00  0.00     0.257 C 
ATOM      7  O   UNL d   1       8.632   1.998  -0.678  0.00  0.00    -0.267 OA
ATOM      8  H   UNL d   1       5.760   2.530  -2.002  0.00  0.00     0.171 HD
BRANCH   6   9
ATOM      9  C   UNL d   1       6.659   1.143   0.133  0.00  0.00     0.033 A 
ATOM     10  C   UNL d   1       7.383   0.562   1.203  0.00  0.00     0.017 A 
ATOM     11  C   UNL d   1       6.725  -0.113   2.234  0.00  0.00     0.002 A 
ATOM     12  C   UNL d   1       5.346  -0.316   2.154  0.00  0.00     0.017 A 
ATOM     13  C   UNL d   1       4.610   0.266   1.110  0.00  0.00     0.040 A 
ATOM     14  C   UNL d   1       5.271   0.985   0.101  0.00  0.00     0.034 A 
BRANCH  13  15
ATOM     15  C   UNL d   1       3.121   0.277   1.183  0.00  0.00     0.292 C 
ATOM     16  O   UNL d   1       2.523   0.465   2.230  0.00  0.00    -0.259 OA
BRANCH  15  17
ATOM     17  O   UNL d   1       2.550   0.086  -0.037  0.00  0.00    -0.323 OA
ATOM     18  C   UNL d   1       1.109   0.082  -0.024  0.00  0.00     0.213 C 
ENDBRANCH  15  17
ENDBRANCH  13  15
ENDBRANCH   6   9
ENDBRANCH   3   5
ENDBRANCH   1   3
BRANCH   1  19
ATOM     19  N   UNL d   1       7.149   4.802  -4.978  0.00  0.00    -0.266 N 
ATOM     20  C   UNL d   1       6.355   5.401  -5.955  0.00  0.00     0.260 C 
ATOM     21  O   UNL d   1       5.138   5.215  -5.979  0.00  0.00    -0.269 OA
ATOM     22  H   UNL d   1       8.166   4.900  -4.936  0.00  0.00     0.190 HD
BRANCH  20  23
ATOM     23  C   UNL d   1       7.111   6.268  -7.011  0.00  0.00     0.280 C 
BRANCH  23  24
ATOM     24  O   UNL d   1       6.245   6.794  -8.016  0.00  0.00    -0.341 OA
BRANCH  24  25
ATOM     25  C   UNL d   1       6.837   7.484  -9.064  0.00  0.00     0.080 C 
ATOM     26  C   UNL d   1       6.119   8.677  -9.412  0.00  0.00     0.037 C 
ATOM     27  C   UNL d   1       6.505   9.428 -10.516  0.00  0.00     0.004 C 
ATOM     28  C   UNL d   1       7.629   9.028 -11.219  0.00  0.00     0.012 C 
ATOM     29  C   UNL d   1       8.303   7.824 -10.917  0.00  0.00    -0.026 C 
ATOM     30  C   UNL d   1       9.259   7.352 -11.802  0.00  0.00    -0.005 C 
ATOM     31  C   UNL d   1       8.042   7.029  -9.816  0.00  0.00     0.007 C 
ATOM     32  C   UNL d   1       9.799   6.048 -11.714  0.00  0.00     0.043 C 
ATOM     33  C   UNL d   1      10.243   5.572 -10.508  0.00  0.00    -0.016 C 
ATOM     34  C   UNL d   1       9.111   5.899  -9.722  0.00  0.00     0.012 C 
ENDBRANCH  24  25
ENDBRANCH  23  24
ENDBRANCH  20  23
ENDBRANCH   1  19
TORSDOF 9
