@<TRIPOS>MOLECULE
*****
 36 37 0 0 0
SMALL
GASTEIGER

@<TRIPOS>ATOM
      1 C           3.3858   -0.6544    1.1746 C.3     1  UNL1       -0.0190
      2 C           2.6054   -0.0469    0.0328 C.3     1  UNL1        0.1741
      3 O           1.1534   -0.1188    0.1653 O.3     1  UNL1       -0.4798
      4 C           0.4526   -0.4423    1.3013 C.ar    1  UNL1        0.1217
      5 C           0.9775   -0.8416    2.5294 C.ar    1  UNL1       -0.0187
      6 C           0.2356   -1.0864    3.6698 C.ar    1  UNL1       -0.0409
      7 C          -1.1313   -0.9937    3.6124 C.ar    1  UNL1        0.0520
      8 C          -1.8512   -1.1950    4.8233 C.1     1  UNL1        0.0992
      9 N          -2.3568   -1.3438    5.8642 N.1     1  UNL1       -0.1909
     10 C          -1.7306   -0.6947    2.3848 C.ar    1  UNL1       -0.0409
     11 C          -0.9461   -0.4099    1.2380 C.ar    1  UNL1       -0.0187
     12 C           3.1095   -0.7392   -1.2742 C.2     1  UNL1        0.2695
     13 O           2.3435   -1.1778   -2.1332 O.2     1  UNL1       -0.2702
     14 N           4.5072   -0.8467   -1.4046 N.am    1  UNL1       -0.2334
     15 N           5.0168   -1.4539   -2.5561 N.pl3   1  UNL1       -0.2616
     16 C           6.3995   -1.5868   -2.7743 C.ar    1  UNL1        0.0826
     17 C           7.2898   -1.9555   -1.7526 C.ar    1  UNL1       -0.0337
     18 C           8.6620   -2.1275   -2.0089 C.ar    1  UNL1       -0.0216
     19 C           9.1639   -1.9108   -3.2876 C.ar    1  UNL1        0.1614
     20 F          10.4690   -2.1043   -3.5274 F       1  UNL1       -0.2024
     21 C           8.3172   -1.5018   -4.3039 C.ar    1  UNL1        0.1952
     22 F           8.8114   -1.2683   -5.5293 F       1  UNL1       -0.1994
     23 C           6.9540   -1.3369   -4.0483 C.ar    1  UNL1        0.1834
     24 F           6.1599   -0.9162   -5.0462 F       1  UNL1       -0.2004
     25 H           4.4635   -0.7328    1.0849 H       1  UNL1        0.0270
     26 H           3.0237   -1.6842    1.3082 H       1  UNL1        0.0270
     27 H           3.2503   -0.0002    2.0426 H       1  UNL1        0.0270
     28 H           2.8693    1.0189   -0.0367 H       1  UNL1        0.0829
     29 H           1.9978   -1.0482    2.7612 H       1  UNL1        0.0654
     30 H           0.7801   -1.3514    4.5745 H       1  UNL1        0.0631
     31 H          -2.8149   -0.6743    2.3179 H       1  UNL1        0.0631
     32 H          -1.4555   -0.1765    0.3028 H       1  UNL1        0.0654
     33 H           5.1685   -0.3960   -0.7818 H       1  UNL1        0.1728
     34 H           4.3492   -1.7039   -3.2896 H       1  UNL1        0.1701
     35 H           6.9152   -2.1851   -0.7588 H       1  UNL1        0.0638
     36 H           9.3410   -2.4464   -1.2222 H       1  UNL1        0.0648
@<TRIPOS>BOND
     1     3     4    1
     2     4     5   ar
     3     5     6   ar
     4     6     7   ar
     5     7     8    1
     6     8     9    3
     7     7    10   ar
     8    10    11   ar
     9     4    11   ar
    10     2    12    1
    11    12    13    2
    12    12    14   am
    13    14    15    1
    14    15    16    1
    15    16    17   ar
    16    17    18   ar
    17    18    19   ar
    18    19    20    1
    19    19    21   ar
    20    21    22    1
    21    21    23   ar
    22    16    23   ar
    23    23    24    1
    24     2     3    1
    25     2     1    1
    26     1    25    1
    27     1    26    1
    28     1    27    1
    29     2    28    1
    30     5    29    1
    31     6    30    1
    32    10    31    1
    33    11    32    1
    34    14    33    1
    35    15    34    1
    36    17    35    1
    37    18    36    1
