@<TRIPOS>MOLECULE
*****
 82 85 0 0 0
SMALL
GASTEIGER

@<TRIPOS>ATOM
      1 C          10.0255   -5.9864    1.9221 C.3     1  UNL1       -0.0245
      2 C           9.3276   -4.7638    1.3850 C.3     1  UNL1       -0.0348
      3 N           9.5727   -4.5490   -0.0772 N.4     1  UNL1        0.2349
      4 C           8.9523   -5.6910   -0.8841 C.3     1  UNL1       -0.0348
      5 C           9.7121   -7.0180   -0.8048 C.3     1  UNL1       -0.0245
      6 C           9.0044   -3.1404   -0.4170 C.3     1  UNL1       -0.0305
      7 C           9.4387   -2.7493   -1.7881 C.3     1  UNL1        0.0033
      8 C           8.8862   -1.5317   -2.4491 C.3     1  UNL1        0.0209
      9 N           9.1737   -1.4192   -3.8969 N.am    1  UNL1       -0.2806
     10 C          10.2422   -2.1192   -4.5739 C.2     1  UNL1        0.2638
     11 O          10.8967   -1.6392   -5.4697 O.2     1  UNL1       -0.2684
     12 C          10.6033   -3.4831   -4.1921 C.ar    1  UNL1        0.1025
     13 C           9.8672   -4.6255   -3.9405 C.ar    1  UNL1       -0.0313
     14 C          10.7557   -5.5589   -3.3874 C.ar    1  UNL1       -0.0357
     15 C          12.0329   -5.0903   -3.5059 C.ar    1  UNL1        0.0470
     16 C          13.2255   -5.8812   -3.3025 C.ar    1  UNL1       -0.0017
     17 C          14.3767   -5.3710   -2.7190 C.ar    1  UNL1       -0.0526
     18 C          15.5290   -6.1544   -2.7187 C.ar    1  UNL1       -0.0611
     19 C          15.4960   -7.4709   -3.1921 C.ar    1  UNL1       -0.0617
     20 C          14.3168   -8.0140   -3.6852 C.ar    1  UNL1       -0.0611
     21 C          13.1858   -7.2190   -3.7372 C.ar    1  UNL1       -0.0526
     22 N          11.9308   -3.8913   -4.1648 N.ar    1  UNL1       -0.3506
     23 C           8.5235   -0.2047   -4.5467 C.3     1  UNL1        0.1277
     24 C           6.9739   -0.1599   -4.2542 C.2     1  UNL1        0.2383
     25 O           6.1506   -0.4543   -5.1213 O.2     1  UNL1       -0.2734
     26 N           6.5506    0.1655   -2.9641 N.am    1  UNL1       -0.3106
     27 C           5.1229    0.1617   -2.6246 C.3     1  UNL1        0.0232
     28 C           4.8894    0.4888   -1.1367 C.3     1  UNL1       -0.0345
     29 C           3.4011    0.6385   -0.8022 C.3     1  UNL1       -0.0514
     30 C           2.7152    1.6478   -1.7176 C.3     1  UNL1       -0.0529
     31 C           2.9077    1.2673   -3.1740 C.3     1  UNL1       -0.0514
     32 C           4.3798    1.1632   -3.5143 C.3     1  UNL1       -0.0345
     33 C           8.6984   -0.1205   -6.0614 C.ar    1  UNL1       -0.0180
     34 C           8.6506   -1.2924   -6.8384 C.ar    1  UNL1       -0.0529
     35 C           9.1438   -1.2955   -8.1337 C.ar    1  UNL1       -0.0199
     36 C           9.4097   -0.0854   -8.7510 C.ar    1  UNL1        0.1169
     37 O           9.7818   -0.0448  -10.0607 O.3     1  UNL1       -0.5068
     38 C           9.2831    1.1134   -8.0566 C.ar    1  UNL1       -0.0199
     39 C           8.9520    1.1001   -6.6997 C.ar    1  UNL1       -0.0529
     40 H           9.9408   -6.0220    3.0058 H       1  UNL1        0.0281
     41 H          11.0765   -6.0277    1.6193 H       1  UNL1        0.0281
     42 H           9.5229   -6.8971    1.6160 H       1  UNL1        0.0281
     43 H           9.6883   -3.8733    1.9032 H       1  UNL1        0.0812
     44 H           8.2414   -4.8432    1.4884 H       1  UNL1        0.0812
     45 H          10.5881   -4.5182   -0.2811 H       1  UNL1        0.2033
     46 H           8.9430   -5.3739   -1.9052 H       1  UNL1        0.0812
     47 H           7.8978   -5.7749   -0.6225 H       1  UNL1        0.0812
     48 H          10.7992   -6.8854   -0.7187 H       1  UNL1        0.0281
     49 H           9.5056   -7.6382   -1.6832 H       1  UNL1        0.0281
     50 H           9.3615   -7.6646   -0.0058 H       1  UNL1        0.0281
     51 H           9.3915   -2.4218    0.3092 H       1  UNL1        0.0815
     52 H           7.9158   -3.2205   -0.3597 H       1  UNL1        0.0815
     53 H           8.9234   -3.4879   -2.3679 H       1  UNL1        0.0332
     54 H          10.5277   -2.7611   -1.8654 H       1  UNL1        0.0332
     55 H           9.1901   -0.6117   -1.9352 H       1  UNL1        0.0467
     56 H           7.8049   -1.6475   -2.3604 H       1  UNL1        0.0467
     57 H           8.7856   -4.7223   -3.9574 H       1  UNL1        0.0640
     58 H          10.5587   -6.5250   -2.9648 H       1  UNL1        0.0639
     59 H          14.3929   -4.3787   -2.2785 H       1  UNL1        0.0624
     60 H          16.4686   -5.7304   -2.3763 H       1  UNL1        0.0618
     61 H          16.3971   -8.0765   -3.1812 H       1  UNL1        0.0618
     62 H          14.2796   -9.0300   -4.0681 H       1  UNL1        0.0618
     63 H          12.2719   -7.6414   -4.1533 H       1  UNL1        0.0624
     64 H          12.6867   -3.3632   -4.5813 H       1  UNL1        0.1660
     65 H           8.9848    0.6800   -4.0810 H       1  UNL1        0.0648
     66 H           7.2098    0.4065   -2.2391 H       1  UNL1        0.1490
     67 H           4.7487   -0.8545   -2.8173 H       1  UNL1        0.0498
     68 H           5.4051    1.4234   -0.8818 H       1  UNL1        0.0283
     69 H           5.3263   -0.2893   -0.4977 H       1  UNL1        0.0283
     70 H           3.2819    0.9547    0.2402 H       1  UNL1        0.0266
     71 H           2.9040   -0.3347   -0.9004 H       1  UNL1        0.0266
     72 H           3.1309    2.6477   -1.5422 H       1  UNL1        0.0265
     73 H           1.6449    1.6964   -1.4933 H       1  UNL1        0.0265
     74 H           2.4451    2.0130   -3.8282 H       1  UNL1        0.0266
     75 H           2.4191    0.3063   -3.3774 H       1  UNL1        0.0266
     76 H           4.8651    2.1431   -3.4269 H       1  UNL1        0.0283
     77 H           4.4409    0.8819   -4.5674 H       1  UNL1        0.0283
     78 H           8.3825   -2.2407   -6.3807 H       1  UNL1        0.0622
     79 H           9.3654   -2.2462   -8.6059 H       1  UNL1        0.0654
     80 H           9.6947   -0.9428  -10.4229 H       1  UNL1        0.2921
     81 H           9.4800    2.0524   -8.5639 H       1  UNL1        0.0654
     82 H           8.9034    2.0401   -6.1561 H       1  UNL1        0.0622
@<TRIPOS>UNITY_ATOM_ATTR
3 1
charge 1
@<TRIPOS>BOND
     1     1     2    1
     2     2     3    1
     3     3     4    1
     4     4     5    1
     5     3     6    1
     6     6     7    1
     7     7     8    1
     8     8     9    1
     9     9    10   am
    10    10    11    2
    11    10    12    1
    12    12    13   ar
    13    13    14   ar
    14    14    15   ar
    15    15    16    1
    16    16    17   ar
    17    17    18   ar
    18    18    19   ar
    19    19    20   ar
    20    20    21   ar
    21    16    21   ar
    22    15    22   ar
    23    12    22   ar
    24    24    25    2
    25    24    26   am
    26    26    27    1
    27    27    28    1
    28    28    29    1
    29    29    30    1
    30    30    31    1
    31    31    32    1
    32    27    32    1
    33    23    33    1
    34    33    34   ar
    35    34    35   ar
    36    35    36   ar
    37    36    37    1
    38    36    38   ar
    39    38    39   ar
    40    33    39   ar
    41    23    24    1
    42    23     9    1
    43     1    40    1
    44     1    41    1
    45     1    42    1
    46     2    43    1
    47     2    44    1
    48     3    45    1
    49     4    46    1
    50     4    47    1
    51     5    48    1
    52     5    49    1
    53     5    50    1
    54     6    51    1
    55     6    52    1
    56     7    53    1
    57     7    54    1
    58     8    55    1
    59     8    56    1
    60    13    57    1
    61    14    58    1
    62    17    59    1
    63    18    60    1
    64    19    61    1
    65    20    62    1
    66    21    63    1
    67    22    64    1
    68    23    65    1
    69    26    66    1
    70    27    67    1
    71    28    68    1
    72    28    69    1
    73    29    70    1
    74    29    71    1
    75    30    72    1
    76    30    73    1
    77    31    74    1
    78    31    75    1
    79    32    76    1
    80    32    77    1
    81    34    78    1
    82    35    79    1
    83    37    80    1
    84    38    81    1
    85    39    82    1
