REMARK  4 active torsions:
REMARK  status: ('A' for Active; 'I' for Inactive)
REMARK    1  A    between atoms: C_3  and  C_4 
REMARK    2  A    between atoms: C_5  and  C_6 
REMARK       I    between atoms: C_6  and  N_8 
REMARK    3  A    between atoms: N_8  and  N_9 
REMARK       I    between atoms: N_9  and  C_10 
REMARK    4  A    between atoms: C_10  and  C_12 
ROOT
ATOM      1  N   UNL d   1       9.068   3.410   1.161  0.00  0.00    -0.263 N 
ATOM      2  C   UNL d   1       9.732   4.553   1.599  0.00  0.00     0.270 C 
ATOM      3  O   UNL d   1       9.140   5.559   1.994  0.00  0.00    -0.266 OA
ATOM      4  H   UNL d   1       9.542   2.535   0.941  0.00  0.00     0.190 HD
ENDROOT
BRANCH   1   5
ATOM      5  N   UNL d   1       7.633   3.350   1.190  0.00  0.00    -0.264 N 
ATOM      6  C   UNL d   1       6.994   2.175   0.808  0.00  0.00     0.259 C 
ATOM      7  O   UNL d   1       7.618   1.168   0.475  0.00  0.00    -0.267 OA
ATOM      8  H   UNL d   1       7.156   4.204   1.473  0.00  0.00     0.190 HD
BRANCH   6   9
ATOM      9  C   UNL d   1       5.486   2.205   0.822  0.00  0.00     0.075 C 
ATOM     10  C   UNL d   1       4.753   1.126   0.468  0.00  0.00     0.005 C 
BRANCH  10  11
ATOM     11  C   UNL d   1       3.294   1.077   0.452  0.00  0.00    -0.004 C 
ATOM     12  C   UNL d   1       2.573  -0.004   0.097  0.00  0.00    -0.031 C 
ATOM     13  C   UNL d   1       1.070  -0.036   0.087  0.00  0.00     0.036 C 
ENDBRANCH  10  11
ENDBRANCH   6   9
ENDBRANCH   1   5
BRANCH   2  14
ATOM     14  C   UNL d   1      11.237   4.531   1.598  0.00  0.00     0.033 A 
ATOM     15  C   UNL d   1      11.963   3.996   0.524  0.00  0.00     0.019 A 
ATOM     16  C   UNL d   1      13.369   4.009   0.536  0.00  0.00     0.025 A 
ATOM     17  C   UNL d   1      14.059   4.555   1.618  0.00  0.00     0.034 A 
ATOM     18 CL   UNL d   1      15.781   4.531   1.641  0.00  0.00    -0.084 Cl
ATOM     19  C   UNL d   1      13.354   5.119   2.678  0.00  0.00     0.025 A 
ATOM     20  C   UNL d   1      11.948   5.117   2.662  0.00  0.00     0.019 A 
ENDBRANCH   2  14
TORSDOF 4
