@<TRIPOS>MOLECULE
*****
 50 51 0 0 0
SMALL
GASTEIGER

@<TRIPOS>ATOM
      1 C           1.0444   -0.0258    0.0774 C.3     1  UNL1       -0.0648
      2 C           2.5689   -0.0326    0.0697 C.3     1  UNL1       -0.0476
      3 C           3.1757   -0.9803   -0.9796 C.3     1  UNL1        0.0251
      4 C           4.7178   -0.9553   -0.9516 C.2     1  UNL1        0.2290
      5 O           5.3636   -0.2544   -0.1736 O.2     1  UNL1       -0.2743
      6 N           5.3425   -1.7833   -1.8699 N.am    1  UNL1       -0.2351
      7 N           6.7935   -1.8668   -1.9490 N.am    1  UNL1       -0.2455
      8 C           7.3806   -2.7272   -2.8937 C.2     1  UNL1        0.1533
      9 S           6.3846   -3.6358   -3.9121 S.2     1  UNL1       -0.0170
     10 N           8.7978   -2.7603   -2.8965 N.am    1  UNL1       -0.2627
     11 C           9.6094   -3.5149   -3.7698 C.2     1  UNL1        0.2496
     12 O           9.1888   -4.2712   -4.6507 O.2     1  UNL1       -0.2698
     13 C          11.0972   -3.4175   -3.7251 C.ar    1  UNL1        0.0383
     14 C          11.8617   -3.5023   -2.5678 C.ar    1  UNL1       -0.0461
     15 C          13.2726   -3.5168   -2.6643 C.ar    1  UNL1       -0.0181
     16 C          13.9504   -3.4626   -3.9073 C.ar    1  UNL1        0.1344
     17 O          15.3230   -3.4641   -3.7671 O.3     1  UNL1       -0.4905
     18 C          16.0933   -3.3916   -4.9652 C.3     1  UNL1        0.0936
     19 C          17.5925   -3.3763   -4.7173 C.3     1  UNL1        0.0066
     20 C          18.3475   -3.2866   -6.0262 C.ar    1  UNL1       -0.0442
     21 C          18.7826   -4.4428   -6.6877 C.ar    1  UNL1       -0.0585
     22 C          19.5955   -4.3423   -7.8188 C.ar    1  UNL1       -0.0615
     23 C          19.8933   -3.0919   -8.3579 C.ar    1  UNL1       -0.0617
     24 C          19.3972   -1.9390   -7.7537 C.ar    1  UNL1       -0.0615
     25 C          18.6284   -2.0354   -6.5930 C.ar    1  UNL1       -0.0585
     26 C          13.1642   -3.4235   -5.0714 C.ar    1  UNL1        0.0602
     27 BR         13.7340   -3.3859   -6.8979 Br      1  UNL1       -0.0465
     28 C          11.7637   -3.4121   -4.9617 C.ar    1  UNL1       -0.0321
     29 H           0.6722    0.6659    0.8432 H       1  UNL1        0.0230
     30 H           0.6429   -1.0183    0.3039 H       1  UNL1        0.0230
     31 H           0.6428    0.3002   -0.8870 H       1  UNL1        0.0230
     32 H           2.9210   -0.3156    1.0690 H       1  UNL1        0.0267
     33 H           2.9210    0.9902   -0.1103 H       1  UNL1        0.0267
     34 H           2.8243   -0.6867   -1.9766 H       1  UNL1        0.0359
     35 H           2.8243   -2.0019   -0.7887 H       1  UNL1        0.0359
     36 H           4.8300   -2.3755   -2.5242 H       1  UNL1        0.1728
     37 H           7.2860   -1.2635   -1.2919 H       1  UNL1        0.1718
     38 H           9.2806   -2.1350   -2.2655 H       1  UNL1        0.1569
     39 H          11.3897   -3.6207   -1.5974 H       1  UNL1        0.0626
     40 H          13.8565   -3.5894   -1.7448 H       1  UNL1        0.0655
     41 H          15.8481   -2.4590   -5.4840 H       1  UNL1        0.0700
     42 H          15.8865   -4.2812   -5.5676 H       1  UNL1        0.0700
     43 H          17.8982   -4.2720   -4.1645 H       1  UNL1        0.0346
     44 H          17.8627   -2.5279   -4.0776 H       1  UNL1        0.0346
     45 H          18.5087   -5.4288   -6.3186 H       1  UNL1        0.0620
     46 H          20.0133   -5.2391   -8.2693 H       1  UNL1        0.0618
     47 H          20.5095   -3.0169   -9.2500 H       1  UNL1        0.0618
     48 H          19.6304   -0.9628   -8.1706 H       1  UNL1        0.0618
     49 H          18.2590   -1.1259   -6.1250 H       1  UNL1        0.0620
     50 H          11.1727   -3.4272   -5.8787 H       1  UNL1        0.0637
@<TRIPOS>BOND
     1     1     2    1
     2     2     3    1
     3     3     4    1
     4     4     5    2
     5     4     6   am
     6     6     7    1
     7     7     8    1
     8     8     9    2
     9     8    10    1
    10    10    11   am
    11    11    12    2
    12    11    13    1
    13    13    14   ar
    14    14    15   ar
    15    15    16   ar
    16    16    17    1
    17    17    18    1
    18    18    19    1
    19    19    20    1
    20    20    21   ar
    21    21    22   ar
    22    22    23   ar
    23    23    24   ar
    24    24    25   ar
    25    20    25   ar
    26    16    26   ar
    27    26    27    1
    28    26    28   ar
    29    13    28   ar
    30     1    29    1
    31     1    30    1
    32     1    31    1
    33     2    32    1
    34     2    33    1
    35     3    34    1
    36     3    35    1
    37     6    36    1
    38     7    37    1
    39    10    38    1
    40    14    39    1
    41    15    40    1
    42    18    41    1
    43    18    42    1
    44    19    43    1
    45    19    44    1
    46    21    45    1
    47    22    46    1
    48    23    47    1
    49    24    48    1
    50    25    49    1
    51    28    50    1
