@<TRIPOS>MOLECULE
*****
 48 49 0 0 0
SMALL
GASTEIGER

@<TRIPOS>ATOM
      1 C           0.9497   -0.0747    0.0406 C.3     1  UNL1       -0.0495
      2 C           2.4689   -0.0991    0.0465 C.3     1  UNL1        0.0091
      3 N           3.0088   -1.4383    0.2221 N.am    1  UNL1       -0.3116
      4 C           4.3720   -1.6516    0.3192 C.2     1  UNL1        0.2441
      5 O           5.2035   -0.7433    0.2647 O.2     1  UNL1       -0.2702
      6 C           4.8399   -3.0596    0.4728 C.ar    1  UNL1        0.0368
      7 C           5.9538   -3.3796    1.2648 C.ar    1  UNL1       -0.0479
      8 C           6.4860   -4.6968    1.2817 C.ar    1  UNL1       -0.0397
      9 C           5.8735   -5.7274    0.5485 C.ar    1  UNL1        0.0348
     10 N           6.3299   -7.0893    0.6374 N.am    1  UNL1       -0.2695
     11 C           5.7109   -8.1642    0.0117 C.2     1  UNL1        0.3039
     12 O           4.7327   -8.0975   -0.7293 O.2     1  UNL1       -0.2525
     13 N           6.2541   -9.4069    0.2610 N.am    1  UNL1       -0.2977
     14 C           5.6445  -10.5717   -0.4082 C.3     1  UNL1        0.0285
     15 C           6.2990  -11.9222   -0.0839 C.3     1  UNL1        0.0247
     16 N           5.7473  -13.0275   -0.8672 N.pl3   1  UNL1       -0.3423
     17 C           6.0726  -14.3532   -0.6190 C.ar    1  UNL1        0.0276
     18 C           6.1342  -15.2550   -1.6934 C.ar    1  UNL1       -0.0344
     19 C           6.4487  -16.6083   -1.5001 C.ar    1  UNL1        0.0173
     20 C           6.7707  -17.0612   -0.2179 C.ar    1  UNL1        0.2733
     21 N           7.2294  -18.4426   -0.0190 N.pl3   1  UNL1        0.0796
     22 O           7.2962  -19.1783   -1.0141 O.2     1  UNL1        0.0414
     23 O           7.5460  -18.7855    1.1297 O.co2   1  UNL1       -0.5760
     24 C           6.7164  -16.1843    0.8684 C.ar    1  UNL1        0.0173
     25 C           6.3762  -14.8412    0.6577 C.ar    1  UNL1       -0.0344
     26 C           4.7814   -5.3645   -0.2501 C.ar    1  UNL1       -0.0397
     27 C           4.2613   -4.0651   -0.2882 C.ar    1  UNL1       -0.0479
     28 H           0.5811    0.9484   -0.0940 H       1  UNL1        0.0245
     29 H           0.5469   -0.4579    0.9838 H       1  UNL1        0.0245
     30 H           0.5474   -0.6894   -0.7711 H       1  UNL1        0.0245
     31 H           2.8500    0.5354    0.8543 H       1  UNL1        0.0459
     32 H           2.8529    0.3024   -0.8984 H       1  UNL1        0.0459
     33 H           2.3673   -2.2117    0.3463 H       1  UNL1        0.1490
     34 H           6.4134   -2.5972    1.8691 H       1  UNL1        0.0626
     35 H           7.3891   -4.8717    1.8636 H       1  UNL1        0.0636
     36 H           7.1040   -7.2737    1.2603 H       1  UNL1        0.1564
     37 H           7.0432   -9.5283    0.8770 H       1  UNL1        0.1503
     38 H           5.6761  -10.3902   -1.4907 H       1  UNL1        0.0478
     39 H           4.5811  -10.6025   -0.1316 H       1  UNL1        0.0478
     40 H           6.1970  -12.0977    0.9907 H       1  UNL1        0.0476
     41 H           7.3669  -11.8558   -0.3166 H       1  UNL1        0.0476
     42 H           4.9116  -12.8679   -1.4254 H       1  UNL1        0.1461
     43 H           5.9813  -14.8955   -2.7098 H       1  UNL1        0.0638
     44 H           6.4519  -17.2822   -2.3543 H       1  UNL1        0.0686
     45 H           6.9335  -16.5216    1.8796 H       1  UNL1        0.0686
     46 H           6.3280  -14.1891    1.5241 H       1  UNL1        0.0638
     47 H           4.2939   -6.0737   -0.9055 H       1  UNL1        0.0636
     48 H           3.4316   -3.8636   -0.9581 H       1  UNL1        0.0626
@<TRIPOS>UNITY_ATOM_ATTR
21 1
charge 1
23 1
charge -1
@<TRIPOS>BOND
     1     1     2    1
     2     2     3    1
     3     3     4   am
     4     4     5    2
     5     4     6    1
     6     6     7   ar
     7     7     8   ar
     8     8     9   ar
     9     9    10    1
    10    10    11   am
    11    11    12    2
    12    11    13   am
    13    13    14    1
    14    14    15    1
    15    15    16    1
    16    16    17    1
    17    17    18   ar
    18    18    19   ar
    19    19    20   ar
    20    20    21    1
    21    21    22    2
    22    21    23    1
    23    20    24   ar
    24    24    25   ar
    25    17    25   ar
    26     9    26   ar
    27    26    27   ar
    28     6    27   ar
    29     1    28    1
    30     1    29    1
    31     1    30    1
    32     2    31    1
    33     2    32    1
    34     3    33    1
    35     7    34    1
    36     8    35    1
    37    10    36    1
    38    13    37    1
    39    14    38    1
    40    14    39    1
    41    15    40    1
    42    15    41    1
    43    16    42    1
    44    18    43    1
    45    19    44    1
    46    24    45    1
    47    25    46    1
    48    26    47    1
    49    27    48    1
