REMARK  12 active torsions:
REMARK  status: ('A' for Active; 'I' for Inactive)
REMARK    1  A    between atoms: C_2  and  C_3 
REMARK    2  A    between atoms: C_3  and  C_4 
REMARK    3  A    between atoms: C_3  and  C_33 
REMARK       I    between atoms: C_4  and  N_6 
REMARK    4  A    between atoms: N_6  and  C_7 
REMARK    5  A    between atoms: C_14  and  N_6 
REMARK    6  A    between atoms: C_7  and  C_8 
REMARK    7  A    between atoms: C_14  and  C_24 
REMARK    8  A    between atoms: C_14  and  C_15 
REMARK       I    between atoms: C_15  and  N_17 
REMARK    9  A    between atoms: N_17  and  C_18 
REMARK   10  A    between atoms: C_25  and  O_26 
REMARK   11  A    between atoms: C_28  and  O_29 
REMARK   12  A    between atoms: C_31  and  O_32 
ROOT
ATOM      1  C   UNL d   1       0.372  -3.329  -2.084  0.00  0.00     0.218 C 
ENDROOT
BRANCH   1   2
ATOM      2  C   UNL d   1      -1.112  -3.408  -2.429  0.00  0.00     0.040 C 
ATOM      3  C   UNL d   1      -1.836  -2.190  -2.411  0.00  0.00     0.080 C 
ATOM      4  C   UNL d   1      -3.208  -2.128  -2.244  0.00  0.00     0.073 C 
ATOM      5  C   UNL d   1      -3.905  -3.321  -2.191  0.00  0.00     0.071 C 
ATOM      6  C   UNL d   1      -3.251  -4.535  -2.310  0.00  0.00     0.073 C 
ATOM      7  C   UNL d   1      -1.880  -4.556  -2.530  0.00  0.00     0.080 C 
BRANCH   3   8
ATOM      8  O   UNL d   1      -1.212  -0.981  -2.603  0.00  0.00    -0.360 OA
ATOM      9  H   UNL d   1      -0.452  -1.152  -3.190  0.00  0.00     0.217 HD
ENDBRANCH   3   8
BRANCH   5  10
ATOM     10  O   UNL d   1      -5.264  -3.342  -2.165  0.00  0.00    -0.361 OA
ATOM     11  H   UNL d   1      -5.572  -2.433  -2.302  0.00  0.00     0.217 HD
ENDBRANCH   5  10
BRANCH   7  12
ATOM     12  O   UNL d   1      -1.362  -5.746  -2.942  0.00  0.00    -0.360 OA
ATOM     13  H   UNL d   1      -1.367  -6.288  -2.119  0.00  0.00     0.217 HD
ENDBRANCH   7  12
ENDBRANCH   1   2
BRANCH   1  14
ATOM     14  C   UNL d   1       0.398  -2.484  -0.755  0.00  0.00     0.245 C 
ATOM     15  O   UNL d   1       0.209  -3.074   0.317  0.00  0.00    -0.271 OA
ATOM     16  N   UNL d   1       0.623  -1.099  -0.879  0.00  0.00    -0.354 N 
ATOM     17  H   UNL d   1       0.068  -0.697  -1.613  0.00  0.00     0.162 HD
BRANCH  16  18
ATOM     18  C   UNL d   1       0.751  -0.049   0.162  0.00  0.00     0.084 C 
ATOM     19  C   UNL d   1      -0.070  -0.358   1.400  0.00  0.00     0.025 C 
ATOM     20  C   UNL d   1       0.229   0.622   2.533  0.00  0.00     0.002 C 
ATOM     21  C   UNL d   1       1.715   0.704   2.894  0.00  0.00     0.000 C 
ATOM     22  C   UNL d   1       2.527   1.153   1.681  0.00  0.00     0.002 C 
ATOM     23  C   UNL d   1       2.192   0.214   0.544  0.00  0.00     0.025 C 
ENDBRANCH  16  18
ENDBRANCH   1  14
BRANCH   1  24
ATOM     24  N   UNL d   1       1.291  -4.507  -1.862  0.00  0.00    -0.328 N 
ATOM     25  C   UNL d   1       0.894  -5.780  -1.377  0.00  0.00     0.229 C 
ATOM     26  O   UNL d   1      -0.222  -5.941  -0.876  0.00  0.00    -0.273 OA
BRANCH  25  27
ATOM     27  C   UNL d   1       1.881  -7.050  -1.421  0.00  0.00     0.110 C 
BRANCH  27  28
ATOM     28  C   UNL d   1       2.632  -7.345  -2.762  0.00  0.00     0.014 C 
ATOM     29  C   UNL d   1       3.440  -6.283  -3.449  0.00  0.00     0.006 C 
ENDBRANCH  27  28
BRANCH  27  30
ATOM     30  C   UNL d   1       1.194  -8.412  -0.989  0.00  0.00    -0.045 A 
ATOM     31  C   UNL d   1       0.346  -8.512   0.127  0.00  0.00     0.008 A 
ATOM     32  C   UNL d   1      -0.171  -9.750   0.547  0.00  0.00     0.001 A 
ATOM     33  C   UNL d   1       0.130 -10.920  -0.145  0.00  0.00     0.000 A 
ATOM     34  C   UNL d   1       0.964 -10.860  -1.246  0.00  0.00     0.001 A 
ATOM     35  C   UNL d   1       1.481  -9.630  -1.655  0.00  0.00     0.008 A 
ENDBRANCH  27  30
ENDBRANCH  25  27
BRANCH  24  36
ATOM     36  C   UNL d   1       2.716  -4.158  -1.913  0.00  0.00     0.192 C 
BRANCH  36  37
ATOM     37  C   UNL d   1       3.353  -3.157  -1.039  0.00  0.00     0.071 A 
ATOM     38  C   UNL d   1       3.045  -2.646   0.171  0.00  0.00     0.037 A 
ATOM     39  C   UNL d   1       4.119  -1.944   0.666  0.00  0.00     0.035 A 
ATOM     40  C   UNL d   1       5.059  -1.988  -0.328  0.00  0.00     0.049 A 
ATOM     41  C   UNL d   1       6.322  -1.290  -0.226  0.00  0.00     0.076 C 
ATOM     42  O   UNL d   1       4.650  -2.766  -1.362  0.00  0.00    -0.318 OA
ENDBRANCH  36  37
ENDBRANCH  24  36
ENDBRANCH   1  24
TORSDOF 12
