@<TRIPOS>MOLECULE
*****
 63 66 0 0 0
SMALL
GASTEIGER

@<TRIPOS>ATOM
      1 C           8.6815    3.0336    1.0442 C.3     1  UNL1       -0.0253
      2 C           8.6631    1.5446    1.3269 C.3     1  UNL1        0.1068
      3 C           7.7991    0.8843    0.2337 C.3     1  UNL1       -0.0253
      4 C          10.1459    1.0424    1.1516 C.3     1  UNL1       -0.0253
      5 O           8.0307    1.3885    2.6892 O.3     1  UNL1       -0.4447
      6 C           8.1436    0.1297    3.1721 C.2     1  UNL1        0.4011
      7 O           8.9047   -0.5883    2.5428 O.2     1  UNL1       -0.2265
      8 N           7.4771   -0.3370    4.2878 N.am    1  UNL1       -0.2741
      9 C           7.4432   -1.8287    4.8115 C.3     1  UNL1        0.0709
     10 C           8.8792   -2.4680    4.7233 C.3     1  UNL1       -0.0024
     11 C           9.4079   -2.7805    3.2999 C.2     1  UNL1        0.0095
     12 C           8.7556   -2.8415    2.1010 C.ar    1  UNL1        0.0509
     13 C           7.4242   -2.5024    1.6983 C.ar    1  UNL1       -0.0482
     14 C           6.9103   -2.5018    0.4809 C.ar    1  UNL1       -0.0608
     15 C           7.8661   -2.6002   -0.5801 C.ar    1  UNL1       -0.0555
     16 C           9.2019   -2.7169   -0.3559 C.ar    1  UNL1        0.0098
     17 C           9.7501   -2.8354    1.0436 C.ar    1  UNL1        0.2086
     18 N          10.9278   -2.8461    1.5511 N.2     1  UNL1       -0.2369
     19 C          10.8796   -2.7915    3.0485 C.3     1  UNL1        0.1661
     20 C           6.3254   -2.8800    4.1511 C.3     1  UNL1        0.1433
     21 N           6.8707   -4.1653    3.6223 N.3     1  UNL1       -0.2248
     22 N           6.4283   -5.2112    4.4469 N.3     1  UNL1       -0.2181
     23 C           5.4522   -4.5876    5.3032 C.3     1  UNL1        0.1723
     24 S           6.0893   -4.1367    6.8584 S.3     1  UNL1       -0.1081
     25 C           6.6322   -5.5566    7.7165 C.3     1  UNL1        0.0252
     26 C           7.1862   -5.1250    9.0659 C.ar    1  UNL1       -0.0009
     27 C           7.3004   -3.7936    9.5860 C.ar    1  UNL1        0.0463
     28 CL          7.0248   -2.2345    8.8354 Cl      1  UNL1       -0.0832
     29 C           7.6213   -3.5794   10.9168 C.ar    1  UNL1       -0.0430
     30 C           7.6648   -4.6369   11.7936 C.ar    1  UNL1       -0.0590
     31 C           7.7455   -5.9266   11.2939 C.ar    1  UNL1       -0.0430
     32 C           7.5587   -6.1677    9.9345 C.ar    1  UNL1        0.0463
     33 CL          7.7926   -7.7923    9.3805 Cl      1  UNL1       -0.0832
     34 O           5.1530   -3.2850    4.8261 O.3     1  UNL1       -0.3303
     35 H           9.0778    3.2357    0.0421 H       1  UNL1        0.0268
     36 H           9.3066    3.5401    1.7831 H       1  UNL1        0.0268
     37 H           7.6689    3.4360    1.1152 H       1  UNL1        0.0268
     38 H           8.1842    1.0758   -0.7762 H       1  UNL1        0.0268
     39 H           6.7517    1.1913    0.2869 H       1  UNL1        0.0268
     40 H           7.8070   -0.1892    0.3448 H       1  UNL1        0.0268
     41 H          10.5339    1.2763    0.1535 H       1  UNL1        0.0268
     42 H          10.2887   -0.0414    1.1973 H       1  UNL1        0.0268
     43 H          10.8019    1.4610    1.9180 H       1  UNL1        0.0268
     44 H           7.1539    0.3792    4.9292 H       1  UNL1        0.1524
     45 H           7.1696   -1.7040    5.8636 H       1  UNL1        0.0542
     46 H           8.8802   -3.4210    5.2753 H       1  UNL1        0.0332
     47 H           9.5792   -1.8385    5.2950 H       1  UNL1        0.0332
     48 H           6.8818   -1.8272    2.3089 H       1  UNL1        0.0626
     49 H           5.9135   -2.0591    0.3734 H       1  UNL1        0.0618
     50 H           7.4171   -2.3984   -1.5499 H       1  UNL1        0.0620
     51 H           9.8697   -2.6614   -1.1972 H       1  UNL1        0.0683
     52 H          11.7770   -2.8205    0.9980 H       1  UNL1        0.4459
     53 H          11.3775   -1.8775    3.4024 H       1  UNL1        0.1077
     54 H          11.3266   -3.6881    3.4793 H       1  UNL1        0.1077
     55 H           5.7885   -2.2480    3.4528 H       1  UNL1        0.0799
     56 H           7.8807   -4.2022    3.6110 H       1  UNL1        0.1434
     57 H           7.1834   -5.6015    5.0109 H       1  UNL1        0.1442
     58 H           4.5468   -5.1852    5.3443 H       1  UNL1        0.0904
     59 H           7.3882   -6.1019    7.1419 H       1  UNL1        0.0427
     60 H           5.7458   -6.1861    7.8537 H       1  UNL1        0.0427
     61 H           7.7803   -2.5642   11.2710 H       1  UNL1        0.0632
     62 H           7.6566   -4.4351   12.8570 H       1  UNL1        0.0618
     63 H           7.9562   -6.7414   11.9784 H       1  UNL1        0.0632
@<TRIPOS>UNITY_ATOM_ATTR
18 1
charge 1
@<TRIPOS>BOND
     1     1     2    1
     2     2     3    1
     3     2     4    1
     4     2     5    1
     5     5     6    1
     6     6     7    2
     7     6     8   am
     8     8     9    1
     9     9    10    1
    10    10    11    1
    11    11    12    2
    12    12    13   ar
    13    13    14   ar
    14    14    15   ar
    15    15    16   ar
    16    16    17   ar
    17    12    17   ar
    18    17    18    2
    19    18    19    1
    20    11    19    1
    21    20    21    1
    22    21    22    1
    23    22    23    1
    24    23    24    1
    25    24    25    1
    26    25    26    1
    27    26    27   ar
    28    27    28    1
    29    27    29   ar
    30    29    30   ar
    31    30    31   ar
    32    31    32   ar
    33    26    32   ar
    34    32    33    1
    35    23    34    1
    36    20    34    1
    37    20     9    1
    38     1    35    1
    39     1    36    1
    40     1    37    1
    41     3    38    1
    42     3    39    1
    43     3    40    1
    44     4    41    1
    45     4    42    1
    46     4    43    1
    47     8    44    1
    48     9    45    1
    49    10    46    1
    50    10    47    1
    51    13    48    1
    52    14    49    1
    53    15    50    1
    54    16    51    1
    55    18    52    1
    56    19    53    1
    57    19    54    1
    58    20    55    1
    59    21    56    1
    60    22    57    1
    61    23    58    1
    62    25    59    1
    63    25    60    1
    64    29    61    1
    65    30    62    1
    66    31    63    1
