@<TRIPOS>MOLECULE
*****
 40 43 0 0 0
SMALL
GASTEIGER

@<TRIPOS>ATOM
      1 C           2.4331    1.4678   -0.0405 C.3     1  UNL1        0.0119
      2 N           1.5790    0.2994    0.0029 N.ar    1  UNL1       -0.3489
      3 C           2.0155   -1.0062    0.0078 C.ar    1  UNL1        0.0175
      4 C           0.9102   -1.8457    0.0018 C.ar    1  UNL1        0.0622
      5 C           0.8666   -3.3185   -0.0195 C.2     1  UNL1        0.2503
      6 O          -0.2252   -3.8961   -0.0427 O.2     1  UNL1       -0.2698
      7 N           2.0767   -4.0159    0.0306 N.am    1  UNL1       -0.2814
      8 C           2.1373   -5.4346   -0.0588 C.ar    1  UNL1        0.0337
      9 C           3.0401   -6.1845    0.7054 C.ar    1  UNL1       -0.0398
     10 C           3.0682   -7.5927    0.5955 C.ar    1  UNL1       -0.0508
     11 C           2.1888   -8.2623   -0.2663 C.ar    1  UNL1        0.0022
     12 C           2.1426   -9.7213   -0.3368 C.ar    1  UNL1        0.0925
     13 C           2.3170  -10.5275   -1.4926 C.ar    1  UNL1       -0.0165
     14 C           2.1388  -11.8229   -1.0723 C.ar    1  UNL1        0.0229
     15 N           1.8558  -11.7419    0.2577 N.ar    1  UNL1       -0.2842
     16 N           1.8773  -10.4852    0.7360 N.ar    1  UNL1       -0.1739
     17 C           1.3283   -7.5051   -1.0633 C.ar    1  UNL1       -0.0508
     18 C           1.3025   -6.1114   -0.9535 C.ar    1  UNL1       -0.0398
     19 C          -0.2473   -0.9704   -0.0011 C.ar    1  UNL1        0.0120
     20 C          -1.6471   -1.1877   -0.0186 C.ar    1  UNL1       -0.0519
     21 C          -2.5340   -0.1036   -0.0205 C.ar    1  UNL1       -0.0611
     22 C          -2.0532    1.1991    0.0038 C.ar    1  UNL1       -0.0598
     23 C          -0.6788    1.4502    0.0235 C.ar    1  UNL1       -0.0376
     24 C           0.2030    0.3523    0.0132 C.ar    1  UNL1        0.0496
     25 H           3.4802    1.1585   -0.0339 H       1  UNL1        0.0456
     26 H           2.2227    2.0885    0.8350 H       1  UNL1        0.0456
     27 H           2.2155    2.0201   -0.9595 H       1  UNL1        0.0456
     28 H           3.0743   -1.2208    0.0008 H       1  UNL1        0.0817
     29 H           2.9228   -3.5144    0.2593 H       1  UNL1        0.1551
     30 H           3.6734   -5.7141    1.4533 H       1  UNL1        0.0636
     31 H           3.7732   -8.1723    1.1898 H       1  UNL1        0.0625
     32 H           2.5478  -10.1945   -2.4936 H       1  UNL1        0.0654
     33 H           2.1813  -12.7699   -1.5913 H       1  UNL1        0.0824
     34 H           1.6475  -12.5012    0.8992 H       1  UNL1        0.1882
     35 H           0.6507   -7.9851   -1.7643 H       1  UNL1        0.0625
     36 H           0.6217   -5.5568   -1.5937 H       1  UNL1        0.0636
     37 H          -2.0446   -2.1998   -0.0340 H       1  UNL1        0.0624
     38 H          -3.6058   -0.2865   -0.0409 H       1  UNL1        0.0618
     39 H          -2.7536    2.0317    0.0046 H       1  UNL1        0.0618
     40 H          -0.3147    2.4728    0.0424 H       1  UNL1        0.0638
@<TRIPOS>BOND
     1     1     2    1
     2     2     3   ar
     3     3     4   ar
     4     4     5    1
     5     5     6    2
     6     5     7   am
     7     7     8    1
     8     8     9   ar
     9     9    10   ar
    10    10    11   ar
    11    11    12    1
    12    12    13   ar
    13    13    14   ar
    14    14    15   ar
    15    15    16   ar
    16    12    16   ar
    17    11    17   ar
    18    17    18   ar
    19     8    18   ar
    20     4    19   ar
    21    19    20   ar
    22    20    21   ar
    23    21    22   ar
    24    22    23   ar
    25    23    24   ar
    26    19    24   ar
    27     2    24   ar
    28     1    25    1
    29     1    26    1
    30     1    27    1
    31     3    28    1
    32     7    29    1
    33     9    30    1
    34    10    31    1
    35    13    32    1
    36    14    33    1
    37    15    34    1
    38    17    35    1
    39    18    36    1
    40    20    37    1
    41    21    38    1
    42    22    39    1
    43    23    40    1
