@<TRIPOS>MOLECULE
*****
 34 35 0 0 0
SMALL
GASTEIGER

@<TRIPOS>ATOM
      1 C           2.4672   -0.0047   -0.0123 C.3     1  UNL1       -0.0397
      2 C           0.9649   -0.0032    0.0034 C.ar    1  UNL1       -0.0504
      3 C           0.2298   -1.1920    0.0058 C.ar    1  UNL1       -0.0581
      4 C          -1.1763   -1.1612   -0.0028 C.ar    1  UNL1       -0.0493
      5 C          -1.8778    0.0595   -0.0191 C.ar    1  UNL1        0.0382
      6 C          -3.3867    0.0494   -0.0736 C.2     1  UNL1        0.2601
      7 O          -3.9926   -1.0252   -0.0396 O.2     1  UNL1       -0.2687
      8 N          -4.0450    1.2777   -0.1783 N.am    1  UNL1       -0.2325
      9 N          -5.4306    1.2992    0.0030 N.pl3   1  UNL1       -0.2642
     10 C          -6.1398    2.5055   -0.1118 C.ar    1  UNL1        0.0447
     11 C          -5.7388    3.5652   -0.9352 C.ar    1  UNL1       -0.0394
     12 C          -6.4589    4.7682   -0.9700 C.ar    1  UNL1       -0.0597
     13 C          -7.5720    4.9488   -0.1516 C.ar    1  UNL1       -0.0587
     14 C          -7.9856    3.9225    0.6994 C.ar    1  UNL1       -0.0487
     15 C          -9.1613    4.1269    1.6123 C.3     1  UNL1       -0.0397
     16 C          -7.2727    2.7068    0.7001 C.ar    1  UNL1       -0.0365
     17 C          -1.1302    1.2434   -0.0031 C.ar    1  UNL1       -0.0493
     18 C           0.2719    1.2109    0.0057 C.ar    1  UNL1       -0.0581
     19 H           2.8735   -1.0214    0.0008 H       1  UNL1        0.0278
     20 H           2.8575    0.5232    0.8644 H       1  UNL1        0.0278
     21 H           2.8351    0.4907   -0.9175 H       1  UNL1        0.0278
     22 H           0.7443   -2.1522    0.0072 H       1  UNL1        0.0620
     23 H          -1.7167   -2.1074   -0.0061 H       1  UNL1        0.0625
     24 H          -3.5810    2.1609   -0.0125 H       1  UNL1        0.1730
     25 H          -5.9239    0.4054   -0.0104 H       1  UNL1        0.1700
     26 H          -4.8872    3.4539   -1.5998 H       1  UNL1        0.0636
     27 H          -6.1545    5.5686   -1.6402 H       1  UNL1        0.0618
     28 H          -8.1124    5.8932   -0.1813 H       1  UNL1        0.0620
     29 H          -9.6084    5.1183    1.4731 H       1  UNL1        0.0278
     30 H          -8.8480    4.0528    2.6587 H       1  UNL1        0.0278
     31 H          -9.9382    3.3834    1.4106 H       1  UNL1        0.0278
     32 H          -7.5869    1.9119    1.3740 H       1  UNL1        0.0639
     33 H          -1.6002    2.2184   -0.0018 H       1  UNL1        0.0625
     34 H           0.8228    2.1496    0.0073 H       1  UNL1        0.0620
@<TRIPOS>BOND
     1     1     2    1
     2     2     3   ar
     3     3     4   ar
     4     4     5   ar
     5     5     6    1
     6     6     7    2
     7     6     8   am
     8     8     9    1
     9     9    10    1
    10    10    11   ar
    11    11    12   ar
    12    12    13   ar
    13    13    14   ar
    14    14    15    1
    15    14    16   ar
    16    10    16   ar
    17     5    17   ar
    18    17    18   ar
    19     2    18   ar
    20     1    19    1
    21     1    20    1
    22     1    21    1
    23     3    22    1
    24     4    23    1
    25     8    24    1
    26     9    25    1
    27    11    26    1
    28    12    27    1
    29    13    28    1
    30    15    29    1
    31    15    30    1
    32    15    31    1
    33    16    32    1
    34    17    33    1
    35    18    34    1
