@<TRIPOS>MOLECULE
*****
 35 37 0 0 0
SMALL
GASTEIGER

@<TRIPOS>ATOM
      1 O           1.1271   -0.0326    0.1226 O.2     1  UNL1       -0.2668
      2 C           2.3683   -0.0164    0.0335 C.2     1  UNL1        0.2810
      3 N           3.0822   -1.0084   -0.6384 N.am    1  UNL1       -0.2017
      4 N           2.3762   -1.9859   -1.3001 N.2     1  UNL1       -0.1859
      5 C           2.9846   -3.0597   -1.6955 C.2     1  UNL1        0.0710
      6 C           2.2292   -4.1350   -2.3945 C.ar    1  UNL1        0.0833
      7 C           1.1444   -3.8062   -3.1992 C.ar    1  UNL1       -0.0347
      8 C           0.4057   -4.8377   -3.7727 C.ar    1  UNL1       -0.0583
      9 C           0.7605   -6.1555   -3.5085 C.ar    1  UNL1       -0.0436
     10 C           1.8702   -6.3878   -2.7066 C.ar    1  UNL1        0.0283
     11 N           2.6331   -5.4084   -2.1575 N.ar    1  UNL1       -0.2540
     12 C           3.1268    1.0399    0.6611 C.ar    1  UNL1        0.1224
     13 C           2.9024    1.6671    1.8751 C.ar    1  UNL1       -0.0041
     14 C           3.8187    2.7489    1.9543 C.ar    1  UNL1        0.0932
     15 C           3.9493    3.7054    3.0552 C.ar    1  UNL1        0.0022
     16 C           4.2787    3.2480    4.3398 C.ar    1  UNL1       -0.0511
     17 C           4.3152    4.1312    5.4256 C.ar    1  UNL1       -0.0428
     18 C           4.0181    5.4783    5.2335 C.ar    1  UNL1        0.0410
     19 CL          4.0143    6.5521    6.5793 Cl      1  UNL1       -0.0835
     20 C           3.7125    5.9546    3.9595 C.ar    1  UNL1       -0.0428
     21 C           3.6859    5.0711    2.8698 C.ar    1  UNL1       -0.0511
     22 N           4.5734    2.7988    0.8467 N.ar    1  UNL1       -0.1732
     23 N           4.1317    1.7728    0.0887 N.ar    1  UNL1       -0.2719
     24 H           4.0853   -1.1097   -0.5230 H       1  UNL1        0.1776
     25 H           4.0593   -3.2463   -1.5228 H       1  UNL1        0.0867
     26 H           0.8763   -2.7695   -3.3717 H       1  UNL1        0.0639
     27 H          -0.4500   -4.6125   -4.4038 H       1  UNL1        0.0619
     28 H           0.1812   -6.9797   -3.9138 H       1  UNL1        0.0633
     29 H           2.1722   -7.4065   -2.4728 H       1  UNL1        0.0830
     30 H           2.1394    1.4029    2.5957 H       1  UNL1        0.0662
     31 H           4.5088    2.1982    4.5045 H       1  UNL1        0.0625
     32 H           4.5646    3.7594    6.4161 H       1  UNL1        0.0632
     33 H           3.4824    7.0071    3.8112 H       1  UNL1        0.0632
     34 H           3.4348    5.4528    1.8825 H       1  UNL1        0.0625
     35 H           4.5188    1.6748   -0.8428 H       1  UNL1        0.1891
@<TRIPOS>BOND
     1     1     2    2
     2     2     3   am
     3     3     4    1
     4     4     5    2
     5     5     6    1
     6     6     7   ar
     7     7     8   ar
     8     8     9   ar
     9     9    10   ar
    10    10    11   ar
    11     6    11   ar
    12     2    12    1
    13    12    13   ar
    14    13    14   ar
    15    14    15    1
    16    15    16   ar
    17    16    17   ar
    18    17    18   ar
    19    18    19    1
    20    18    20   ar
    21    20    21   ar
    22    15    21   ar
    23    14    22   ar
    24    22    23   ar
    25    12    23   ar
    26     3    24    1
    27     5    25    1
    28     7    26    1
    29     8    27    1
    30     9    28    1
    31    10    29    1
    32    13    30    1
    33    16    31    1
    34    17    32    1
    35    20    33    1
    36    21    34    1
    37    23    35    1
