@<TRIPOS>MOLECULE
*****
 63 65 0 0 0
SMALL
GASTEIGER

@<TRIPOS>ATOM
      1 C           2.5108   -0.0702   -0.0126 C.3     1  UNL1       -0.0389
      2 C           1.0100    0.0341    0.0020 C.ar    1  UNL1       -0.0364
      3 C           0.2660   -1.1680    0.0043 C.ar    1  UNL1       -0.0562
      4 C          -1.1304   -1.1568   -0.0013 C.ar    1  UNL1       -0.0351
      5 C          -1.8087    0.0654   -0.0055 C.ar    1  UNL1        0.1060
      6 S          -3.5893    0.0067   -0.0548 S.O2    1  UNL1        0.0588
      7 O          -3.9608   -0.5598   -1.3301 O.2     1  UNL1       -0.1530
      8 O          -4.0383   -0.5854    1.1903 O.2     1  UNL1       -0.1530
      9 N          -4.1364    1.6179   -0.0799 N.3     1  UNL1       -0.1826
     10 C          -5.6191    1.6678   -0.0739 C.3     1  UNL1        0.0754
     11 C          -6.1870    3.0497   -0.1030 C.ar    1  UNL1        0.1202
     12 C          -7.5074    3.4543   -0.1650 C.ar    1  UNL1       -0.0194
     13 C          -7.5060    4.8650   -0.1675 C.ar    1  UNL1       -0.0236
     14 C          -6.1845    5.2413   -0.1082 C.ar    1  UNL1        0.0921
     15 O          -5.3709    4.1462   -0.0784 O.2     1  UNL1       -0.4665
     16 C          -1.0873    1.2707    0.0061 C.ar    1  UNL1       -0.0211
     17 C           0.3337    1.2782    0.0056 C.ar    1  UNL1        0.0638
     18 C           1.0244    2.6361   -0.0005 C.2     1  UNL1        0.3400
     19 O           0.3936    3.6906   -0.0153 O.2     1  UNL1       -0.2449
     20 O           2.3761    2.5773    0.0039 O.3     1  UNL1       -0.4517
     21 C           3.1641    3.8049   -0.0046 C.3     1  UNL1        0.1688
     22 C           4.6748    3.4562   -0.0070 C.2     1  UNL1        0.2581
     23 O           4.9969    2.2659    0.0315 O.2     1  UNL1       -0.2716
     24 N           5.6007    4.5162   -0.0263 N.am    1  UNL1       -0.2374
     25 C           6.9551    4.2595   -0.1428 C.2     1  UNL1        0.3062
     26 O           7.3757    3.1230   -0.3252 O.2     1  UNL1       -0.2524
     27 N           7.8325    5.3316    0.0346 N.am    1  UNL1       -0.2960
     28 C           9.3324    5.1346    0.0284 C.3     1  UNL1        0.0271
     29 C          10.0906    6.3234    0.6838 C.3     1  UNL1       -0.0342
     30 C          11.6144    6.0988    0.7840 C.3     1  UNL1       -0.0514
     31 C          11.9760    4.7811    1.4616 C.3     1  UNL1       -0.0527
     32 C          11.2759    3.6227    0.7813 C.3     1  UNL1       -0.0488
     33 C           9.7601    3.8193    0.7365 C.3     1  UNL1       -0.0254
     34 C           9.1495    3.7520    2.1457 C.3     1  UNL1       -0.0607
     35 H           2.8592   -1.1070   -0.0046 H       1  UNL1        0.0278
     36 H           2.9254    0.4108    0.8787 H       1  UNL1        0.0278
     37 H           2.9021    0.3922   -0.9246 H       1  UNL1        0.0278
     38 H           0.7800   -2.1305    0.0061 H       1  UNL1        0.0621
     39 H          -1.6757   -2.1017   -0.0036 H       1  UNL1        0.0637
     40 H          -3.7844    2.1112   -0.9006 H       1  UNL1        0.1485
     41 H          -6.0108    1.1617    0.8146 H       1  UNL1        0.0521
     42 H          -5.9959    1.1553   -0.9674 H       1  UNL1        0.0521
     43 H          -8.3624    2.7937   -0.2019 H       1  UNL1        0.0652
     44 H          -8.3638    5.5229   -0.2057 H       1  UNL1        0.0649
     45 H          -5.6909    6.2037   -0.0830 H       1  UNL1        0.1029
     46 H          -1.6241    2.2157    0.0201 H       1  UNL1        0.0645
     47 H           2.9328    4.3738    0.8993 H       1  UNL1        0.0796
     48 H           2.9298    4.3646   -0.9133 H       1  UNL1        0.0796
     49 H           5.2863    5.4709   -0.0057 H       1  UNL1        0.1592
     50 H           7.5042    6.2805   -0.0653 H       1  UNL1        0.1505
     51 H           9.6421    5.0901   -1.0268 H       1  UNL1        0.0501
     52 H           9.7031    6.4927    1.6955 H       1  UNL1        0.0283
     53 H           9.9052    7.2521    0.1322 H       1  UNL1        0.0283
     54 H          12.0763    6.9178    1.3489 H       1  UNL1        0.0266
     55 H          12.0585    6.1194   -0.2191 H       1  UNL1        0.0266
     56 H          11.6936    4.8192    2.5194 H       1  UNL1        0.0265
     57 H          13.0588    4.6159    1.4391 H       1  UNL1        0.0265
     58 H          11.5032    2.6854    1.3041 H       1  UNL1        0.0268
     59 H          11.6604    3.5081   -0.2412 H       1  UNL1        0.0268
     60 H           9.4194    2.9616    0.1523 H       1  UNL1        0.0316
     61 H           9.5433    4.5358    2.7974 H       1  UNL1        0.0233
     62 H           9.3508    2.7840    2.6065 H       1  UNL1        0.0233
     63 H           8.0648    3.8874    2.1384 H       1  UNL1        0.0233
@<TRIPOS>BOND
     1     1     2    1
     2     2     3   ar
     3     3     4   ar
     4     4     5   ar
     5     5     6    1
     6     6     7    2
     7     6     8    2
     8     6     9    1
     9     9    10    1
    10    10    11    1
    11    11    12   ar
    12    12    13   ar
    13    13    14   ar
    14    14    15   ar
    15    11    15   ar
    16     5    16   ar
    17    16    17   ar
    18     2    17   ar
    19    17    18    1
    20    18    19    2
    21    18    20    1
    22    20    21    1
    23    21    22    1
    24    22    23    2
    25    22    24   am
    26    24    25   am
    27    25    26    2
    28    25    27   am
    29    27    28    1
    30    28    29    1
    31    29    30    1
    32    30    31    1
    33    31    32    1
    34    32    33    1
    35    28    33    1
    36    33    34    1
    37     1    35    1
    38     1    36    1
    39     1    37    1
    40     3    38    1
    41     4    39    1
    42     9    40    1
    43    10    41    1
    44    10    42    1
    45    12    43    1
    46    13    44    1
    47    14    45    1
    48    16    46    1
    49    21    47    1
    50    21    48    1
    51    24    49    1
    52    27    50    1
    53    28    51    1
    54    29    52    1
    55    29    53    1
    56    30    54    1
    57    30    55    1
    58    31    56    1
    59    31    57    1
    60    32    58    1
    61    32    59    1
    62    33    60    1
    63    34    61    1
    64    34    62    1
    65    34    63    1
