@<TRIPOS>MOLECULE
*****
 49 51 0 0 0
SMALL
GASTEIGER

@<TRIPOS>ATOM
      1 C           0.9586   -0.1122   -0.0270 C.3     1  UNL1        0.0788
      2 O           2.3837   -0.0436   -0.0597 O.3     1  UNL1       -0.4944
      3 C           3.0017   -1.2272    0.2455 C.ar    1  UNL1        0.1323
      4 C           2.6234   -2.4435   -0.3500 C.ar    1  UNL1       -0.0178
      5 C           3.2921   -3.6372   -0.0514 C.ar    1  UNL1       -0.0399
      6 C           4.3569   -3.6258    0.8358 C.ar    1  UNL1        0.0419
      7 CL          5.1710   -5.0921    1.2198 Cl      1  UNL1       -0.0835
      8 C           4.7626   -2.4242    1.4049 C.ar    1  UNL1       -0.0277
      9 C           4.0967   -1.2040    1.1112 C.ar    1  UNL1        0.0800
     10 C           4.6265    0.0175    1.7828 C.2     1  UNL1        0.2531
     11 O           5.6218   -0.2005    2.4868 O.2     1  UNL1       -0.2697
     12 N           4.0544    1.2943    1.6009 N.am    1  UNL1       -0.2635
     13 C           4.4265    2.4641    2.3035 C.2     1  UNL1        0.1411
     14 S           5.5680    2.4412    3.5600 S.2     1  UNL1       -0.0182
     15 N           3.7372    3.6449    1.9121 N.am    1  UNL1       -0.2965
     16 C           4.1153    4.9686    2.3475 C.ar    1  UNL1        0.0361
     17 C           3.2091    5.9653    2.7181 C.ar    1  UNL1       -0.0396
     18 C           3.6792    7.2477    3.1190 C.ar    1  UNL1       -0.0458
     19 C           5.0559    7.5388    3.1988 C.ar    1  UNL1        0.0590
     20 C           5.5502    8.8870    3.5035 C.ar    1  UNL1        0.1388
     21 C           6.3773    9.7008    2.7592 C.ar    1  UNL1       -0.0154
     22 C           6.5929   10.8680    3.5022 C.ar    1  UNL1       -0.0178
     23 C           5.9056   10.7232    4.6895 C.ar    1  UNL1        0.1310
     24 C           5.7982   11.6368    5.8624 C.3     1  UNL1        0.1019
     25 O           6.5555   12.8208    5.5711 O.3     1  UNL1       -0.3873
     26 O           5.2424    9.5077    4.6965 O.2     1  UNL1       -0.4573
     27 C           5.9579    6.5425    2.7789 C.ar    1  UNL1        0.1325
     28 O           7.3038    6.8374    2.7562 O.3     1  UNL1       -0.4943
     29 C           8.1856    5.7936    2.3400 C.3     1  UNL1        0.0788
     30 C           5.4682    5.3071    2.3451 C.ar    1  UNL1        0.0020
     31 H           0.5853    0.8940   -0.2361 H       1  UNL1        0.0660
     32 H           0.6081   -0.4068    0.9681 H       1  UNL1        0.0660
     33 H           0.5580   -0.7764   -0.7969 H       1  UNL1        0.0660
     34 H           1.8203   -2.4881   -1.0789 H       1  UNL1        0.0655
     35 H           2.9843   -4.5682   -0.5217 H       1  UNL1        0.0633
     36 H           5.6145   -2.4377    2.0873 H       1  UNL1        0.0641
     37 H           3.2946    1.3422    0.9306 H       1  UNL1        0.1568
     38 H           2.8510    3.5797    1.4268 H       1  UNL1        0.1538
     39 H           2.1402    5.7722    2.7585 H       1  UNL1        0.0636
     40 H           2.9595    8.0399    3.3254 H       1  UNL1        0.0626
     41 H           6.7780    9.4476    1.7901 H       1  UNL1        0.0655
     42 H           7.1865   11.7237    3.2186 H       1  UNL1        0.0653
     43 H           6.2109   11.2022    6.7768 H       1  UNL1        0.0638
     44 H           4.7672   11.9510    6.0398 H       1  UNL1        0.0638
     45 H           7.4743   12.5375    5.4205 H       1  UNL1        0.2100
     46 H           9.2059    6.1837    2.3392 H       1  UNL1        0.0660
     47 H           7.9666    5.4687    1.3151 H       1  UNL1        0.0660
     48 H           8.1487    4.9489    3.0372 H       1  UNL1        0.0660
     49 H           6.1609    4.5677    1.9675 H       1  UNL1        0.0673
@<TRIPOS>BOND
     1     1     2    1
     2     2     3    1
     3     3     4   ar
     4     4     5   ar
     5     5     6   ar
     6     6     7    1
     7     6     8   ar
     8     8     9   ar
     9     3     9   ar
    10     9    10    1
    11    10    11    2
    12    10    12   am
    13    12    13    1
    14    13    14    2
    15    13    15    1
    16    15    16    1
    17    16    17   ar
    18    17    18   ar
    19    18    19   ar
    20    19    20    1
    21    20    21   ar
    22    21    22   ar
    23    22    23   ar
    24    23    24    1
    25    24    25    1
    26    23    26   ar
    27    20    26   ar
    28    19    27   ar
    29    27    28    1
    30    28    29    1
    31    27    30   ar
    32    16    30   ar
    33     1    31    1
    34     1    32    1
    35     1    33    1
    36     4    34    1
    37     5    35    1
    38     8    36    1
    39    12    37    1
    40    15    38    1
    41    17    39    1
    42    18    40    1
    43    21    41    1
    44    22    42    1
    45    24    43    1
    46    24    44    1
    47    25    45    1
    48    29    46    1
    49    29    47    1
    50    29    48    1
    51    30    49    1
