@<TRIPOS>MOLECULE
*****
 58 60 0 0 0
SMALL
GASTEIGER

@<TRIPOS>ATOM
      1 C           1.0823    0.0240    0.0891 C.3     1  UNL1       -0.0495
      2 C           2.5991    0.0109    0.1131 C.3     1  UNL1        0.0091
      3 N           3.1336   -0.7872    1.2026 N.am    1  UNL1       -0.3116
      4 C           4.4972   -0.8533    1.4098 C.2     1  UNL1        0.2441
      5 O           5.3115   -0.2604    0.6987 O.2     1  UNL1       -0.2702
      6 C           4.9995   -1.7130    2.5132 C.ar    1  UNL1        0.0384
      7 C           6.1884   -1.3700    3.1620 C.ar    1  UNL1       -0.0495
      8 C           6.8158   -2.2950    3.9961 C.ar    1  UNL1       -0.0593
      9 C           6.2221   -3.5404    4.2316 C.ar    1  UNL1       -0.0408
     10 C           5.0136   -3.8926    3.6132 C.ar    1  UNL1        0.0282
     11 N           4.4437   -5.1264    3.8540 N.pl3   1  UNL1       -0.3354
     12 C           3.2545   -5.6144    3.1496 C.3     1  UNL1        0.0861
     13 C           2.9714   -7.0684    3.5349 C.2     1  UNL1        0.2343
     14 O           3.7304   -7.6620    4.3051 O.2     1  UNL1       -0.2738
     15 N           1.8536   -7.6437    2.9260 N.am    1  UNL1       -0.2842
     16 C           1.3786   -8.9248    3.2906 C.ar    1  UNL1        0.0335
     17 C           0.7713   -9.7929    2.3761 C.ar    1  UNL1       -0.0387
     18 C           0.2623  -11.0466    2.8065 C.ar    1  UNL1       -0.0387
     19 C           0.3785  -11.4457    4.1479 C.ar    1  UNL1        0.0338
     20 N          -0.0460  -12.7373    4.5783 N.am    1  UNL1       -0.2815
     21 C           0.0663  -13.2066    5.8858 C.2     1  UNL1        0.2483
     22 O           0.4900  -12.5800    6.8614 O.2     1  UNL1       -0.2699
     23 C          -0.3235  -14.6000    6.1881 C.ar    1  UNL1        0.0373
     24 C          -0.8949  -14.8642    7.4454 C.ar    1  UNL1       -0.0496
     25 C          -1.0294  -16.1741    7.8996 C.ar    1  UNL1       -0.0608
     26 C          -0.6464  -17.2297    7.0769 C.ar    1  UNL1       -0.0588
     27 C          -0.0831  -16.9784    5.8175 C.ar    1  UNL1       -0.0497
     28 C           0.4219  -18.1075    4.9722 C.3     1  UNL1       -0.0397
     29 C           0.0797  -15.6567    5.3733 C.ar    1  UNL1       -0.0467
     30 C           0.9551  -10.5411    5.0351 C.ar    1  UNL1       -0.0387
     31 C           1.4553   -9.3152    4.6180 C.ar    1  UNL1       -0.0387
     32 C           4.4068   -2.9527    2.7692 C.ar    1  UNL1       -0.0287
     33 H           0.7168    0.6297   -0.7472 H       1  UNL1        0.0245
     34 H           0.6801    0.4459    1.0157 H       1  UNL1        0.0245
     35 H           0.6812   -0.9884   -0.0223 H       1  UNL1        0.0245
     36 H           2.9835    1.0325    0.2109 H       1  UNL1        0.0459
     37 H           2.9859   -0.3980   -0.8278 H       1  UNL1        0.0459
     38 H           2.4982   -1.2068    1.8686 H       1  UNL1        0.1490
     39 H           6.6436   -0.3974    2.9895 H       1  UNL1        0.0625
     40 H           7.7854   -2.0628    4.4317 H       1  UNL1        0.0618
     41 H           6.7299   -4.2419    4.8923 H       1  UNL1        0.0636
     42 H           4.9691   -5.8372    4.3662 H       1  UNL1        0.1466
     43 H           3.4022   -5.5712    2.0649 H       1  UNL1        0.0557
     44 H           2.3952   -5.0011    3.4392 H       1  UNL1        0.0557
     45 H           1.3821   -7.1669    2.1679 H       1  UNL1        0.1549
     46 H           0.7481   -9.5502    1.3157 H       1  UNL1        0.0637
     47 H          -0.2159  -11.6919    2.0724 H       1  UNL1        0.0637
     48 H          -0.4286  -13.3577    3.8752 H       1  UNL1        0.1551
     49 H          -1.1887  -14.0411    8.0957 H       1  UNL1        0.0625
     50 H          -1.3921  -16.3697    8.9062 H       1  UNL1        0.0618
     51 H          -0.7659  -18.2499    7.4366 H       1  UNL1        0.0620
     52 H           0.2373  -19.0767    5.4458 H       1  UNL1        0.0278
     53 H           1.5022  -18.0039    4.8268 H       1  UNL1        0.0278
     54 H          -0.0806  -18.0979    4.0011 H       1  UNL1        0.0278
     55 H           0.5919  -15.4639    4.4355 H       1  UNL1        0.0628
     56 H           1.0489  -10.7332    6.0944 H       1  UNL1        0.0637
     57 H           1.8812   -8.6683    5.3791 H       1  UNL1        0.0637
     58 H           3.4957   -3.2127    2.2465 H       1  UNL1        0.0643
@<TRIPOS>BOND
     1     1     2    1
     2     2     3    1
     3     3     4   am
     4     4     5    2
     5     4     6    1
     6     6     7   ar
     7     7     8   ar
     8     8     9   ar
     9     9    10   ar
    10    10    11    1
    11    11    12    1
    12    12    13    1
    13    13    14    2
    14    13    15   am
    15    15    16    1
    16    16    17   ar
    17    17    18   ar
    18    18    19   ar
    19    19    20    1
    20    20    21   am
    21    21    22    2
    22    21    23    1
    23    23    24   ar
    24    24    25   ar
    25    25    26   ar
    26    26    27   ar
    27    27    28    1
    28    27    29   ar
    29    23    29   ar
    30    19    30   ar
    31    30    31   ar
    32    16    31   ar
    33    10    32   ar
    34     6    32   ar
    35     1    33    1
    36     1    34    1
    37     1    35    1
    38     2    36    1
    39     2    37    1
    40     3    38    1
    41     7    39    1
    42     8    40    1
    43     9    41    1
    44    11    42    1
    45    12    43    1
    46    12    44    1
    47    15    45    1
    48    17    46    1
    49    18    47    1
    50    20    48    1
    51    24    49    1
    52    25    50    1
    53    26    51    1
    54    28    52    1
    55    28    53    1
    56    28    54    1
    57    29    55    1
    58    30    56    1
    59    31    57    1
    60    32    58    1
