REMARK  4 active torsions:
REMARK  status: ('A' for Active; 'I' for Inactive)
REMARK       I    between atoms: C_2  and  N_3 
REMARK       I    between atoms: C_2  and  N_13 
REMARK    1  A    between atoms: N_3  and  C_4 
REMARK    2  A    between atoms: C_4  and  C_7 
REMARK    3  A    between atoms: N_5  and  O_6 
REMARK    4  A    between atoms: N_13  and  C_14 
ROOT
ATOM      1  O   UNL d   1       0.968   0.032  -0.222  0.00  0.00    -0.247 OA
ATOM      2  C   UNL d   1       2.181  -0.077  -0.013  0.00  0.00     0.326 C 
ATOM      3  N   UNL d   1       2.769  -0.794   1.019  0.00  0.00    -0.290 N 
ATOM      4  N   UNL d   1       3.002   0.651  -0.840  0.00  0.00    -0.309 N 
ATOM      5  H   UNL d   1       3.768  -0.724   1.102  0.00  0.00     0.172 HD
ATOM      6  H   UNL d   1       2.471   1.269  -1.446  0.00  0.00     0.170 HD
ENDROOT
BRANCH   3   7
ATOM      7  C   UNL d   1       2.093  -1.524   1.999  0.00  0.00     0.168 C 
ATOM      8  N   UNL d   1       0.793  -1.527   1.975  0.00  0.00    -0.117 NA
BRANCH   8   9
ATOM      9  O   UNL d   1       0.196  -2.149   3.072  0.00  0.00    -0.264 OA
ATOM     10  H   UNL d   1      -0.751  -2.071   2.861  0.00  0.00     0.247 HD
ENDBRANCH   8   9
BRANCH   7  11
ATOM     11  C   UNL d   1       2.920  -2.244   3.039  0.00  0.00     0.012 C 
ATOM     12  C   UNL d   1       2.464  -3.490   3.509  0.00  0.00     0.015 C 
ATOM     13  C   UNL d   1       2.957  -4.042   4.692  0.00  0.00     0.001 C 
ATOM     14  C   UNL d   1       4.019  -3.429   5.344  0.00  0.00     0.000 C 
ATOM     15  C   UNL d   1       4.563  -2.252   4.825  0.00  0.00     0.001 C 
ATOM     16  C   UNL d   1       4.012  -1.649   3.680  0.00  0.00     0.015 C 
ENDBRANCH   7  11
ENDBRANCH   3   7
BRANCH   4  17
ATOM     17  C   UNL d   1       4.389   0.628  -1.008  0.00  0.00     0.036 A 
ATOM     18  C   UNL d   1       5.059   1.804  -1.369  0.00  0.00     0.031 A 
ATOM     19  C   UNL d   1       6.448   1.789  -1.542  0.00  0.00     0.026 A 
ATOM     20  C   UNL d   1       7.158   0.608  -1.327  0.00  0.00     0.034 A 
ATOM     21 CL   UNL d   1       8.874   0.603  -1.412  0.00  0.00    -0.084 Cl
ATOM     22  C   UNL d   1       6.486  -0.571  -1.019  0.00  0.00     0.026 A 
ATOM     23  C   UNL d   1       5.101  -0.563  -0.885  0.00  0.00     0.031 A 
ENDBRANCH   4  17
TORSDOF 4
