REMARK  6 active torsions:
REMARK  status: ('A' for Active; 'I' for Inactive)
REMARK    1  A    between atoms: C_7  and  C_8 
REMARK       I    between atoms: C_8  and  N_10 
REMARK    2  A    between atoms: N_10  and  C_11 
REMARK    3  A    between atoms: C_11  and  C_13 
REMARK    4  A    between atoms: C_13  and  O_14 
REMARK    5  A    between atoms: C_13  and  C_15 
REMARK    6  A    between atoms: C_18  and  O_19 
ROOT
ATOM      1  C   UNL d   1       1.192  -5.450  -0.052  0.00  0.00     0.114 C 
ATOM      2  C   UNL d   1       0.463  -5.963  -1.298  0.00  0.00     0.035 C 
ENDROOT
BRANCH   1   3
ATOM      3  N   UNL d   1       1.166  -3.981  -0.025  0.00  0.00    -0.350 N 
ATOM      4  C   UNL d   1      -0.020  -3.272   0.034  0.00  0.00     0.252 C 
ATOM      5  O   UNL d   1      -1.117  -3.827   0.089  0.00  0.00    -0.268 OA
ATOM      6  H   UNL d   1       2.062  -3.517   0.033  0.00  0.00     0.163 HD
BRANCH   4   7
ATOM      7  C   UNL d   1       0.034  -1.780   0.015  0.00  0.00     0.033 A 
ATOM      8  C   UNL d   1      -1.181  -1.076   0.003  0.00  0.00     0.023 A 
ATOM      9  C   UNL d   1      -1.209   0.326  -0.004  0.00  0.00    -0.061 A 
ATOM     10  C   UNL d   1       0.002   1.027  -0.009  0.00  0.00     0.013 A 
ATOM     11  C   UNL d   1      -2.528   1.042  -0.006  0.00  0.00     0.048 C 
ATOM     12  C   UNL d   1       1.223   0.342  -0.001  0.00  0.00    -0.061 A 
ATOM     13  C   UNL d   1       2.530   1.078   0.007  0.00  0.00     0.048 C 
ATOM     14  C   UNL d   1       1.232  -1.061   0.009  0.00  0.00     0.023 A 
ENDBRANCH   4   7
ENDBRANCH   1   3
BRANCH   1  15
ATOM     15  C   UNL d   1       2.657  -5.991  -0.017  0.00  0.00     0.173 C 
BRANCH  15  16
ATOM     16  O   UNL d   1       3.357  -5.439   1.108  0.00  0.00    -0.389 OA
ATOM     17  H   UNL d   1       2.881  -5.711   1.910  0.00  0.00     0.210 HD
ENDBRANCH  15  16
BRANCH  15  18
ATOM     18  C   UNL d   1       2.711  -7.510   0.007  0.00  0.00    -0.028 A 
ATOM     19  C   UNL d   1       2.749  -8.230  -1.205  0.00  0.00     0.012 A 
ATOM     20  C   UNL d   1       2.698  -9.628  -1.216  0.00  0.00     0.037 A 
ATOM     21  C   UNL d   1       2.639 -10.313  -0.009  0.00  0.00     0.065 A 
ATOM     22  C   UNL d   1       2.598  -9.625   1.196  0.00  0.00     0.037 A 
ATOM     23  C   UNL d   1       2.623  -8.232   1.205  0.00  0.00     0.012 A 
BRANCH  21  24
ATOM     24  O   UNL d   1       2.614 -11.674   0.053  0.00  0.00    -0.361 OA
ATOM     25  H   UNL d   1       2.683 -12.033  -0.846  0.00  0.00     0.217 HD
ENDBRANCH  21  24
ENDBRANCH  15  18
ENDBRANCH   1  15
TORSDOF 6
