@<TRIPOS>MOLECULE
*****
 58 61 0 0 0
SMALL
GASTEIGER

@<TRIPOS>ATOM
      1 CG1         3.6208   -3.4890   -1.1712 C.3     1  VAL1       -0.0606
      2 CB          2.6945   -2.3649   -0.7108 C.3     1  VAL1       -0.0230
      3 CG2         2.0906   -1.7725   -1.9844 C.3     1  VAL1       -0.0606
      4 CA          3.4163   -1.3149    0.2328 C.3     1  VAL1        0.0649
      5 N           2.8701    0.0710    0.0457 N.am    1  VAL1       -0.3056
      6 C           3.4651    1.2960   -0.1619 C.2     0  UNK0        0.2345
      7 O           4.6706    1.5119   -0.0727 O.2     0  UNK0       -0.2737
      8 C           2.5345    2.5050   -0.5677 C.3     0  UNK0        0.1103
      9 C           1.4038    2.7561    0.4644 C.3     0  UNK0        0.0017
     10 C           0.3681    1.6784    0.6122 C.ar    0  UNK0       -0.0201
     11 C           0.1802    0.5771   -0.1893 C.ar    0  UNK0        0.0060
     12 N          -0.4897   -0.3541    0.5497 N.ar    0  UNK0       -0.3604
     13 C          -1.3034    0.3517    1.3936 C.ar    0  UNK0        0.0467
     14 C          -2.4736   -0.0264    2.0405 C.ar    0  UNK0       -0.0378
     15 C          -3.1629    0.9984    2.6901 C.ar    0  UNK0       -0.0598
     16 C          -2.6442    2.2948    2.7766 C.ar    0  UNK0       -0.0611
     17 C          -1.4094    2.6180    2.2181 C.ar    0  UNK0       -0.0523
     18 C          -0.7604    1.6392    1.4640 C.ar    0  UNK0        0.0029
     19 N           3.3660    3.7413   -0.8523 N.am    0  UNK0       -0.2445
     20 C           3.0058    5.0082   -0.4467 C.2     0  UNK0        0.2521
     21 O           2.5318    5.2930    0.6574 O.2     0  UNK0       -0.2698
     22 C           3.1765    6.0739   -1.4669 C.ar    0  UNK0        0.0579
     23 C           2.6428    7.3463   -1.2597 C.ar    0  UNK0       -0.0478
     24 C           2.7430    8.3006   -2.2679 C.ar    0  UNK0       -0.0609
     25 C           3.3843    7.9832   -3.4669 C.ar    0  UNK0       -0.0600
     26 C           3.9154    6.7053   -3.6686 C.ar    0  UNK0       -0.0400
     27 C           3.8085    5.7340   -2.6732 C.ar    0  UNK0        0.0424
     28 N           4.3068    4.4600   -2.8523 N.pl3   0  UNK0       -0.3031
     29 C           4.5385    3.6460   -1.6933 C.3     0  UNK0        0.1965
     30 O           5.6617    4.1626   -1.0083 O.3     0  UNK0       -0.3588
     31 C           4.9532   -1.5491    0.4144 C.2     1  VAL1        0.0622
     32 O           5.7477   -0.7393   -0.1195 O.co2   1  VAL1       -0.5479
     33 OXT         5.2415   -2.6130    1.0455 O.co2   1  VAL1       -0.5479
     34 HG11        3.1215   -4.1663   -1.8709 H       1  VAL1        0.0233
     35 HG12        3.9554   -4.0982   -0.3294 H       1  VAL1        0.0233
     36 HG13        4.4855   -3.0604   -1.6883 H       1  VAL1        0.0233
     37 HB          1.8637   -2.8301   -0.1526 H       1  VAL1        0.0317
     38 HG21        2.8002   -1.1093   -2.4838 H       1  VAL1        0.0233
     39 HG22        1.1786   -1.2384   -1.7695 H       1  VAL1        0.0233
     40 HG23        1.7594   -2.5409   -2.6901 H       1  VAL1        0.0233
     41 HA          3.0155   -1.5618    1.2345 H       1  VAL1        0.0562
     42 H           2.0711    0.1552    0.6435 H       1  VAL1        0.1494
     43 H           2.0659    2.2645   -1.5374 H       0  UNK0        0.0601
     44 H           0.8444    3.6604    0.1985 H       0  UNK0        0.0337
     45 H           1.8779    2.9273    1.4400 H       0  UNK0        0.0337
     46 H           0.6878    0.3333   -1.0980 H       0  UNK0        0.0810
     47 H          -0.5319   -1.3503    0.3652 H       0  UNK0        0.1653
     48 H          -2.8748   -1.0302    1.9549 H       0  UNK0        0.0638
     49 H          -4.1369    0.7853    3.1178 H       0  UNK0        0.0618
     50 H          -3.2156    3.0805    3.2579 H       0  UNK0        0.0618
     51 H          -1.0141    3.6280    2.2414 H       0  UNK0        0.0624
     52 H           2.1360    7.5767   -0.3262 H       0  UNK0        0.0626
     53 H           2.3176    9.2888   -2.1194 H       0  UNK0        0.0618
     54 H           3.4730    8.7331   -4.2484 H       0  UNK0        0.0618
     55 H           4.4248    6.4793   -4.6016 H       0  UNK0        0.0636
     56 H           4.7416    4.1568   -3.7090 H       0  UNK0        0.1501
     57 H           4.7687    2.6328   -2.0242 H       0  UNK0        0.1036
     58 H           5.4103    5.0368   -0.6880 H       0  UNK0        0.2134
@<TRIPOS>UNITY_ATOM_ATTR
33 1
charge -1
@<TRIPOS>BOND
     1     1     2    1
     2     2     3    1
     3     5     6   am
     4     6     7    2
     5     6     8    1
     6     8     9    1
     7     9    10    1
     8    10    11   ar
     9    11    12   ar
    10    12    13   ar
    11    13    14   ar
    12    14    15   ar
    13    15    16   ar
    14    16    17   ar
    15    17    18   ar
    16    10    18   ar
    17    13    18   ar
    18     8    19    1
    19    19    20   am
    20    20    21    2
    21    20    22    1
    22    22    23   ar
    23    23    24   ar
    24    24    25   ar
    25    25    26   ar
    26    26    27   ar
    27    22    27   ar
    28    27    28    1
    29    28    29    1
    30    19    29    1
    31     4    31    1
    32    31    32   ar
    33    31    33   ar
    34    29    30    1
    35     4     5    1
    36     4     2    1
    37     1    34    1
    38     1    35    1
    39     1    36    1
    40     2    37    1
    41     3    38    1
    42     3    39    1
    43     3    40    1
    44     4    41    1
    45     5    42    1
    46     8    43    1
    47     9    44    1
    48     9    45    1
    49    11    46    1
    50    12    47    1
    51    14    48    1
    52    15    49    1
    53    16    50    1
    54    17    51    1
    55    23    52    1
    56    24    53    1
    57    25    54    1
    58    26    55    1
    59    28    56    1
    60    29    57    1
    61    30    58    1
