@<TRIPOS>MOLECULE
*****
 50 51 0 0 0
SMALL
GASTEIGER

@<TRIPOS>ATOM
      1 C           1.1065   -0.0968   -0.0213 C.3     1  UNL1        0.0788
      2 O           2.5310   -0.1633    0.0476 O.3     1  UNL1       -0.4951
      3 C           3.1412   -0.5863   -1.1009 C.ar    1  UNL1        0.1203
      4 C           4.2636   -1.4031   -0.9672 C.ar    1  UNL1       -0.0165
      5 C           5.0015   -1.7946   -2.1011 C.ar    1  UNL1       -0.0165
      6 C           4.5751   -1.4481   -3.3902 C.ar    1  UNL1        0.1218
      7 O           5.3380   -1.9049   -4.4417 O.3     1  UNL1       -0.4798
      8 C           4.9359   -1.6343   -5.8057 C.3     1  UNL1        0.1741
      9 C           5.0924   -0.1399   -6.1071 C.3     1  UNL1       -0.0190
     10 C           5.8169   -2.4410   -6.8504 C.2     1  UNL1        0.2696
     11 O           6.7248   -3.2076   -6.5172 O.2     1  UNL1       -0.2702
     12 N           5.5174   -2.2550   -8.2079 N.am    1  UNL1       -0.2301
     13 N           6.3157   -2.9061   -9.2205 N.am    1  UNL1       -0.2181
     14 C           6.0385   -2.6938  -10.5629 C.2     1  UNL1        0.3160
     15 O           5.1233   -1.9589  -10.9442 O.2     1  UNL1       -0.2513
     16 N           6.8618   -3.3674  -11.4527 N.am    1  UNL1       -0.2982
     17 C           6.6806   -3.2440  -12.9053 C.3     1  UNL1        0.0147
     18 C           7.6788   -4.0597  -13.7419 C.3     1  UNL1       -0.0191
     19 C           7.4494   -3.9010  -15.2522 C.3     1  UNL1        0.0296
     20 N           8.3836   -4.7338  -16.0399 N.ar    1  UNL1       -0.2957
     21 C           8.3222   -6.1198  -16.1607 C.ar    1  UNL1        0.0732
     22 C           9.3308   -6.4951  -17.0016 C.ar    1  UNL1        0.1870
     23 N           9.9712   -5.3372  -17.3724 N.ar    1  UNL1       -0.2011
     24 C           9.3995   -4.2750  -16.7933 C.ar    1  UNL1        0.2463
     25 C           3.4296   -0.6596   -3.5009 C.ar    1  UNL1       -0.0165
     26 C           2.7519   -0.1868   -2.3716 C.ar    1  UNL1       -0.0165
     27 H           0.7409    0.2940    0.9332 H       1  UNL1        0.0660
     28 H           0.6898   -1.0991   -0.1629 H       1  UNL1        0.0660
     29 H           0.7435    0.5828   -0.7987 H       1  UNL1        0.0660
     30 H           4.5628   -1.7426    0.0224 H       1  UNL1        0.0655
     31 H           5.9113   -2.3750   -1.9604 H       1  UNL1        0.0655
     32 H           3.9011   -1.9791   -5.9393 H       1  UNL1        0.0829
     33 H           6.1375    0.1569   -5.9854 H       1  UNL1        0.0270
     34 H           4.5380    0.5129   -5.4302 H       1  UNL1        0.0270
     35 H           4.7538    0.1051   -7.1154 H       1  UNL1        0.0270
     36 H           4.7789   -1.6456   -8.5550 H       1  UNL1        0.1729
     37 H           7.0664   -3.4963   -8.8707 H       1  UNL1        0.1744
     38 H           7.5932   -3.9588  -11.0825 H       1  UNL1        0.1503
     39 H           6.7612   -2.1822  -13.1665 H       1  UNL1        0.0463
     40 H           5.6572   -3.5590  -13.1439 H       1  UNL1        0.0463
     41 H           7.5987   -5.1206  -13.4769 H       1  UNL1        0.0297
     42 H           8.7064   -3.7595  -13.5061 H       1  UNL1        0.0297
     43 H           7.5742   -2.8574  -15.5647 H       1  UNL1        0.0494
     44 H           6.4338   -4.2087  -15.5303 H       1  UNL1        0.0494
     45 H           7.5611   -6.6600  -15.6245 H       1  UNL1        0.0871
     46 H           9.6769   -7.4382  -17.3883 H       1  UNL1        0.1392
     47 H          10.7683   -5.2862  -18.0043 H       1  UNL1        0.4538
     48 H           9.7055   -3.2423  -16.9189 H       1  UNL1        0.1600
     49 H           3.0264   -0.3513   -4.4552 H       1  UNL1        0.0655
     50 H           1.9323    0.5067   -2.5240 H       1  UNL1        0.0655
@<TRIPOS>UNITY_ATOM_ATTR
23 1
charge 1
@<TRIPOS>BOND
     1     1     2    1
     2     2     3    1
     3     3     4   ar
     4     4     5   ar
     5     5     6   ar
     6     6     7    1
     7     7     8    1
     8     8     9    1
     9     8    10    1
    10    10    11    2
    11    10    12   am
    12    12    13    1
    13    13    14   am
    14    14    15    2
    15    14    16   am
    16    16    17    1
    17    17    18    1
    18    18    19    1
    19    19    20    1
    20    20    21   ar
    21    21    22   ar
    22    22    23   ar
    23    23    24   ar
    24    20    24   ar
    25     6    25   ar
    26    25    26   ar
    27     3    26   ar
    28     1    27    1
    29     1    28    1
    30     1    29    1
    31     4    30    1
    32     5    31    1
    33     8    32    1
    34     9    33    1
    35     9    34    1
    36     9    35    1
    37    12    36    1
    38    13    37    1
    39    16    38    1
    40    17    39    1
    41    17    40    1
    42    18    41    1
    43    18    42    1
    44    19    43    1
    45    19    44    1
    46    21    45    1
    47    22    46    1
    48    23    47    1
    49    24    48    1
    50    25    49    1
    51    26    50    1
