@<TRIPOS>MOLECULE
*****
 39 41 0 0 0
SMALL
GASTEIGER

@<TRIPOS>ATOM
      1 O           1.1337    0.1506   -0.0042 O.2     1  UNL1       -0.2741
      2 C           2.3662    0.0791   -0.0504 C.2     1  UNL1        0.2325
      3 C           3.1086   -1.0674   -0.7093 C.3     1  UNL1        0.0296
      4 C           2.1452   -2.0874   -1.3066 C.3     1  UNL1       -0.0174
      5 C           2.8309   -3.2575   -1.9454 C.ar    1  UNL1       -0.0219
      6 C           3.8523   -3.2390   -2.8759 C.ar    1  UNL1        0.0059
      7 N           4.1573   -4.5337   -3.2090 N.ar    1  UNL1       -0.3604
      8 C           3.3153   -5.4039   -2.5552 C.ar    1  UNL1        0.0467
      9 C           3.2076   -6.7992   -2.6250 C.ar    1  UNL1       -0.0378
     10 C           2.2132   -7.4110   -1.8516 C.ar    1  UNL1       -0.0598
     11 C           1.3836   -6.6631   -1.0206 C.ar    1  UNL1       -0.0611
     12 C           1.5199   -5.2763   -0.9490 C.ar    1  UNL1       -0.0523
     13 C           2.4886   -4.6303   -1.7413 C.ar    1  UNL1        0.0028
     14 N           3.1380    1.0697    0.5195 N.am    1  UNL1       -0.2070
     15 N           4.5000    1.0475    0.4749 N.2     1  UNL1       -0.1877
     16 C           5.1144    1.9964    1.1099 C.2     1  UNL1        0.0528
     17 C           6.5923    2.0781    1.1014 C.ar    1  UNL1       -0.0055
     18 C           7.2913    2.5095    2.2335 C.ar    1  UNL1       -0.0531
     19 C           8.6814    2.6653    2.1701 C.ar    1  UNL1       -0.0612
     20 C           9.3710    2.3480    0.9983 C.ar    1  UNL1       -0.0617
     21 C           8.6713    1.9046   -0.1235 C.ar    1  UNL1       -0.0612
     22 C           7.2827    1.7713   -0.0741 C.ar    1  UNL1       -0.0531
     23 H           3.7412   -1.5542    0.0426 H       1  UNL1        0.0362
     24 H           3.7525   -0.6581   -1.4954 H       1  UNL1        0.0362
     25 H           1.4964   -1.6152   -2.0550 H       1  UNL1        0.0318
     26 H           1.4770   -2.4475   -0.5137 H       1  UNL1        0.0318
     27 H           4.3842   -2.4145   -3.3320 H       1  UNL1        0.0810
     28 H           4.8716   -4.8108   -3.8680 H       1  UNL1        0.1653
     29 H           3.8519   -7.3907   -3.2670 H       1  UNL1        0.0638
     30 H           2.0802   -8.4888   -1.9024 H       1  UNL1        0.0618
     31 H           0.6150   -7.1515   -0.4280 H       1  UNL1        0.0618
     32 H           0.8672   -4.6976   -0.3029 H       1  UNL1        0.0624
     33 H           2.6396    1.8344    0.9626 H       1  UNL1        0.1772
     34 H           4.5797    2.7858    1.6702 H       1  UNL1        0.0851
     35 H           6.7787    2.7034    3.1718 H       1  UNL1        0.0624
     36 H           9.2332    3.0378    3.0308 H       1  UNL1        0.0618
     37 H          10.4543    2.4427    0.9591 H       1  UNL1        0.0618
     38 H           9.2051    1.6744   -1.0420 H       1  UNL1        0.0618
     39 H           6.7397    1.4468   -0.9580 H       1  UNL1        0.0624
@<TRIPOS>BOND
     1     1     2    2
     2     2     3    1
     3     3     4    1
     4     4     5    1
     5     5     6   ar
     6     6     7   ar
     7     7     8   ar
     8     8     9   ar
     9     9    10   ar
    10    10    11   ar
    11    11    12   ar
    12    12    13   ar
    13     5    13   ar
    14     8    13   ar
    15     2    14   am
    16    14    15    1
    17    15    16    2
    18    16    17    1
    19    17    18   ar
    20    18    19   ar
    21    19    20   ar
    22    20    21   ar
    23    21    22   ar
    24    17    22   ar
    25     3    23    1
    26     3    24    1
    27     4    25    1
    28     4    26    1
    29     6    27    1
    30     7    28    1
    31     9    29    1
    32    10    30    1
    33    11    31    1
    34    12    32    1
    35    14    33    1
    36    16    34    1
    37    18    35    1
    38    19    36    1
    39    20    37    1
    40    21    38    1
    41    22    39    1
