@<TRIPOS>MOLECULE
*****
 37 39 0 0 0
SMALL
GASTEIGER

@<TRIPOS>ATOM
      1 O           1.0976   -0.0282    0.0095 O.2     1  UNL1       -0.2687
      2 C           2.3274   -0.0158   -0.0276 C.2     1  UNL1        0.2601
      3 N           3.0756   -1.0817   -0.5157 N.am    1  UNL1       -0.2300
      4 N           2.4008   -2.2580   -0.9458 N.am    1  UNL1       -0.2276
      5 C           3.1093   -3.3947   -1.3337 C.2     1  UNL1        0.2954
      6 O           4.3436   -3.4366   -1.2534 O.2     1  UNL1       -0.2653
      7 C           2.2850   -4.4737   -1.8631 C.ar    1  UNL1        0.1905
      8 C           1.2024   -4.4393   -2.7269 C.ar    1  UNL1       -0.0112
      9 C           0.7656   -5.7722   -2.9152 C.ar    1  UNL1       -0.0231
     10 C           1.6106   -6.5570   -2.1678 C.ar    1  UNL1        0.0928
     11 O           2.5491   -5.7872   -1.5450 O.2     1  UNL1       -0.4583
     12 C           3.0845    1.1528    0.5241 C.ar    1  UNL1        0.0382
     13 C           4.2453    1.6434   -0.0798 C.ar    1  UNL1       -0.0490
     14 C           4.9777    2.6707    0.5386 C.ar    1  UNL1       -0.0533
     15 C           4.5290    3.2912    1.7192 C.ar    1  UNL1       -0.0178
     16 C           5.3083    4.3851    2.3271 C.ar    1  UNL1       -0.0179
     17 C           5.6666    5.5265    1.5865 C.ar    1  UNL1       -0.0540
     18 C           6.5523    6.4747    2.1083 C.ar    1  UNL1       -0.0612
     19 C           7.0255    6.3416    3.4108 C.ar    1  UNL1       -0.0617
     20 C           6.6325    5.2507    4.1821 C.ar    1  UNL1       -0.0612
     21 C           5.7833    4.2804    3.6432 C.ar    1  UNL1       -0.0540
     22 C           3.3456    2.8118    2.2970 C.ar    1  UNL1       -0.0533
     23 C           2.6246    1.7637    1.7004 C.ar    1  UNL1       -0.0490
     24 H           4.0886   -1.1459   -0.4287 H       1  UNL1        0.1731
     25 H           1.3830   -2.2364   -0.9028 H       1  UNL1        0.1732
     26 H           0.8003   -3.5487   -3.1854 H       1  UNL1        0.0657
     27 H          -0.0580   -6.1174   -3.5265 H       1  UNL1        0.0649
     28 H           1.6699   -7.6254   -1.9956 H       1  UNL1        0.1029
     29 H           4.5885    1.2589   -1.0361 H       1  UNL1        0.0625
     30 H           5.9319    2.9745    0.1076 H       1  UNL1        0.0624
     31 H           5.2642    5.6809    0.5868 H       1  UNL1        0.0624
     32 H           6.8861    7.3062    1.4921 H       1  UNL1        0.0618
     33 H           7.6997    7.0870    3.8247 H       1  UNL1        0.0618
     34 H           7.0090    5.1359    5.1951 H       1  UNL1        0.0618
     35 H           5.5169    3.4185    4.2505 H       1  UNL1        0.0624
     36 H           2.9810    3.2450    3.2276 H       1  UNL1        0.0624
     37 H           1.7057    1.4200    2.1711 H       1  UNL1        0.0625
@<TRIPOS>BOND
     1     1     2    2
     2     2     3   am
     3     3     4    1
     4     4     5   am
     5     5     6    2
     6     5     7    1
     7     7     8   ar
     8     8     9   ar
     9     9    10   ar
    10    10    11   ar
    11     7    11   ar
    12     2    12    1
    13    12    13   ar
    14    13    14   ar
    15    14    15   ar
    16    15    16    1
    17    16    17   ar
    18    17    18   ar
    19    18    19   ar
    20    19    20   ar
    21    20    21   ar
    22    16    21   ar
    23    15    22   ar
    24    22    23   ar
    25    12    23   ar
    26     3    24    1
    27     4    25    1
    28     8    26    1
    29     9    27    1
    30    10    28    1
    31    13    29    1
    32    14    30    1
    33    17    31    1
    34    18    32    1
    35    19    33    1
    36    20    34    1
    37    21    35    1
    38    22    36    1
    39    23    37    1
