@<TRIPOS>MOLECULE
*****
 44 46 0 0 0
SMALL
GASTEIGER

@<TRIPOS>ATOM
      1 O           1.1885    0.1064    0.2072 O.2     1  UNL1       -0.2742
      2 C           2.4231    0.0367    0.1357 C.2     1  UNL1        0.2323
      3 C           3.0509   -0.9712   -0.8290 C.3     1  UNL1        0.0595
      4 C           2.0239   -1.8217   -1.6394 C.3     1  UNL1        0.0979
      5 O           2.7217   -2.7975   -2.4530 O.3     1  UNL1       -0.4915
      6 C           1.9384   -3.5242   -3.3245 C.ar    1  UNL1        0.1205
      7 C           2.2675   -4.8720   -3.5235 C.ar    1  UNL1       -0.0199
      8 C           1.5643   -5.6507   -4.4561 C.ar    1  UNL1       -0.0583
      9 C           0.4958   -5.1010   -5.1612 C.ar    1  UNL1       -0.0615
     10 C           0.1733   -3.7591   -4.9801 C.ar    1  UNL1       -0.0583
     11 C           0.9048   -2.9712   -4.0830 C.ar    1  UNL1       -0.0199
     12 N           3.2251    0.8748    0.9525 N.am    1  UNL1       -0.2343
     13 N           4.7540    1.0818    0.9385 N.am    1  UNL1       -0.2341
     14 C           5.4636    2.0919    1.7949 C.2     1  UNL1        0.2335
     15 O           4.7984    2.7419    2.6044 O.2     1  UNL1       -0.2739
     16 C           7.2314    2.2398    1.5801 C.3     1  UNL1        0.0525
     17 C           8.4899    3.0854    2.5725 C.ar    1  UNL1       -0.0136
     18 C           8.6456    2.3141    3.6466 C.ar    1  UNL1        0.0064
     19 N           8.6695    3.4193    4.4739 N.ar    1  UNL1       -0.3603
     20 C           9.9295    3.8751    4.2339 C.ar    1  UNL1        0.0481
     21 C          10.7584    4.2365    5.3564 C.ar    1  UNL1       -0.0194
     22 C          12.0645    4.6005    5.2865 C.ar    1  UNL1        0.0430
     23 CL         12.9439    5.0302    6.7016 Cl      1  UNL1       -0.0835
     24 C          12.5270    4.5832    4.0098 C.ar    1  UNL1       -0.0427
     25 C          11.5962    4.1379    2.8925 C.ar    1  UNL1       -0.0509
     26 C          10.0245    3.9863    2.7012 C.ar    1  UNL1        0.0034
     27 H           3.6841   -1.6513   -0.2558 H       1  UNL1        0.0392
     28 H           3.6707   -0.4202   -1.5403 H       1  UNL1        0.0392
     29 H           1.4235   -1.1495   -2.2612 H       1  UNL1        0.0701
     30 H           1.3475   -2.3725   -0.9731 H       1  UNL1        0.0701
     31 H           3.0666   -5.3339   -2.9495 H       1  UNL1        0.0654
     32 H           1.8498   -6.6848   -4.6380 H       1  UNL1        0.0619
     33 H          -0.0792   -5.7108   -5.8544 H       1  UNL1        0.0618
     34 H          -0.6393   -3.3141   -5.5490 H       1  UNL1        0.0619
     35 H           0.6552   -1.9193   -4.0177 H       1  UNL1        0.0654
     36 H           2.6921    1.5054    1.5569 H       1  UNL1        0.1728
     37 H           5.2375    0.3780    0.3947 H       1  UNL1        0.1728
     38 H           7.4438    2.2856    0.5113 H       1  UNL1        0.0408
     39 H           7.4511    1.2430    1.9459 H       1  UNL1        0.0408
     40 H           9.4404    1.5900    3.6012 H       1  UNL1        0.0810
     41 H           7.9532    4.1225    4.5804 H       1  UNL1        0.1653
     42 H          10.3169    4.1256    6.3450 H       1  UNL1        0.0653
     43 H          13.5980    4.8043    3.8867 H       1  UNL1        0.0632
     44 H          12.1564    4.3769    1.9308 H       1  UNL1        0.0625
@<TRIPOS>BOND
     1     1     2    2
     2     2     3    1
     3     3     4    1
     4     4     5    1
     5     5     6    1
     6     6     7   ar
     7     7     8   ar
     8     8     9   ar
     9     9    10   ar
    10    10    11   ar
    11     6    11   ar
    12     2    12   am
    13    12    13    1
    14    13    14   am
    15    14    15    2
    16    14    16    1
    17    16    17    1
    18    17    18   ar
    19    18    19   ar
    20    19    20   ar
    21    20    21   ar
    22    21    22   ar
    23    22    23    1
    24    22    24   ar
    25    24    25   ar
    26    25    26   ar
    27    17    26   ar
    28    20    26   ar
    29     3    27    1
    30     3    28    1
    31     4    29    1
    32     4    30    1
    33     7    31    1
    34     8    32    1
    35     9    33    1
    36    10    34    1
    37    11    35    1
    38    12    36    1
    39    13    37    1
    40    16    38    1
    41    16    39    1
    42    18    40    1
    43    19    41    1
    44    21    42    1
    45    24    43    1
    46    25    44    1
