REMARK  10 active torsions:
REMARK  status: ('A' for Active; 'I' for Inactive)
REMARK    1  A    between atoms: C_2  and  N_3 
REMARK    2  A    between atoms: N_3  and  C_4 
REMARK    3  A    between atoms: N_3  and  C_6 
REMARK    4  A    between atoms: C_9  and  N_10 
REMARK    5  A    between atoms: C_16  and  N_17 
REMARK    6  A    between atoms: N_17  and  C_18 
REMARK    7  A    between atoms: C_18  and  N_20 
REMARK       I    between atoms: N_20  and  C_21 
REMARK    8  A    between atoms: C_21  and  C_23 
REMARK    9  A    between atoms: C_26  and  O_27 
REMARK   10  A    between atoms: C_30  and  O_31 
ROOT
ATOM      1  N   UNL d   1       8.811  -2.356  -0.595  0.00  0.00    -0.150 N 
ATOM      2  N   UNL d   1       9.529  -1.425  -1.252  0.00  0.00    -0.147 NA
ATOM      3  C   UNL d   1      10.735  -1.980  -1.110  0.00  0.00     0.110 C 
ATOM      4  C   UNL d   1      11.620  -2.374  -2.100  0.00  0.00     0.045 C 
ATOM      5  C   UNL d   1      12.762  -3.103  -1.647  0.00  0.00    -0.033 C 
ATOM      6  C   UNL d   1      13.314  -4.091  -2.635  0.00  0.00     0.050 C 
ATOM      7  C   UNL d   1      13.232  -3.064  -0.299  0.00  0.00     0.042 C 
ATOM      8  C   UNL d   1      12.207  -2.849   0.684  0.00  0.00     0.066 C 
ATOM      9  C   UNL d   1      10.857  -2.551   0.193  0.00  0.00     0.111 C 
ATOM     10  N   UNL d   1       9.555  -2.951   0.462  0.00  0.00    -0.147 NA
ENDROOT
BRANCH   7  11
ATOM     11  N   UNL d   1      14.701  -3.285  -0.068  0.00  0.00    -0.333 N 
ATOM     12  H   UNL d   1      15.214  -3.458  -0.930  0.00  0.00     0.168 HD
BRANCH  11  13
ATOM     13  C   UNL d   1      15.524  -2.897   1.032  0.00  0.00     0.179 C 
ATOM     14  S   UNL d   1      14.973  -1.909   2.271  0.00  0.00    -0.040 SA
BRANCH  13  15
ATOM     15  N   UNL d   1      16.907  -3.325   0.960  0.00  0.00    -0.299 N 
ATOM     16  C   UNL d   1      17.992  -2.892   1.754  0.00  0.00     0.260 C 
ATOM     17  O   UNL d   1      17.829  -2.322   2.893  0.00  0.00    -0.267 OA
ATOM     18  H   UNL d   1      17.176  -3.974   0.216  0.00  0.00     0.171 HD
BRANCH  16  19
ATOM     19  C   UNL d   1      19.443  -3.051   1.420  0.00  0.00     0.065 A 
ATOM     20  C   UNL d   1      20.267  -3.488   2.495  0.00  0.00     0.022 A 
ATOM     21  C   UNL d   1      21.670  -3.471   2.435  0.00  0.00     0.038 A 
ATOM     22  C   UNL d   1      22.310  -3.056   1.275  0.00  0.00     0.070 A 
ATOM     23  C   UNL d   1      21.524  -2.581   0.225  0.00  0.00     0.074 A 
ATOM     24  C   UNL d   1      20.101  -2.546   0.283  0.00  0.00     0.086 A 
BRANCH  22  25
ATOM     25  O   UNL d   1      23.676  -3.142   1.291  0.00  0.00    -0.356 OA
ATOM     26  C   UNL d   1      24.353  -2.892   0.063  0.00  0.00     0.210 C 
ENDBRANCH  22  25
BRANCH  24  27
ATOM     27  O   UNL d   1      19.601  -1.933  -0.832  0.00  0.00    -0.355 OA
ATOM     28  C   UNL d   1      18.234  -1.592  -0.897  0.00  0.00     0.210 C 
ENDBRANCH  24  27
ENDBRANCH  16  19
ENDBRANCH  13  15
ENDBRANCH  11  13
ENDBRANCH   7  11
BRANCH   1  29
ATOM     29  C   UNL d   1       7.363  -2.228  -0.692  0.00  0.00     0.079 A 
ATOM     30  C   UNL d   1       6.585  -2.319  -1.887  0.00  0.00     0.036 A 
ATOM     31  C   UNL d   1       5.178  -1.962  -1.903  0.00  0.00     0.039 A 
ATOM     32  C   UNL d   1       4.545  -1.510  -0.731  0.00  0.00     0.134 A 
ATOM     33  C   UNL d   1       5.366  -1.335   0.390  0.00  0.00     0.039 A 
ATOM     34  C   UNL d   1       6.729  -1.689   0.415  0.00  0.00     0.036 A 
BRANCH  32  35
ATOM     35  N   UNL d   1       3.026  -1.370  -0.479  0.00  0.00    -0.042 N 
ATOM     36  H   UNL d   1       2.952  -1.881   0.409  0.00  0.00     0.286 HD
BRANCH  35  37
ATOM     37  C   UNL d   1       2.647   0.048  -0.023  0.00  0.00     0.237 C 
ATOM     38  C   UNL d   1       1.166   0.316   0.210  0.00  0.00     0.035 C 
ENDBRANCH  35  37
BRANCH  35  39
ATOM     39  C   UNL d   1       2.176  -2.274  -1.361  0.00  0.00     0.237 C 
ATOM     40  C   UNL d   1       0.667  -2.129  -1.220  0.00  0.00     0.035 C 
ENDBRANCH  35  39
ENDBRANCH  32  35
ENDBRANCH   1  29
TORSDOF 10
