REMARK  7 active torsions:
REMARK  status: ('A' for Active; 'I' for Inactive)
REMARK    1  A    between atoms: O_1  and  C_2 
REMARK    2  A    between atoms: C_3  and  C_2 
REMARK    3  A    between atoms: C_3  and  O_4 
REMARK    4  A    between atoms: N_8  and  C_9 
REMARK    5  A    between atoms: N_13  and  C_14 
REMARK    6  A    between atoms: C_17  and  O_18 
REMARK    7  A    between atoms: O_18  and  C_19 
ROOT
ATOM      1  C   UNL d   1       2.918   6.100  -0.288  0.00  0.00     0.737 A 
ATOM      2  N   UNL d   1       2.160   6.991  -0.910  0.00  0.00     0.030 NA
ATOM      3  N   UNL d   1       2.347   8.192  -0.267  0.00  0.00     0.033 NA
ATOM      4  N   UNL d   1       3.206   8.077   0.736  0.00  0.00     0.016 NA
ATOM      5  N   UNL d   1       3.633   6.798   0.692  0.00  0.00    -0.070 N 
ENDROOT
BRANCH   5   6
ATOM      6  C   UNL d   1       4.766   6.394   1.424  0.00  0.00     0.072 A 
ATOM      7  C   UNL d   1       4.860   6.689   2.788  0.00  0.00     0.034 A 
ATOM      8  C   UNL d   1       5.999   6.287   3.494  0.00  0.00     0.039 A 
ATOM      9  C   UNL d   1       7.025   5.584   2.848  0.00  0.00     0.076 A 
ATOM     10  C   UNL d   1       6.921   5.325   1.477  0.00  0.00     0.039 A 
ATOM     11  C   UNL d   1       5.799   5.731   0.763  0.00  0.00     0.034 A 
BRANCH   9  12
ATOM     12  O   UNL d   1       8.061   5.156   3.655  0.00  0.00    -0.311 OA
BRANCH  12  13
ATOM     13  C   UNL d   1       9.106   4.462   3.089  0.00  0.00     0.076 A 
ATOM     14  C   UNL d   1       9.363   3.167   3.540  0.00  0.00     0.037 A 
ATOM     15  C   UNL d   1      10.463   2.465   3.042  0.00  0.00     0.003 A 
ATOM     16  C   UNL d   1      11.270   3.037   2.057  0.00  0.00     0.000 A 
ATOM     17  C   UNL d   1      11.009   4.330   1.605  0.00  0.00     0.003 A 
ATOM     18  C   UNL d   1       9.951   5.057   2.149  0.00  0.00     0.037 A 
ENDBRANCH  12  13
ENDBRANCH   9  12
ENDBRANCH   5   6
BRANCH   1  19
ATOM     19  N   UNL d   1       2.958   4.740  -0.461  0.00  0.00    -0.213 N 
ATOM     20  C   UNL d   1       3.264   4.171  -1.771  0.00  0.00     0.141 C 
ATOM     21  C   UNL d   1       4.232   2.971  -1.678  0.00  0.00     0.023 C 
ATOM     22  C   UNL d   1       3.527   1.622  -1.446  0.00  0.00     0.042 C 
ATOM     23  C   UNL d   1       3.000   1.404  -0.010  0.00  0.00     0.080 C 
ATOM     24  C   UNL d   1       2.041   2.557   0.363  0.00  0.00     0.060 C 
ATOM     25  C   UNL d   1       2.761   3.873   0.695  0.00  0.00     0.144 C 
BRANCH  23  26
ATOM     26  O   UNL d   1       2.236   0.186   0.030  0.00  0.00    -0.388 OA
ATOM     27  H   UNL d   1       1.772   0.051  -0.811  0.00  0.00     0.210 HD
ENDBRANCH  23  26
BRANCH  23  28
ATOM     28  C   UNL d   1       4.156   1.307   1.039  0.00  0.00     0.201 C 
BRANCH  28  29
ATOM     29  O   UNL d   1       4.464  -0.004   1.488  0.00  0.00    -0.398 OA
ATOM     30  H   UNL d   1       5.029   0.112   2.273  0.00  0.00     0.209 HD
ENDBRANCH  28  29
ENDBRANCH  23  28
ENDBRANCH   1  19
TORSDOF 7
