@<TRIPOS>MOLECULE
*****
 51 54 0 0 0
SMALL
GASTEIGER

@<TRIPOS>ATOM
      1 C           2.9663    0.4389   -1.4349 C.3     1  UNL1       -0.0456
      2 C           2.6195    0.1057    0.0403 C.3     1  UNL1        0.0366
      3 C           3.0204   -1.3388    0.3724 C.3     1  UNL1        0.0430
      4 C           4.4883   -1.5940    0.1463 C.2     1  UNL1        0.2190
      5 O           4.8833   -2.3214   -0.7817 O.2     1  UNL1       -0.2754
      6 N           5.3776   -0.9650    0.9770 N.am    1  UNL1       -0.2839
      7 C           5.6063    0.4074    0.7237 C.ar    1  UNL1        0.0550
      8 C           6.9228    0.6800    0.3235 C.ar    1  UNL1       -0.0387
      9 C           7.2722    1.9368   -0.1426 C.ar    1  UNL1       -0.0599
     10 C           6.3041    2.9369   -0.1735 C.ar    1  UNL1       -0.0599
     11 C           4.9888    2.6896    0.2846 C.ar    1  UNL1       -0.0385
     12 C           4.6067    1.4127    0.7460 C.ar    1  UNL1        0.0578
     13 N           3.1948    1.1019    0.9955 N.am    1  UNL1       -0.2657
     14 C           2.5336    1.6842    2.1189 C.2     1  UNL1        0.2303
     15 O           3.1439    2.4831    2.8413 O.2     1  UNL1       -0.2743
     16 C           1.0366    1.2843    2.4765 C.3     1  UNL1        0.0773
     17 S           0.4412    2.1733    4.0006 S.3     1  UNL1       -0.0876
     18 C          -1.2421    1.6983    4.2703 C.ar    1  UNL1        0.1604
     19 N          -1.6460    0.4522    4.3822 N.ar    1  UNL1       -0.1332
     20 N          -3.0022    0.3673    4.6982 N.ar    1  UNL1       -0.1252
     21 C          -3.5951    1.5409    4.8312 C.ar    1  UNL1        0.1826
     22 N          -4.9208    1.6579    5.1118 N.pl3   1  UNL1       -0.3179
     23 C          -5.6652    2.9012    5.2205 C.3     1  UNL1        0.0362
     24 C          -7.1645    2.7262    5.4621 C.ar    1  UNL1       -0.0303
     25 C          -7.7926    1.4792    5.6014 C.ar    1  UNL1       -0.0571
     26 C          -9.1844    1.3655    5.6271 C.ar    1  UNL1       -0.0615
     27 C          -9.9776    2.5046    5.6579 C.ar    1  UNL1       -0.0617
     28 C          -9.3751    3.7587    5.6725 C.ar    1  UNL1       -0.0615
     29 C          -7.9860    3.8711    5.5242 C.ar    1  UNL1       -0.0571
     30 S          -2.4902    2.8497    4.6003 S.2     1  UNL1       -0.0245
     31 H           2.5336   -0.2918   -2.1266 H       1  UNL1        0.0248
     32 H           4.0461    0.4354   -1.6238 H       1  UNL1        0.0248
     33 H           2.6004    1.4334   -1.7102 H       1  UNL1        0.0248
     34 H           1.5275    0.1659    0.1218 H       1  UNL1        0.0506
     35 H           2.4735   -2.0274   -0.2882 H       1  UNL1        0.0377
     36 H           2.7609   -1.6052    1.4007 H       1  UNL1        0.0377
     37 H           5.2527   -1.1523    1.9654 H       1  UNL1        0.1549
     38 H           7.6592   -0.1216    0.3095 H       1  UNL1        0.0637
     39 H           8.2813    2.1130   -0.5108 H       1  UNL1        0.0618
     40 H           6.5769    3.9073   -0.5865 H       1  UNL1        0.0618
     41 H           4.2628    3.4936    0.1894 H       1  UNL1        0.0637
     42 H           0.9770    0.2110    2.6718 H       1  UNL1        0.0475
     43 H           0.3734    1.5706    1.6575 H       1  UNL1        0.0475
     44 H          -5.4406    0.7925    5.1142 H       1  UNL1        0.1483
     45 H          -5.5583    3.4686    4.2863 H       1  UNL1        0.0511
     46 H          -5.2592    3.5024    6.0420 H       1  UNL1        0.0511
     47 H          -7.2305    0.5571    5.6866 H       1  UNL1        0.0621
     48 H          -9.6410    0.3790    5.6286 H       1  UNL1        0.0618
     49 H         -11.0597    2.4102    5.6855 H       1  UNL1        0.0618
     50 H          -9.9911    4.6481    5.7833 H       1  UNL1        0.0618
     51 H          -7.5545    4.8685    5.4529 H       1  UNL1        0.0621
@<TRIPOS>BOND
     1     2     3    1
     2     3     4    1
     3     4     5    2
     4     4     6   am
     5     6     7    1
     6     7     8   ar
     7     8     9   ar
     8     9    10   ar
     9    10    11   ar
    10    11    12   ar
    11     7    12   ar
    12    12    13    1
    13     2    13    1
    14    13    14   am
    15    14    15    2
    16    14    16    1
    17    16    17    1
    18    17    18    1
    19    18    19   ar
    20    19    20   ar
    21    20    21   ar
    22    21    22    1
    23    22    23    1
    24    23    24    1
    25    24    25   ar
    26    25    26   ar
    27    26    27   ar
    28    27    28   ar
    29    28    29   ar
    30    24    29   ar
    31    21    30   ar
    32    18    30   ar
    33     2     1    1
    34     1    31    1
    35     1    32    1
    36     1    33    1
    37     2    34    1
    38     3    35    1
    39     3    36    1
    40     6    37    1
    41     8    38    1
    42     9    39    1
    43    10    40    1
    44    11    41    1
    45    16    42    1
    46    16    43    1
    47    22    44    1
    48    23    45    1
    49    23    46    1
    50    25    47    1
    51    26    48    1
    52    27    49    1
    53    28    50    1
    54    29    51    1
