REMARK  7 active torsions:
REMARK  status: ('A' for Active; 'I' for Inactive)
REMARK    1  A    between atoms: C_6  and  C_7 
REMARK    2  A    between atoms: C_12  and  C_13 
REMARK    3  A    between atoms: N_20  and  C_21 
REMARK    4  A    between atoms: C_21  and  C_22 
REMARK    5  A    between atoms: C_22  and  C_23 
REMARK    6  A    between atoms: C_23  and  O_24 
REMARK    7  A    between atoms: C_27  and  O_28 
ROOT
ATOM      1  C   UNL d   1       0.952   2.657   0.079  0.00  0.00     0.074 A 
ATOM      2  N   UNL d   1       1.735   3.282  -0.871  0.00  0.00    -0.276 N 
ATOM      3  N   UNL d   1       2.052   4.574  -0.563  0.00  0.00    -0.168 NA
ATOM      4  C   UNL d   1       1.391   4.771   0.580  0.00  0.00     0.155 A 
ATOM      5  C   UNL d   1       0.734   3.626   1.019  0.00  0.00     0.035 A 
ATOM      6  C   UNL d   1      -0.004   3.889   2.264  0.00  0.00     0.162 C 
ATOM      7  N   UNL d   1       0.057   5.362   2.311  0.00  0.00    -0.333 N 
ATOM      8  C   UNL d   1       1.083   5.874   1.484  0.00  0.00     0.275 C 
ATOM      9  O   UNL d   1       1.603   6.982   1.534  0.00  0.00    -0.266 OA
ATOM     10  H   UNL d   1       2.071   2.886  -1.745  0.00  0.00     0.189 HD
ENDROOT
BRANCH   1  11
ATOM     11  C   UNL d   1       0.436   1.301  -0.009  0.00  0.00     0.032 A 
ATOM     12  C   UNL d   1      -0.963   1.085  -0.022  0.00  0.00    -0.046 A 
ATOM     13  C   UNL d   1      -1.455  -0.228  -0.005  0.00  0.00     0.014 A 
ATOM     14  C   UNL d   1      -1.954   2.216  -0.088  0.00  0.00     0.049 C 
ATOM     15  C   UNL d   1      -0.586  -1.323  -0.001  0.00  0.00    -0.059 A 
ATOM     16  C   UNL d   1      -1.120  -2.722  -0.009  0.00  0.00     0.048 C 
ATOM     17  C   UNL d   1       0.794  -1.103  -0.009  0.00  0.00     0.044 A 
ATOM     18  C   UNL d   1       1.300   0.194  -0.018  0.00  0.00     0.079 A 
BRANCH  18  19
ATOM     19  O   UNL d   1       2.667   0.296  -0.030  0.00  0.00    -0.360 OA
ATOM     20  H   UNL d   1       2.931   1.220   0.110  0.00  0.00     0.217 HD
ENDBRANCH  18  19
ENDBRANCH   1  11
BRANCH   6  21
ATOM     21  C   UNL d   1       0.760   3.246   3.385  0.00  0.00     0.008 A 
ATOM     22  C   UNL d   1       2.086   3.598   3.689  0.00  0.00     0.012 A 
ATOM     23  C   UNL d   1       2.717   3.082   4.814  0.00  0.00     0.001 A 
ATOM     24  C   UNL d   1       2.037   2.199   5.648  0.00  0.00     0.003 A 
ATOM     25  C   UNL d   1       0.733   1.810   5.342  0.00  0.00     0.043 A 
ATOM     26  C   UNL d   1       0.110   2.328   4.214  0.00  0.00     0.125 A 
ATOM     27  F   UNL d   1      -1.157   1.970   3.954  0.00  0.00    -0.205 F 
ENDBRANCH   6  21
BRANCH   7  28
ATOM     28  C   UNL d   1      -0.889   6.166   3.097  0.00  0.00     0.129 C 
BRANCH  28  29
ATOM     29  C   UNL d   1      -2.005   5.357   3.783  0.00  0.00     0.046 C 
BRANCH  29  30
ATOM     30  C   UNL d   1      -3.010   6.205   4.545  0.00  0.00     0.165 C 
BRANCH  30  31
ATOM     31  O   UNL d   1      -3.974   5.361   5.169  0.00  0.00    -0.401 OA
ATOM     32  H   UNL d   1      -4.441   4.861   4.477  0.00  0.00     0.209 HD
ENDBRANCH  30  31
ENDBRANCH  29  30
ENDBRANCH  28  29
ENDBRANCH   7  28
TORSDOF 7
