@<TRIPOS>MOLECULE
*****
 38 39 0 0 0
SMALL
GASTEIGER

@<TRIPOS>ATOM
      1 O           1.1637   -0.0427    0.1120 O.2     1  UNL1       -0.2743
      2 C           2.3928   -0.0433    0.0274 C.2     1  UNL1        0.2291
      3 C           3.1232    0.7122   -1.0831 C.3     1  UNL1        0.0268
      4 C           2.1547    1.3743   -2.0835 C.3     1  UNL1       -0.0291
      5 C           2.8942    2.1098   -3.2046 C.3     1  UNL1        0.0120
      6 N           2.0065    2.7433   -4.1703 N.am    1  UNL1       -0.3151
      7 C           2.5177    3.4477   -5.2421 C.2     1  UNL1        0.2161
      8 O           3.7225    3.5909   -5.4427 O.2     1  UNL1       -0.2755
      9 C           1.5127    4.0554   -6.1728 C.3     1  UNL1        0.0356
     10 C           1.6957    5.4799   -6.6631 C.3     1  UNL1       -0.0412
     11 C           1.8848    4.3387   -7.6181 C.3     1  UNL1       -0.0412
     12 N           3.1434   -0.7718    0.9377 N.am    1  UNL1       -0.2365
     13 N           4.5045   -0.5674    1.1154 N.pl3   1  UNL1       -0.2645
     14 C           5.2304   -1.3471    2.0392 C.ar    1  UNL1        0.0446
     15 C           4.8545   -2.6097    2.5220 C.ar    1  UNL1       -0.0367
     16 C           5.6567   -3.2871    3.4602 C.ar    1  UNL1       -0.0247
     17 C           6.8190   -2.6936    3.9393 C.ar    1  UNL1        0.1235
     18 F           7.5864   -3.3425    4.8256 F       1  UNL1       -0.2055
     19 C           7.1947   -1.4336    3.5046 C.ar    1  UNL1       -0.0247
     20 C           6.4034   -0.7707    2.5622 C.ar    1  UNL1       -0.0367
     21 H           3.7651    0.0013   -1.6149 H       1  UNL1        0.0359
     22 H           3.7536    1.4846   -0.6275 H       1  UNL1        0.0359
     23 H           1.4994    2.0780   -1.5544 H       1  UNL1        0.0285
     24 H           1.4974    0.6108   -2.5184 H       1  UNL1        0.0285
     25 H           3.5365    1.4125   -3.7549 H       1  UNL1        0.0462
     26 H           3.5388    2.8908   -2.7849 H       1  UNL1        0.0462
     27 H           1.0045    2.6675   -4.0510 H       1  UNL1        0.1487
     28 H           0.4874    3.7356   -6.0091 H       1  UNL1        0.0394
     29 H           2.5851    6.0276   -6.3675 H       1  UNL1        0.0273
     30 H           0.8223    6.1104   -6.7875 H       1  UNL1        0.0273
     31 H           2.8979    4.1343   -7.9510 H       1  UNL1        0.0273
     32 H           1.1410    4.1892   -8.3928 H       1  UNL1        0.0273
     33 H           2.6278   -1.1209    1.7435 H       1  UNL1        0.1727
     34 H           5.0531   -0.1688    0.3559 H       1  UNL1        0.1700
     35 H           3.9664   -3.1125    2.1494 H       1  UNL1        0.0637
     36 H           5.3906   -4.2792    3.8155 H       1  UNL1        0.0647
     37 H           8.0952   -0.9724    3.8969 H       1  UNL1        0.0647
     38 H           6.6955    0.2285    2.2479 H       1  UNL1        0.0637
@<TRIPOS>BOND
     1     1     2    2
     2     2     3    1
     3     3     4    1
     4     4     5    1
     5     5     6    1
     6     6     7   am
     7     7     8    2
     8     7     9    1
     9     9    10    1
    10    10    11    1
    11     9    11    1
    12     2    12   am
    13    12    13    1
    14    13    14    1
    15    14    15   ar
    16    15    16   ar
    17    16    17   ar
    18    17    18    1
    19    17    19   ar
    20    19    20   ar
    21    14    20   ar
    22     3    21    1
    23     3    22    1
    24     4    23    1
    25     4    24    1
    26     5    25    1
    27     5    26    1
    28     6    27    1
    29     9    28    1
    30    10    29    1
    31    10    30    1
    32    11    31    1
    33    11    32    1
    34    12    33    1
    35    13    34    1
    36    15    35    1
    37    16    36    1
    38    19    37    1
    39    20    38    1
