@<TRIPOS>MOLECULE
*****
 51 53 0 0 0
SMALL
GASTEIGER

@<TRIPOS>ATOM
      1 C           9.4280   -6.7408   -2.1314 C.3     1  UNL1        0.0790
      2 O           8.8854   -5.5073   -1.6763 O.3     1  UNL1       -0.4914
      3 C           7.5765   -5.0979   -1.7781 C.ar    1  UNL1        0.1618
      4 C           7.5509   -3.7307   -2.0877 C.ar    1  UNL1       -0.0122
      5 C           6.3586   -2.9877   -2.2083 C.ar    1  UNL1       -0.0315
      6 C           6.4603   -1.5077   -2.5256 C.3     1  UNL1        0.0478
      7 C           5.0965   -0.9117   -2.5260 C.ar    1  UNL1        0.0476
      8 C           4.0447   -1.1085   -3.4413 C.ar    1  UNL1        0.2356
      9 O           3.9834   -1.9441   -4.4845 O.3     1  UNL1       -0.4912
     10 N           2.9500   -0.4242   -3.1428 N.ar    1  UNL1       -0.1358
     11 N           3.3127    0.2725   -2.0503 N.ar    1  UNL1       -0.2781
     12 C           4.5965    0.0259   -1.6393 C.ar    1  UNL1        0.0408
     13 C           5.2630    0.6826   -0.4884 C.3     1  UNL1       -0.0225
     14 C           7.1220   -1.2935   -3.8462 C.ar    1  UNL1        0.0479
     15 C           7.4354   -0.0165   -4.3986 C.ar    1  UNL1        0.0675
     16 C           7.1332    1.3177   -3.8103 C.3     1  UNL1       -0.0202
     17 N           8.0234   -0.1213   -5.5981 N.ar    1  UNL1       -0.1759
     18 N           8.0531   -1.4420   -5.8225 N.ar    1  UNL1       -0.2465
     19 C           7.4849   -2.1967   -4.8412 C.ar    1  UNL1        0.2125
     20 O           7.3012   -3.5010   -4.9151 O.3     1  UNL1       -0.4925
     21 C           5.1548   -3.6674   -2.0044 C.ar    1  UNL1       -0.0540
     22 C           5.1472   -4.9896   -1.6074 C.ar    1  UNL1       -0.0160
     23 C           6.3408   -5.6946   -1.4228 C.ar    1  UNL1        0.1623
     24 O           6.0477   -6.8694   -0.7509 O.3     1  UNL1       -0.4857
     25 C           7.1800   -7.6661   -0.5477 C.3     1  UNL1        0.0948
     26 C           8.0773   -7.0505    0.5503 C.3     1  UNL1       -0.0281
     27 C           6.9315   -9.1127   -0.1820 C.3     1  UNL1       -0.0281
     28 H          10.5115   -6.6927   -2.0005 H       1  UNL1        0.0660
     29 H           9.1537   -6.9760   -3.1591 H       1  UNL1        0.0660
     30 H           9.2389   -7.6011   -1.4968 H       1  UNL1        0.0660
     31 H           8.5016   -3.2318   -2.2857 H       1  UNL1        0.0658
     32 H           7.0724   -1.0445   -1.7369 H       1  UNL1        0.0450
     33 H           4.8125   -2.4544   -4.5408 H       1  UNL1        0.2938
     34 H           2.6294    0.9023   -1.6456 H       1  UNL1        0.1886
     35 H           4.6199    1.4027    0.0191 H       1  UNL1        0.0292
     36 H           6.1605    1.2179   -0.8169 H       1  UNL1        0.0292
     37 H           5.5980   -0.0732    0.2295 H       1  UNL1        0.0292
     38 H           6.6911    1.2170   -2.8232 H       1  UNL1        0.0293
     39 H           6.4069    1.8688   -4.4159 H       1  UNL1        0.0293
     40 H           8.0353    1.9148   -3.6680 H       1  UNL1        0.0293
     41 H           8.4395   -1.7695   -6.7060 H       1  UNL1        0.1920
     42 H           7.9361   -3.9207   -5.5274 H       1  UNL1        0.2937
     43 H           4.1811   -3.1980   -2.1053 H       1  UNL1        0.0622
     44 H           4.1891   -5.4519   -1.3798 H       1  UNL1        0.0655
     45 H           7.5222   -7.7958   -1.5715 H       1  UNL1        0.0727
     46 H           7.5577   -7.0472    1.5096 H       1  UNL1        0.0265
     47 H           8.3325   -5.9965    0.4129 H       1  UNL1        0.0265
     48 H           9.0219   -7.5922    0.6517 H       1  UNL1        0.0265
     49 H           6.4140   -9.1992    0.7714 H       1  UNL1        0.0265
     50 H           7.9066   -9.6156   -0.1207 H       1  UNL1        0.0265
     51 H           6.3493   -9.6205   -0.9560 H       1  UNL1        0.0265
@<TRIPOS>BOND
     1     1     2    1
     2     2     3    1
     3     3     4   ar
     4     4     5   ar
     5     7     8   ar
     6     8     9    1
     7     8    10   ar
     8    10    11   ar
     9    11    12   ar
    10     7    12   ar
    11    12    13    1
    12     6    14    1
    13    14    15   ar
    14    15    16    1
    15    15    17   ar
    16    17    18   ar
    17    18    19   ar
    18    14    19   ar
    19    19    20    1
    20     5    21   ar
    21    21    22   ar
    22    22    23   ar
    23     3    23   ar
    24    23    24    1
    25    24    25    1
    26    25    26    1
    27    25    27    1
    28     6     7    1
    29     6     5    1
    30     1    28    1
    31     1    29    1
    32     1    30    1
    33     4    31    1
    34     6    32    1
    35     9    33    1
    36    11    34    1
    37    13    35    1
    38    13    36    1
    39    13    37    1
    40    16    38    1
    41    16    39    1
    42    16    40    1
    43    18    41    1
    44    20    42    1
    45    21    43    1
    46    22    44    1
    47    25    45    1
    48    26    46    1
    49    26    47    1
    50    26    48    1
    51    27    49    1
    52    27    50    1
    53    27    51    1
