REMARK  4 active torsions:
REMARK  status: ('A' for Active; 'I' for Inactive)
REMARK    1  A    between atoms: C_6  and  O_7 
REMARK    2  A    between atoms: O_7  and  C_8 
REMARK    3  A    between atoms: C_8  and  C_10 
REMARK    4  A    between atoms: C_14  and  N_15 
REMARK       I    between atoms: N_15  and  C_16 
REMARK       I    between atoms: C_16  and  N_17 
ROOT
ATOM      1  C   UNL d   1      -1.803  -4.991  -0.269  0.00  0.00     0.042 A 
ATOM      2  C   UNL d   1      -2.649  -5.814  -0.998  0.00  0.00     0.018 A 
ATOM      3  C   UNL d   1      -2.593  -7.195  -0.787  0.00  0.00     0.003 A 
ATOM      4  C   UNL d   1      -1.693  -7.743   0.152  0.00  0.00     0.029 A 
ATOM      5  C   UNL d   1      -0.865  -6.899   0.909  0.00  0.00     0.037 A 
ATOM      6  C   UNL d   1      -0.916  -5.545   0.630  0.00  0.00     0.047 A 
ENDROOT
BRANCH   1   7
ATOM      7  C   UNL d   1      -1.986  -3.531  -0.214  0.00  0.00     0.298 C 
ATOM      8  O   UNL d   1      -3.122  -3.104  -0.176  0.00  0.00    -0.259 OA
BRANCH   7   9
ATOM      9  O   UNL d   1      -0.769  -2.827  -0.112  0.00  0.00    -0.274 OA
BRANCH   9  10
ATOM     10  C   UNL d   1      -0.695  -1.398  -0.033  0.00  0.00     0.086 A 
ATOM     11  C   UNL d   1      -1.865  -0.636  -0.015  0.00  0.00     0.038 A 
ATOM     12  C   UNL d   1      -1.831   0.748   0.023  0.00  0.00     0.003 A 
ATOM     13  C   UNL d   1      -0.615   1.404   0.026  0.00  0.00     0.007 A 
ATOM     14  C   UNL d   1       0.587   0.679   0.007  0.00  0.00    -0.053 A 
ATOM     15  C   UNL d   1       1.869   1.472  -0.013  0.00  0.00     0.049 C 
ATOM     16  C   UNL d   1       0.562  -0.747  -0.003  0.00  0.00    -0.022 A 
ATOM     17  C   UNL d   1       1.867  -1.500   0.019  0.00  0.00     0.052 C 
ENDBRANCH   9  10
ENDBRANCH   7   9
ENDBRANCH   1   7
BRANCH   5  18
ATOM     18  N   UNL d   1      -0.033  -7.402   1.932  0.00  0.00    -0.309 N 
ATOM     19  C   UNL d   1       0.782  -6.792   2.844  0.00  0.00     0.318 C 
ATOM     20  N   UNL d   1       0.944  -5.449   2.865  0.00  0.00    -0.352 N 
ATOM     21  O   UNL d   1       1.426  -7.467   3.645  0.00  0.00    -0.247 OA
ATOM     22  H   UNL d   1       0.193  -4.803   2.696  0.00  0.00     0.160 HD
ATOM     23  H   UNL d   1       1.536  -5.102   3.607  0.00  0.00     0.160 HD
ATOM     24  H   UNL d   1      -0.020  -8.410   2.055  0.00  0.00     0.170 HD
ENDBRANCH   5  18
TORSDOF 4
