@<TRIPOS>MOLECULE
*****
 41 42 0 0 0
SMALL
GASTEIGER

@<TRIPOS>ATOM
      1 C           0.9433   -0.0760    0.0026 C.3     1  UNL1       -0.0627
      2 C           2.4763   -0.0882    0.0260 C.3     1  UNL1       -0.0463
      3 C           2.9536   -0.1357    1.4770 C.3     1  UNL1       -0.0627
      4 C           3.0165   -1.2818   -0.7872 C.3     1  UNL1       -0.0424
      5 C           4.5537   -1.3562   -0.8505 C.3     1  UNL1        0.0256
      6 C           5.0377   -2.5595   -1.6543 C.2     1  UNL1        0.2291
      7 O           4.2742   -3.3626   -2.1911 O.2     1  UNL1       -0.2743
      8 N           6.4142   -2.7005   -1.7341 N.am    1  UNL1       -0.2342
      9 N           6.9344   -3.7907   -2.4737 N.am    1  UNL1       -0.2304
     10 C           8.3033   -3.9883   -2.5518 C.2     1  UNL1        0.2602
     11 O           9.1198   -3.2627   -1.9835 O.2     1  UNL1       -0.2687
     12 C           8.7789   -5.1354   -3.3892 C.ar    1  UNL1        0.0401
     13 C           9.9198   -5.8622   -3.0048 C.ar    1  UNL1       -0.0460
     14 C          10.4349   -6.8708   -3.8334 C.ar    1  UNL1       -0.0174
     15 C           9.8277   -7.1448   -5.0567 C.ar    1  UNL1        0.1423
     16 C           8.6840   -6.4363   -5.4352 C.ar    1  UNL1        0.0764
     17 C           8.1566   -5.4356   -4.6094 C.ar    1  UNL1       -0.0247
     18 N           8.0537   -6.7369   -6.6439 N.am    1  UNL1       -0.2797
     19 C           8.6037   -7.6118   -7.5425 C.2     1  UNL1        0.2549
     20 O           8.0381   -7.8884   -8.5970 O.2     1  UNL1       -0.2717
     21 C           9.9955   -8.1230   -7.1771 C.3     1  UNL1        0.1656
     22 O          10.3773   -8.1486   -5.8076 O.3     1  UNL1       -0.4809
     23 H           0.5515    0.7811    0.5622 H       1  UNL1        0.0232
     24 H           0.5340   -0.9857    0.4561 H       1  UNL1        0.0232
     25 H           0.5627   -0.0075   -1.0217 H       1  UNL1        0.0232
     26 H           2.8301    0.8443   -0.4322 H       1  UNL1        0.0296
     27 H           2.6222   -1.0595    1.9635 H       1  UNL1        0.0232
     28 H           2.5608    0.7117    2.0475 H       1  UNL1        0.0232
     29 H           4.0436   -0.0877    1.5428 H       1  UNL1        0.0232
     30 H           2.6176   -1.2239   -1.8089 H       1  UNL1        0.0272
     31 H           2.6247   -2.2140   -0.3595 H       1  UNL1        0.0272
     32 H           4.9696   -1.4478    0.1578 H       1  UNL1        0.0359
     33 H           4.9438   -0.4363   -1.3013 H       1  UNL1        0.0359
     34 H           7.0880   -2.0682   -1.3044 H       1  UNL1        0.1728
     35 H           6.2412   -4.4358   -2.8508 H       1  UNL1        0.1731
     36 H          10.4215   -5.6475   -2.0625 H       1  UNL1        0.0626
     37 H          11.3187   -7.4323   -3.5359 H       1  UNL1        0.0655
     38 H           7.3008   -4.8566   -4.9417 H       1  UNL1        0.0645
     39 H           7.1664   -6.3231   -6.8968 H       1  UNL1        0.1550
     40 H          10.7263   -7.5150   -7.7249 H       1  UNL1        0.0795
     41 H          10.0733   -9.1498   -7.5523 H       1  UNL1        0.0795
@<TRIPOS>BOND
     1     1     2    1
     2     2     3    1
     3     2     4    1
     4     4     5    1
     5     5     6    1
     6     6     7    2
     7     6     8   am
     8     8     9    1
     9     9    10   am
    10    10    11    2
    11    10    12    1
    12    12    13   ar
    13    13    14   ar
    14    14    15   ar
    15    15    16   ar
    16    16    17   ar
    17    12    17   ar
    18    16    18    1
    19    18    19   am
    20    19    20    2
    21    19    21    1
    22    21    22    1
    23    15    22    1
    24     1    23    1
    25     1    24    1
    26     1    25    1
    27     2    26    1
    28     3    27    1
    29     3    28    1
    30     3    29    1
    31     4    30    1
    32     4    31    1
    33     5    32    1
    34     5    33    1
    35     8    34    1
    36     9    35    1
    37    13    36    1
    38    14    37    1
    39    17    38    1
    40    18    39    1
    41    21    40    1
    42    21    41    1
