REMARK  5 active torsions:
REMARK  status: ('A' for Active; 'I' for Inactive)
REMARK    1  A    between atoms: C_2  and  C_3 
REMARK       I    between atoms: C_2  and  N_16 
REMARK    2  A    between atoms: C_3  and  S_4 
REMARK    3  A    between atoms: S_4  and  C_5 
REMARK    4  A    between atoms: N_16  and  C_17 
REMARK    5  A    between atoms: C_23  and  N_24 
ROOT
ATOM      1  O   UNL d   1       1.040  -0.067   0.086  0.00  0.00    -0.272 OA
ATOM      2  C   UNL d   1       2.263   0.097   0.096  0.00  0.00     0.231 C 
ATOM      3  N   UNL d   1       3.049  -1.038   0.110  0.00  0.00    -0.324 N 
ATOM      4  H   UNL d   1       2.537  -1.903  -0.008  0.00  0.00     0.169 HD
ENDROOT
BRANCH   2   5
ATOM      5  C   UNL d   1       2.933   1.482  -0.005  0.00  0.00     0.185 C 
BRANCH   5   6
ATOM      6  S   UNL d   1       1.722   2.841  -0.069  0.00  0.00    -0.083 SA
BRANCH   6   7
ATOM      7  C   UNL d   1       2.741   4.251  -0.097  0.00  0.00     0.170 A 
ATOM      8  N   UNL d   1       4.024   4.208  -0.219  0.00  0.00    -0.224 NA
ATOM      9  C   UNL d   1       4.707   5.444  -0.271  0.00  0.00     0.075 A 
ATOM     10  C   UNL d   1       6.096   5.443  -0.401  0.00  0.00     0.032 A 
ATOM     11  C   UNL d   1       4.049   6.679  -0.217  0.00  0.00     0.061 A 
ATOM     12  C   UNL d   1       6.810   6.646  -0.471  0.00  0.00     0.002 A 
ATOM     13  C   UNL d   1       6.138   7.868  -0.426  0.00  0.00     0.001 A 
ATOM     14  C   UNL d   1       4.749   7.889  -0.304  0.00  0.00     0.019 A 
ATOM     15  C   UNL d   1       2.584   6.657  -0.056  0.00  0.00     0.260 A 
ATOM     16  O   UNL d   1       1.924   7.681   0.017  0.00  0.00    -0.267 OA
ATOM     17  N   UNL d   1       2.021   5.406   0.004  0.00  0.00    -0.302 N 
ATOM     18  H   UNL d   1       1.019   5.356   0.110  0.00  0.00     0.171 HD
ENDBRANCH   6   7
ENDBRANCH   5   6
ENDBRANCH   2   5
BRANCH   3  19
ATOM     19  C   UNL d   1       4.451  -1.138   0.073  0.00  0.00     0.063 A 
ATOM     20  C   UNL d   1       5.197  -0.325   0.932  0.00  0.00     0.055 A 
ATOM     21  C   UNL d   1       6.581  -0.356   0.914  0.00  0.00     0.036 A 
ATOM     22 CL   UNL d   1       7.455   0.737   1.911  0.00  0.00    -0.084 Cl
ATOM     23  C   UNL d   1       7.239  -1.259   0.097  0.00  0.00     0.026 A 
ATOM     24  C   UNL d   1       6.496  -2.143  -0.701  0.00  0.00     0.033 A 
ATOM     25  C   UNL d   1       5.088  -2.110  -0.739  0.00  0.00     0.057 A 
BRANCH  25  26
ATOM     26  N   UNL d   1       4.418  -2.960  -1.596  0.00  0.00    -0.375 N 
ATOM     27  C   UNL d   1       3.489  -2.496  -2.636  0.00  0.00     0.149 C 
ATOM     28  C   UNL d   1       2.114  -3.153  -2.430  0.00  0.00     0.187 C 
ATOM     29  O   UNL d   1       2.217  -4.587  -2.364  0.00  0.00    -0.388 OA
ATOM     30  C   UNL d   1       3.094  -4.983  -1.290  0.00  0.00     0.187 C 
ATOM     31  C   UNL d   1       4.515  -4.423  -1.492  0.00  0.00     0.149 C 
ENDBRANCH  25  26
ENDBRANCH   3  19
TORSDOF 5
