@<TRIPOS>MOLECULE
*****
 53 55 0 0 0
SMALL
GASTEIGER

@<TRIPOS>ATOM
      1 O           1.0742    0.1085    0.0166 O.2     1  UNL1       -0.2693
      2 C           2.3054    0.0693    0.0546 C.2     1  UNL1        0.2530
      3 C           3.0077   -0.8218    1.0172 C.2     1  UNL1        0.0022
      4 C           2.3575   -1.6116    1.8953 C.2     1  UNL1       -0.0491
      5 C           3.1045   -2.4953    2.8255 C.ar    1  UNL1       -0.0172
      6 C           4.1694   -1.9282    3.5486 C.ar    1  UNL1       -0.0540
      7 C           5.0054   -2.7140    4.3347 C.ar    1  UNL1       -0.0606
      8 C           4.7699   -4.0797    4.4439 C.ar    1  UNL1       -0.0540
      9 C           3.6671   -4.6693    3.8115 C.ar    1  UNL1       -0.0173
     10 C           3.4193   -6.0420    3.9861 C.ar    1  UNL1       -0.0540
     11 C           2.3276   -6.6553    3.3770 C.ar    1  UNL1       -0.0612
     12 C           1.4724   -5.9026    2.5829 C.ar    1  UNL1       -0.0611
     13 C           1.7129   -4.5381    2.3886 C.ar    1  UNL1       -0.0535
     14 C           2.8089   -3.8805    2.9947 C.ar    1  UNL1       -0.0107
     15 N           3.0625    0.8522   -0.7967 N.am    1  UNL1       -0.2308
     16 N           4.4771    0.9276   -0.8751 N.am    1  UNL1       -0.2329
     17 C           5.0667    1.7783   -1.8121 C.2     1  UNL1        0.2462
     18 O           4.4109    2.4836   -2.5805 O.2     1  UNL1       -0.2726
     19 C           6.6165    1.7736   -1.8133 C.3     1  UNL1        0.0895
     20 N           7.2050    2.6760   -2.8091 N.am    1  UNL1       -0.3064
     21 C           8.5733    2.8219   -2.9585 C.2     1  UNL1        0.2165
     22 O           9.3645    2.1722   -2.2767 O.2     1  UNL1       -0.2755
     23 C           9.0330    3.8327   -4.0345 C.3     1  UNL1        0.0356
     24 C           8.5174    5.2402   -3.7016 C.3     1  UNL1       -0.0419
     25 C           8.9906    6.2969   -4.6992 C.3     1  UNL1       -0.0524
     26 C          10.5081    6.3164   -4.8283 C.3     1  UNL1       -0.0530
     27 C          11.0311    4.9336   -5.1982 C.3     1  UNL1       -0.0524
     28 C          10.5713    3.8714   -4.1920 C.3     1  UNL1       -0.0419
     29 H           4.0843   -0.8359    0.9949 H       1  UNL1        0.0670
     30 H           1.2710   -1.6454    1.9385 H       1  UNL1        0.0625
     31 H           4.3654   -0.8599    3.4921 H       1  UNL1        0.0624
     32 H           5.8453   -2.2624    4.8556 H       1  UNL1        0.0618
     33 H           5.4528   -4.6816    5.0409 H       1  UNL1        0.0624
     34 H           4.0755   -6.6478    4.6091 H       1  UNL1        0.0624
     35 H           2.1461   -7.7170    3.5241 H       1  UNL1        0.0618
     36 H           0.6143   -6.3738    2.1106 H       1  UNL1        0.0618
     37 H           1.0190   -3.9871    1.7585 H       1  UNL1        0.0624
     38 H           2.5443    1.4471   -1.4463 H       1  UNL1        0.1731
     39 H           5.0388    0.3517   -0.2624 H       1  UNL1        0.1728
     40 H           6.9751    0.7598   -2.0208 H       1  UNL1        0.0558
     41 H           6.9775    2.0802   -0.8254 H       1  UNL1        0.0558
     42 H           6.5602    3.2026   -3.3898 H       1  UNL1        0.1492
     43 H           8.6091    3.5035   -4.9931 H       1  UNL1        0.0394
     44 H           8.8575    5.5189   -2.6958 H       1  UNL1        0.0272
     45 H           7.4231    5.2488   -3.6757 H       1  UNL1        0.0272
     46 H           8.6364    7.2842   -4.3828 H       1  UNL1        0.0265
     47 H           8.5465    6.0964   -5.6821 H       1  UNL1        0.0265
     48 H          10.9581    6.6428   -3.8823 H       1  UNL1        0.0265
     49 H          10.8066    7.0467   -5.5900 H       1  UNL1        0.0265
     50 H          12.1263    4.9587   -5.2478 H       1  UNL1        0.0265
     51 H          10.6746    4.6686   -6.2013 H       1  UNL1        0.0265
     52 H          11.0425    4.0799   -3.2222 H       1  UNL1        0.0272
     53 H          10.9453    2.8920   -4.5138 H       1  UNL1        0.0272
@<TRIPOS>BOND
     1     1     2    2
     2     2     3    1
     3     3     4    2
     4     4     5    1
     5     5     6   ar
     6     6     7   ar
     7     7     8   ar
     8     8     9   ar
     9     9    10   ar
    10    10    11   ar
    11    11    12   ar
    12    12    13   ar
    13    13    14   ar
    14     5    14   ar
    15     9    14   ar
    16     2    15   am
    17    15    16    1
    18    16    17   am
    19    17    18    2
    20    17    19    1
    21    19    20    1
    22    20    21   am
    23    21    22    2
    24    21    23    1
    25    23    24    1
    26    24    25    1
    27    25    26    1
    28    26    27    1
    29    27    28    1
    30    23    28    1
    31     3    29    1
    32     4    30    1
    33     6    31    1
    34     7    32    1
    35     8    33    1
    36    10    34    1
    37    11    35    1
    38    12    36    1
    39    13    37    1
    40    15    38    1
    41    16    39    1
    42    19    40    1
    43    19    41    1
    44    20    42    1
    45    23    43    1
    46    24    44    1
    47    24    45    1
    48    25    46    1
    49    25    47    1
    50    26    48    1
    51    26    49    1
    52    27    50    1
    53    27    51    1
    54    28    52    1
    55    28    53    1
