@<TRIPOS>MOLECULE
*****
 65 68 0 0 0
SMALL
GASTEIGER

@<TRIPOS>ATOM
      1 C           0.9938   -0.1538   -0.2892 C.3     1  UNL1       -0.0245
      2 C           2.4928   -0.1443   -0.0622 C.3     1  UNL1       -0.0347
      3 N           2.9458    0.8408    1.0096 N.4     1  UNL1        0.2372
      4 C           2.4548    0.5117    2.4216 C.3     1  UNL1       -0.0347
      5 C           0.9564    0.6217    2.6127 C.3     1  UNL1       -0.0245
      6 C           4.5089    0.9186    0.9539 C.3     1  UNL1        0.0031
      7 C           5.0694    1.9807    1.9063 C.3     1  UNL1        0.1292
      8 O           6.4989    2.0135    1.9306 O.3     1  UNL1       -0.4852
      9 C           7.0694    2.7708    2.9433 C.ar    1  UNL1        0.1408
     10 C           8.2788    3.4363    2.5836 C.ar    1  UNL1        0.0028
     11 C           9.0037    4.2280    3.5114 C.ar    1  UNL1        0.0385
     12 N          10.2793    4.7959    3.2045 N.pl3   1  UNL1       -0.2688
     13 C          10.8822    5.7053    4.0259 C.ar    1  UNL1        0.2928
     14 N          11.0299    7.0099    3.8709 N.ar    1  UNL1       -0.1951
     15 C          11.6162    7.4362    5.0533 C.ar    1  UNL1        0.1147
     16 C          11.9703    8.7165    5.5408 C.ar    1  UNL1        0.0098
     17 C          12.5645    8.8273    6.8220 C.ar    1  UNL1        0.1307
     18 O          12.8694   10.1128    7.2606 O.3     1  UNL1       -0.4558
     19 C          13.4984   10.2842    8.4823 C.ar    1  UNL1        0.1321
     20 C          14.7588    9.7558    8.7468 C.ar    1  UNL1       -0.0012
     21 C          15.2818    9.9321   10.0144 C.ar    1  UNL1        0.0319
     22 N          14.6569   10.6236   10.9901 N.ar    1  UNL1       -0.2501
     23 C          13.4548   11.1939   10.7020 C.ar    1  UNL1        0.1288
     24 C          12.8173   11.9627   11.8499 C.2     1  UNL1        0.2623
     25 O          13.3760   12.0449   12.9337 O.2     1  UNL1       -0.2685
     26 N          11.5775   12.5568   11.6238 N.am    1  UNL1       -0.3132
     27 C          10.8935   13.3094   12.6522 C.3     1  UNL1        0.0004
     28 C          12.8532   11.0528    9.4534 C.ar    1  UNL1        0.0112
     29 C          12.7830    7.6706    7.5841 C.ar    1  UNL1       -0.0157
     30 C          12.4517    6.3936    7.1123 C.ar    1  UNL1       -0.0136
     31 C          11.8602    6.3366    5.8575 C.ar    1  UNL1        0.1572
     32 O          11.3971    5.2281    5.2093 O.2     1  UNL1       -0.4243
     33 C           8.4794    4.3333    4.8027 C.ar    1  UNL1       -0.0388
     34 C           7.3155    3.6777    5.1767 C.ar    1  UNL1       -0.0381
     35 C           6.6250    2.8730    4.2777 C.ar    1  UNL1        0.0826
     36 CL          5.3284    2.0044    5.0327 Cl      1  UNL1       -0.0798
     37 H           0.7436   -0.7058   -1.1981 H       1  UNL1        0.0281
     38 H           0.5805    0.8570   -0.3578 H       1  UNL1        0.0281
     39 H           0.4706   -0.7119    0.4821 H       1  UNL1        0.0281
     40 H           2.9790    0.1669   -0.9928 H       1  UNL1        0.0812
     41 H           2.8621   -1.1317    0.2298 H       1  UNL1        0.0812
     42 H           2.5955    1.7747    0.7518 H       1  UNL1        0.2034
     43 H           2.8732    1.2612    3.0925 H       1  UNL1        0.0812
     44 H           2.8415   -0.4772    2.6814 H       1  UNL1        0.0812
     45 H           0.5557    1.5364    2.1658 H       1  UNL1        0.0281
     46 H           0.7138    0.6171    3.6791 H       1  UNL1        0.0281
     47 H           0.4247   -0.2463    2.2366 H       1  UNL1        0.0281
     48 H           4.7969    1.1400   -0.0786 H       1  UNL1        0.0848
     49 H           4.8798   -0.0799    1.2167 H       1  UNL1        0.0848
     50 H           4.7115    1.6589    2.8607 H       1  UNL1        0.0751
     51 H           4.6660    2.9715    1.6760 H       1  UNL1        0.0751
     52 H           8.6516    3.3261    1.5650 H       1  UNL1        0.0673
     53 H          10.3737    5.0006    2.2164 H       1  UNL1        0.1565
     54 H          11.7694    9.5959    4.9370 H       1  UNL1        0.0677
     55 H          15.3019    9.1806    8.0060 H       1  UNL1        0.0669
     56 H          16.2386    9.4968   10.2936 H       1  UNL1        0.0831
     57 H          11.1154   12.4939   10.7337 H       1  UNL1        0.1487
     58 H          11.4555   13.3413   13.5876 H       1  UNL1        0.0426
     59 H           9.9196   12.8429   12.8244 H       1  UNL1        0.0426
     60 H          10.7374   14.3265   12.2824 H       1  UNL1        0.0426
     61 H          11.9009   11.5029    9.2180 H       1  UNL1        0.0677
     62 H          13.2170    7.7251    8.5786 H       1  UNL1        0.0655
     63 H          12.6372    5.5093    7.7091 H       1  UNL1        0.0656
     64 H           8.9806    4.9142    5.5701 H       1  UNL1        0.0637
     65 H           6.9777    3.7682    6.2062 H       1  UNL1        0.0634
@<TRIPOS>UNITY_ATOM_ATTR
3 1
charge 1
@<TRIPOS>BOND
     1     1     2    1
     2     2     3    1
     3     3     4    1
     4     4     5    1
     5     3     6    1
     6     6     7    1
     7     7     8    1
     8     8     9    1
     9     9    10   ar
    10    10    11   ar
    11    11    12    1
    12    12    13    1
    13    13    14   ar
    14    14    15   ar
    15    15    16   ar
    16    16    17   ar
    17    17    18    1
    18    18    19    1
    19    19    20   ar
    20    20    21   ar
    21    21    22   ar
    22    22    23   ar
    23    23    24    1
    24    24    25    2
    25    24    26   am
    26    26    27    1
    27    23    28   ar
    28    19    28   ar
    29    17    29   ar
    30    29    30   ar
    31    30    31   ar
    32    15    31   ar
    33    31    32   ar
    34    13    32   ar
    35    11    33   ar
    36    33    34   ar
    37    34    35   ar
    38     9    35   ar
    39    35    36    1
    40     1    37    1
    41     1    38    1
    42     1    39    1
    43     2    40    1
    44     2    41    1
    45     3    42    1
    46     4    43    1
    47     4    44    1
    48     5    45    1
    49     5    46    1
    50     5    47    1
    51     6    48    1
    52     6    49    1
    53     7    50    1
    54     7    51    1
    55    10    52    1
    56    12    53    1
    57    16    54    1
    58    20    55    1
    59    21    56    1
    60    26    57    1
    61    27    58    1
    62    27    59    1
    63    27    60    1
    64    28    61    1
    65    29    62    1
    66    30    63    1
    67    33    64    1
    68    34    65    1
