@<TRIPOS>MOLECULE
*****
 42 44 0 0 0
SMALL
GASTEIGER

@<TRIPOS>ATOM
      1 C           2.4850   -0.0362   -0.0128 C.3     1  UNL1       -0.0397
      2 C           0.9866   -0.0410    0.0014 C.ar    1  UNL1       -0.0503
      3 C           0.2167   -1.2110    0.0016 C.ar    1  UNL1       -0.0571
      4 C          -1.1993   -1.1571   -0.0054 C.ar    1  UNL1       -0.0402
      5 C          -1.8678    0.0753   -0.0107 C.ar    1  UNL1        0.0348
      6 N          -3.3055    0.1501   -0.0316 N.am    1  UNL1       -0.2692
      7 C          -4.0083    1.3464   -0.0342 C.2     1  UNL1        0.3081
      8 O          -3.4622    2.4550    0.0050 O.2     1  UNL1       -0.2522
      9 N          -5.3940    1.2624   -0.0663 N.am    1  UNL1       -0.2692
     10 C          -6.1678    2.4650   -0.1412 C.ar    1  UNL1        0.0350
     11 C          -7.3436    2.6598    0.5907 C.ar    1  UNL1       -0.0370
     12 C          -8.0670    3.8728    0.4707 C.ar    1  UNL1       -0.0176
     13 C          -7.5897    4.9176   -0.3339 C.ar    1  UNL1        0.1286
     14 O          -8.2679    6.1274   -0.3037 O.3     1  UNL1       -0.4560
     15 C          -7.8689    7.1184   -1.1825 C.ar    1  UNL1        0.1284
     16 C          -7.4418    8.3531   -0.6862 C.ar    1  UNL1       -0.0193
     17 C          -7.0314    9.3538   -1.5769 C.ar    1  UNL1       -0.0583
     18 C          -6.9803    9.0953   -2.9484 C.ar    1  UNL1       -0.0615
     19 C          -7.4187    7.8684   -3.4412 C.ar    1  UNL1       -0.0583
     20 C          -7.9083    6.9025   -2.5640 C.ar    1  UNL1       -0.0193
     21 C          -6.4249    4.7055   -1.0642 C.ar    1  UNL1       -0.0176
     22 C          -5.7417    3.4979   -0.9812 C.ar    1  UNL1       -0.0370
     23 C          -1.0643    1.2235    0.0016 C.ar    1  UNL1       -0.0402
     24 C           0.3270    1.1773    0.0053 C.ar    1  UNL1       -0.0571
     25 H           2.8956   -1.0484    0.0006 H       1  UNL1        0.0278
     26 H           2.8684    0.5011    0.8624 H       1  UNL1        0.0278
     27 H           2.8473    0.4690   -0.9159 H       1  UNL1        0.0278
     28 H           0.7192   -2.1767    0.0046 H       1  UNL1        0.0621
     29 H          -1.7418   -2.0989   -0.0062 H       1  UNL1        0.0636
     30 H          -3.8147   -0.7220   -0.0630 H       1  UNL1        0.1564
     31 H          -5.8586    0.4114    0.2104 H       1  UNL1        0.1564
     32 H          -7.6731    1.9283    1.3239 H       1  UNL1        0.0637
     33 H          -8.9930    4.0054    1.0278 H       1  UNL1        0.0655
     34 H          -7.4023    8.5401    0.3835 H       1  UNL1        0.0654
     35 H          -6.7398   10.3342   -1.2066 H       1  UNL1        0.0619
     36 H          -6.5989    9.8485   -3.6338 H       1  UNL1        0.0618
     37 H          -7.3765    7.6568   -4.5058 H       1  UNL1        0.0619
     38 H          -8.2536    5.9484   -2.9510 H       1  UNL1        0.0654
     39 H          -6.0003    5.4606   -1.7155 H       1  UNL1        0.0655
     40 H          -4.8448    3.3959   -1.5862 H       1  UNL1        0.0637
     41 H          -1.4665    2.2258    0.0060 H       1  UNL1        0.0636
     42 H           0.8736    2.1175    0.0078 H       1  UNL1        0.0621
@<TRIPOS>BOND
     1     1     2    1
     2     2     3   ar
     3     3     4   ar
     4     4     5   ar
     5     5     6    1
     6     6     7   am
     7     7     8    2
     8     7     9   am
     9     9    10    1
    10    10    11   ar
    11    11    12   ar
    12    12    13   ar
    13    13    14    1
    14    14    15    1
    15    15    16   ar
    16    16    17   ar
    17    17    18   ar
    18    18    19   ar
    19    19    20   ar
    20    15    20   ar
    21    13    21   ar
    22    21    22   ar
    23    10    22   ar
    24     5    23   ar
    25    23    24   ar
    26     2    24   ar
    27     1    25    1
    28     1    26    1
    29     1    27    1
    30     3    28    1
    31     4    29    1
    32     6    30    1
    33     9    31    1
    34    11    32    1
    35    12    33    1
    36    16    34    1
    37    17    35    1
    38    18    36    1
    39    19    37    1
    40    20    38    1
    41    21    39    1
    42    22    40    1
    43    23    41    1
    44    24    42    1
