@<TRIPOS>MOLECULE
*****
 44 46 0 0 0
SMALL
GASTEIGER

@<TRIPOS>ATOM
      1 N           1.0698    0.0876    0.0983 N.am    1  UNL1       -0.3253
      2 C           2.4330    0.1360    0.0376 C.2     1  UNL1        0.2415
      3 O           3.0385   -0.2366   -0.9752 O.2     1  UNL1       -0.2704
      4 C           3.1725    0.5978    1.2406 C.ar    1  UNL1        0.0366
      5 C           4.3853    1.2954    1.1513 C.ar    1  UNL1       -0.0479
      6 C           5.1689    1.5611    2.3145 C.ar    1  UNL1       -0.0397
      7 C           4.7104    1.2025    3.5974 C.ar    1  UNL1        0.0348
      8 N           5.4074    1.5993    4.8246 N.am    1  UNL1       -0.2692
      9 C           4.7833    1.5647    6.0856 C.2     1  UNL1        0.3081
     10 O           3.6321    1.1580    6.2191 O.2     1  UNL1       -0.2522
     11 N           5.4836    2.0388    7.2074 N.am    1  UNL1       -0.2692
     12 C           5.0125    1.8377    8.5988 C.ar    1  UNL1        0.0351
     13 C           5.4672    2.5293    9.6984 C.ar    1  UNL1       -0.0404
     14 C           5.2309    2.0203   11.0088 C.ar    1  UNL1       -0.0597
     15 C           4.6728    0.7458   11.2351 C.ar    1  UNL1       -0.0566
     16 C           4.2453    0.0165   10.1386 C.ar    1  UNL1       -0.0229
     17 C           4.2937   -1.5329   10.1375 C.3     1  UNL1        0.0758
     18 S           3.0254   -2.5215    9.2770 S.3     1  UNL1       -0.1418
     19 C           3.1225   -1.8115    7.6260 C.3     1  UNL1       -0.0042
     20 C           4.5468   -1.7921    6.9966 C.3     1  UNL1       -0.0349
     21 C           5.8068   -1.3573    7.7780 C.3     1  UNL1       -0.0042
     22 S           5.9488   -2.0685    9.4492 S.3     1  UNL1       -0.1418
     23 C           4.2199    0.7352    8.9222 C.ar    1  UNL1       -0.0354
     24 C           3.5096    0.4733    3.6287 C.ar    1  UNL1       -0.0397
     25 C           2.7399    0.1910    2.4924 C.ar    1  UNL1       -0.0479
     26 H           0.5694   -0.2667   -0.7085 H       1  UNL1        0.1453
     27 H           0.5251    0.4473    0.8714 H       1  UNL1        0.1453
     28 H           4.7211    1.6355    0.1702 H       1  UNL1        0.0626
     29 H           6.1303    2.0476    2.1657 H       1  UNL1        0.0636
     30 H           6.2750    2.1035    4.6967 H       1  UNL1        0.1564
     31 H           6.4123    2.4253    7.1020 H       1  UNL1        0.1564
     32 H           5.9318    3.4976    9.5667 H       1  UNL1        0.0636
     33 H           5.5516    2.6016   11.8691 H       1  UNL1        0.0618
     34 H           4.6321    0.3235   12.2395 H       1  UNL1        0.0621
     35 H           4.2343   -1.9058   11.1702 H       1  UNL1        0.0575
     36 H           2.5899   -0.8607    7.7318 H       1  UNL1        0.0377
     37 H           2.4403   -2.3116    6.9324 H       1  UNL1        0.0377
     38 H           4.4918   -1.1765    6.0930 H       1  UNL1        0.0281
     39 H           4.7549   -2.8025    6.6396 H       1  UNL1        0.0281
     40 H           5.8824   -0.2861    7.8662 H       1  UNL1        0.0377
     41 H           6.7273   -1.5020    7.1984 H       1  UNL1        0.0377
     42 H           3.8471    0.2455    8.0697 H       1  UNL1        0.0639
     43 H           3.1166    0.0568    4.5463 H       1  UNL1        0.0636
     44 H           1.8294   -0.3876    2.6150 H       1  UNL1        0.0626
@<TRIPOS>BOND
     1     1     2   am
     2     2     3    2
     3     2     4    1
     4     4     5   ar
     5     5     6   ar
     6     6     7   ar
     7     7     8    1
     8     8     9   am
     9     9    10    2
    10     9    11   am
    11    11    12    1
    12    12    13   ar
    13    13    14   ar
    14    14    15   ar
    15    15    16   ar
    16    16    17    1
    17    17    18    1
    18    18    19    1
    19    19    20    1
    20    20    21    1
    21    21    22    1
    22    17    22    1
    23    16    23   ar
    24    12    23   ar
    25     7    24   ar
    26    24    25   ar
    27     4    25   ar
    28     1    26    1
    29     1    27    1
    30     5    28    1
    31     6    29    1
    32     8    30    1
    33    11    31    1
    34    13    32    1
    35    14    33    1
    36    15    34    1
    37    17    35    1
    38    19    36    1
    39    19    37    1
    40    20    38    1
    41    20    39    1
    42    21    40    1
    43    21    41    1
    44    23    42    1
    45    24    43    1
    46    25    44    1
