@<TRIPOS>MOLECULE
*****
 49 50 0 0 0
SMALL
GASTEIGER

@<TRIPOS>ATOM
      1 C           1.1176   -0.2125   -0.0062 C.3     1  UNL1       -0.0251
      2 C           2.6355   -0.0358   -0.0756 C.2     1  UNL1        0.0237
      3 C           3.1829    1.1190   -0.5313 C.2     1  UNL1        0.0181
      4 C           2.4387    2.3300   -1.0176 C.2     1  UNL1        0.2386
      5 O           1.2152    2.4248   -1.0688 O.2     1  UNL1       -0.2708
      6 N           3.2178    3.3800   -1.4244 N.am    1  UNL1       -0.3077
      7 C           2.5557    4.5792   -1.9136 C.3     1  UNL1        0.0371
      8 C           3.4982    5.6737   -2.3379 C.ar    1  UNL1       -0.0302
      9 C           4.7559    5.3850   -2.8849 C.ar    1  UNL1       -0.0557
     10 C           5.6220    6.4109   -3.2577 C.ar    1  UNL1       -0.0431
     11 C           5.2202    7.7367   -3.1283 C.ar    1  UNL1        0.0410
     12 CL          6.2992    8.9967   -3.5800 Cl      1  UNL1       -0.0835
     13 C           3.9522    8.0452   -2.6420 C.ar    1  UNL1       -0.0431
     14 C           3.0919    7.0164   -2.2495 C.ar    1  UNL1       -0.0557
     15 N           3.3714   -1.1553    0.3644 N.pl3   1  UNL1       -0.2683
     16 N           4.7786   -1.2921    0.4279 N.am    1  UNL1       -0.2290
     17 C           5.4029   -2.4562    0.8981 C.2     1  UNL1        0.3152
     18 O           4.8440   -3.4779    1.2859 O.2     1  UNL1       -0.2636
     19 C           6.9662   -2.3603    0.8934 C.2     1  UNL1        0.3046
     20 O           7.4620   -1.3130    0.4846 O.2     1  UNL1       -0.2648
     21 N           7.6759   -3.5032    1.2971 N.am    1  UNL1       -0.2774
     22 C           9.1062   -3.5758    1.3176 C.ar    1  UNL1        0.0381
     23 C           9.8392   -2.4745    1.7894 C.ar    1  UNL1       -0.0401
     24 C          11.2362   -2.4855    1.8272 C.ar    1  UNL1       -0.0586
     25 C          11.9322   -3.5920    1.3621 C.ar    1  UNL1       -0.0430
     26 C          11.2299   -4.7033    0.8916 C.ar    1  UNL1        0.0456
     27 CL         12.2005   -6.0071    0.2848 Cl      1  UNL1       -0.0832
     28 C           9.8110   -4.7328    0.8923 C.ar    1  UNL1       -0.0109
     29 C           9.0719   -5.9399    0.3805 C.3     1  UNL1       -0.0366
     30 H           0.5254    0.6346   -0.3423 H       1  UNL1        0.0290
     31 H           0.7910   -0.3822    1.0240 H       1  UNL1        0.0290
     32 H           0.7913   -1.0428   -0.6393 H       1  UNL1        0.0290
     33 H           4.2607    1.2089   -0.5691 H       1  UNL1        0.0685
     34 H           4.2222    3.3530   -1.3356 H       1  UNL1        0.1493
     35 H           1.9021    4.9412   -1.1085 H       1  UNL1        0.0512
     36 H           1.9131    4.3053   -2.7604 H       1  UNL1        0.0512
     37 H           5.0776    4.3570   -3.0274 H       1  UNL1        0.0621
     38 H           6.6037    6.1636   -3.6505 H       1  UNL1        0.0632
     39 H           3.6296    9.0802   -2.5639 H       1  UNL1        0.0632
     40 H           2.1017    7.2717   -1.8731 H       1  UNL1        0.0621
     41 H           2.8332   -1.9660    0.6905 H       1  UNL1        0.1696
     42 H           5.3560   -0.5160    0.1189 H       1  UNL1        0.1732
     43 H           7.1420   -4.3599    1.4125 H       1  UNL1        0.1553
     44 H           9.3272   -1.5952    2.1728 H       1  UNL1        0.0636
     45 H          11.7793   -1.6263    2.2130 H       1  UNL1        0.0619
     46 H          13.0208   -3.5847    1.3651 H       1  UNL1        0.0632
     47 H           9.7301   -6.7395    0.0289 H       1  UNL1        0.0279
     48 H           8.4413   -5.6614   -0.4688 H       1  UNL1        0.0279
     49 H           8.4604   -6.3679    1.1794 H       1  UNL1        0.0279
@<TRIPOS>BOND
     1     1     2    1
     2     2     3    2
     3     3     4    1
     4     4     5    2
     5     4     6   am
     6     6     7    1
     7     7     8    1
     8     8     9   ar
     9     9    10   ar
    10    10    11   ar
    11    11    12    1
    12    11    13   ar
    13    13    14   ar
    14     8    14   ar
    15     2    15    1
    16    15    16    1
    17    16    17   am
    18    17    18    2
    19    17    19    1
    20    19    20    2
    21    19    21   am
    22    21    22    1
    23    22    23   ar
    24    23    24   ar
    25    24    25   ar
    26    25    26   ar
    27    26    27    1
    28    26    28   ar
    29    22    28   ar
    30    28    29    1
    31     1    30    1
    32     1    31    1
    33     1    32    1
    34     3    33    1
    35     6    34    1
    36     7    35    1
    37     7    36    1
    38     9    37    1
    39    10    38    1
    40    13    39    1
    41    14    40    1
    42    15    41    1
    43    16    42    1
    44    21    43    1
    45    23    44    1
    46    24    45    1
    47    25    46    1
    48    29    47    1
    49    29    48    1
    50    29    49    1
