REMARK  5 active torsions:
REMARK  status: ('A' for Active; 'I' for Inactive)
REMARK       I    between atoms: C_2  and  N_3 
REMARK    1  A    between atoms: C_2  and  C_9 
REMARK    2  A    between atoms: N_3  and  C_4 
REMARK    3  A    between atoms: C_4  and  C_5 
REMARK    4  A    between atoms: C_6  and  C_7 
REMARK    5  A    between atoms: C_7  and  O_8 
ROOT
ATOM      1  O   UNL d   1       1.052   0.002   0.119  0.00  0.00    -0.268 OA
ATOM      2  C   UNL d   1       2.282  -0.046   0.097  0.00  0.00     0.251 C 
ATOM      3  N   UNL d   1       3.015  -0.897   0.906  0.00  0.00    -0.353 N 
ATOM      4  H   UNL d   1       4.021  -0.800   0.949  0.00  0.00     0.163 HD
ENDROOT
BRANCH   2   5
ATOM      5  C   UNL d   1       3.026   0.897  -0.784  0.00  0.00     0.032 A 
ATOM      6  C   UNL d   1       4.118   0.510  -1.570  0.00  0.00     0.017 A 
ATOM      7  C   UNL d   1       4.777   1.462  -2.365  0.00  0.00     0.001 A 
ATOM      8  C   UNL d   1       4.312   2.777  -2.427  0.00  0.00     0.000 A 
ATOM      9  C   UNL d   1       3.208   3.158  -1.669  0.00  0.00     0.001 A 
ATOM     10  C   UNL d   1       2.570   2.222  -0.850  0.00  0.00     0.017 A 
ENDBRANCH   2   5
BRANCH   3  11
ATOM     11  C   UNL d   1       2.318  -1.745   1.859  0.00  0.00     0.150 C 
BRANCH  11  12
ATOM     12  C   UNL d   1       3.276  -2.544   2.693  0.00  0.00    -0.009 C 
ATOM     13  C   UNL d   1       2.874  -3.446   3.611  0.00  0.00    -0.004 C 
BRANCH  13  14
ATOM     14  C   UNL d   1       3.819  -4.263   4.438  0.00  0.00     0.191 C 
BRANCH  14  15
ATOM     15  O   UNL d   1       3.080  -5.132   5.284  0.00  0.00    -0.397 OA
ATOM     16  H   UNL d   1       2.579  -4.578   5.905  0.00  0.00     0.209 HD
ENDBRANCH  14  15
ENDBRANCH  13  14
ENDBRANCH  11  12
ENDBRANCH   3  11
TORSDOF 5
