@<TRIPOS>MOLECULE
*****
 33 35 0 0 0
SMALL
GASTEIGER

@<TRIPOS>ATOM
      1 C           2.1288   -0.0218    0.0006 C.3     1  UNL1       -0.0063
      2 C           0.6501   -0.1232    0.0003 C.ar    1  UNL1        0.1029
      3 C          -0.2025   -1.2022   -0.0044 C.ar    1  UNL1       -0.0202
      4 C          -1.5168   -0.6755   -0.0061 C.ar    1  UNL1       -0.0110
      5 C          -1.4142    0.7088   -0.0052 C.ar    1  UNL1        0.1911
      6 C          -2.4187    1.7788   -0.0043 C.2     1  UNL1        0.2985
      7 O          -2.1286    2.9770    0.0487 O.2     1  UNL1       -0.2651
      8 N          -3.7409    1.3283   -0.0624 N.am    1  UNL1       -0.2004
      9 N          -4.8192    2.1876    0.0075 N.2     1  UNL1       -0.1873
     10 C          -6.0329    1.7089    0.0165 C.2     1  UNL1        0.0548
     11 C          -6.3880    0.3013    0.0569 C.ar    1  UNL1        0.0195
     12 C          -7.3630   -0.3205   -0.7019 C.ar    1  UNL1        0.0114
     13 N          -7.3261   -1.6678   -0.4247 N.ar    1  UNL1       -0.3600
     14 C          -6.4141   -1.9195    0.5768 C.ar    1  UNL1        0.0471
     15 C          -6.0516   -3.1112    1.2177 C.ar    1  UNL1       -0.0378
     16 C          -5.0923   -3.0336    2.2384 C.ar    1  UNL1       -0.0598
     17 C          -4.5149   -1.8217    2.6016 C.ar    1  UNL1       -0.0611
     18 C          -4.8972   -0.6492    1.9614 C.ar    1  UNL1       -0.0520
     19 C          -5.8455   -0.6957    0.9205 C.ar    1  UNL1        0.0083
     20 O          -0.0715    1.0384    0.0034 O.2     1  UNL1       -0.4553
     21 H           2.5847   -1.0197    0.0098 H       1  UNL1        0.0308
     22 H           2.4898    0.5117    0.8848 H       1  UNL1        0.0308
     23 H           2.4896    0.4947   -0.8939 H       1  UNL1        0.0308
     24 H           0.0915   -2.2429   -0.0069 H       1  UNL1        0.0652
     25 H          -2.4280   -1.2546   -0.0057 H       1  UNL1        0.0657
     26 H          -3.9222    0.3367   -0.1392 H       1  UNL1        0.1777
     27 H          -6.8754    2.4228   -0.0016 H       1  UNL1        0.0852
     28 H          -8.0518    0.0637   -1.4448 H       1  UNL1        0.0813
     29 H          -7.8972   -2.3721   -0.8749 H       1  UNL1        0.1654
     30 H          -6.4982   -4.0643    0.9531 H       1  UNL1        0.0638
     31 H          -4.8005   -3.9341    2.7732 H       1  UNL1        0.0618
     32 H          -3.7696   -1.7724    3.3909 H       1  UNL1        0.0618
     33 H          -4.4539    0.2991    2.2571 H       1  UNL1        0.0624
@<TRIPOS>BOND
     1     1     2    1
     2     2     3   ar
     3     3     4   ar
     4     4     5   ar
     5     5     6    1
     6     6     7    2
     7     6     8   am
     8     8     9    1
     9     9    10    2
    10    10    11    1
    11    11    12   ar
    12    12    13   ar
    13    13    14   ar
    14    14    15   ar
    15    15    16   ar
    16    16    17   ar
    17    17    18   ar
    18    18    19   ar
    19    11    19   ar
    20    14    19   ar
    21     5    20   ar
    22     2    20   ar
    23     1    21    1
    24     1    22    1
    25     1    23    1
    26     3    24    1
    27     4    25    1
    28     8    26    1
    29    10    27    1
    30    12    28    1
    31    13    29    1
    32    15    30    1
    33    16    31    1
    34    17    32    1
    35    18    33    1
