REMARK  9 active torsions:
REMARK  status: ('A' for Active; 'I' for Inactive)
REMARK    1  A    between atoms: C_2  and  C_3 
REMARK    2  A    between atoms: C_2  and  N_12 
REMARK    3  A    between atoms: C_3  and  C_4 
REMARK    4  A    between atoms: C_4  and  C_5 
REMARK    5  A    between atoms: C_8  and  O_9 
REMARK       I    between atoms: N_12  and  C_13 
REMARK    6  A    between atoms: C_13  and  C_15 
REMARK       I    between atoms: C_15  and  N_17 
REMARK    7  A    between atoms: N_17  and  C_18 
REMARK    8  A    between atoms: C_22  and  C_23 
REMARK    9  A    between atoms: C_23  and  N_24 
ROOT
ATOM      1  C   UNL d   1       4.933  -3.141   0.145  0.00  0.00     0.313 C 
ATOM      2  O   UNL d   1       4.062  -3.951   0.467  0.00  0.00    -0.262 OA
ATOM      3  N   UNL d   1       6.300  -3.434   0.015  0.00  0.00    -0.319 N 
ATOM      4  H   UNL d   1       6.929  -2.633   0.025  0.00  0.00     0.169 HD
ENDROOT
BRANCH   1   5
ATOM      5  C   UNL d   1       4.493  -1.660  -0.095  0.00  0.00     0.310 C 
ATOM      6  N   UNL d   1       3.099  -1.448  -0.147  0.00  0.00    -0.349 N 
ATOM      7  H   UNL d   1       2.498  -2.257  -0.033  0.00  0.00     0.163 HD
ATOM      8  O   UNL d   1       5.343  -0.805  -0.197  0.00  0.00    -0.262 OA
BRANCH   6   9
ATOM      9  C   UNL d   1       2.494  -0.105  -0.026  0.00  0.00     0.081 C 
ATOM     10  C   UNL d   1       0.954  -0.149  -0.056  0.00  0.00     0.032 C 
BRANCH   9  11
ATOM     11  C   UNL d   1       2.944   0.541   1.285  0.00  0.00     0.029 C 
BRANCH  11  12
ATOM     12  C   UNL d   1       2.474   1.983   1.465  0.00  0.00     0.040 C 
BRANCH  12  13
ATOM     13  C   UNL d   1       2.941   2.606   2.756  0.00  0.00    -0.058 A 
ATOM     14  C   UNL d   1       3.494   1.855   3.807  0.00  0.00     0.010 A 
ATOM     15  C   UNL d   1       3.837   2.458   5.013  0.00  0.00     0.037 A 
ATOM     16  C   UNL d   1       3.629   3.821   5.168  0.00  0.00     0.065 A 
ATOM     17  C   UNL d   1       3.087   4.583   4.141  0.00  0.00     0.037 A 
ATOM     18  C   UNL d   1       2.744   3.979   2.934  0.00  0.00     0.010 A 
BRANCH  16  19
ATOM     19  O   UNL d   1       3.945   4.461   6.328  0.00  0.00    -0.361 OA
ATOM     20  H   UNL d   1       4.330   3.817   6.944  0.00  0.00     0.217 HD
ENDBRANCH  16  19
ENDBRANCH  12  13
ENDBRANCH  11  12
ENDBRANCH   9  11
ENDBRANCH   6   9
ENDBRANCH   1   5
BRANCH   3  21
ATOM     21  C   UNL d   1       6.869  -4.749  -0.058  0.00  0.00     0.035 C 
ATOM     22  C   UNL d   1       8.055  -5.146   0.501  0.00  0.00     0.029 C 
ATOM     23  C   UNL d   1       8.574  -6.437   0.205  0.00  0.00     0.003 C 
ATOM     24  C   UNL d   1       7.971  -7.303  -0.738  0.00  0.00     0.009 C 
ATOM     25  C   UNL d   1       6.817  -6.883  -1.373  0.00  0.00    -0.030 C 
ATOM     26  C   UNL d   1       6.280  -5.702  -0.864  0.00  0.00     0.038 C 
BRANCH  25  27
ATOM     27  C   UNL d   1       6.125  -7.588  -2.527  0.00  0.00     0.273 C 
BRANCH  27  28
ATOM     28  N   UNL d   1       4.977  -6.822  -3.284  0.00  0.00    -0.067 N 
ATOM     29  C   UNL d   1       5.361  -5.551  -4.056  0.00  0.00     0.235 C 
ATOM     30  C   UNL d   1       4.932  -4.391  -3.185  0.00  0.00     0.029 C 
ATOM     31  C   UNL d   1       3.687  -4.930  -2.471  0.00  0.00     0.029 C 
ATOM     32  C   UNL d   1       3.754  -6.464  -2.452  0.00  0.00     0.235 C 
ATOM     33  H   UNL d   1       4.657  -7.503  -3.984  0.00  0.00     0.280 HD
ENDBRANCH  27  28
ENDBRANCH  25  27
ENDBRANCH   3  21
TORSDOF 9
