REMARK  4 active torsions:
REMARK  status: ('A' for Active; 'I' for Inactive)
REMARK    1  A    between atoms: C_5  and  N_6 
REMARK       I    between atoms: N_6  and  C_7 
REMARK    2  A    between atoms: C_7  and  C_9 
REMARK    3  A    between atoms: C_10  and  C_11 
REMARK    4  A    between atoms: C_18  and  O_19 
ROOT
ATOM      1  N   UNL d   1      -2.287  -2.055  -0.056  0.00  0.00    -0.321 N 
ATOM      2  C   UNL d   1      -2.256  -3.448  -0.077  0.00  0.00     0.245 C 
ATOM      3  O   UNL d   1      -1.249  -4.155  -0.068  0.00  0.00    -0.268 OA
ATOM      4  H   UNL d   1      -3.189  -1.605  -0.083  0.00  0.00     0.169 HD
ENDROOT
BRANCH   1   5
ATOM      5  C   UNL d   1      -1.119  -1.216  -0.020  0.00  0.00     0.068 A 
ATOM      6  C   UNL d   1       0.168  -1.776   0.006  0.00  0.00     0.033 A 
ATOM      7  C   UNL d   1       1.334  -1.006   0.022  0.00  0.00     0.009 A 
ATOM      8  C   UNL d   1       1.258   0.378   0.005  0.00  0.00    -0.059 A 
ATOM      9  C   UNL d   1       2.498   1.218  -0.001  0.00  0.00     0.048 C 
ATOM     10  C   UNL d   1      -0.008   0.971  -0.009  0.00  0.00     0.045 A 
ATOM     11  C   UNL d   1      -1.180   0.192  -0.016  0.00  0.00     0.092 A 
BRANCH  11  12
ATOM     12  O   UNL d   1      -2.332   0.932  -0.020  0.00  0.00    -0.358 OA
ATOM     13  H   UNL d   1      -3.103   0.356   0.035  0.00  0.00     0.217 HD
ENDBRANCH  11  12
ENDBRANCH   1   5
BRANCH   2  14
ATOM     14  C   UNL d   1      -3.579  -4.135  -0.121  0.00  0.00     0.075 C 
ATOM     15  C   UNL d   1      -3.591  -5.485  -0.134  0.00  0.00     0.017 C 
BRANCH  15  16
ATOM     16  C   UNL d   1      -4.811  -6.301  -0.185  0.00  0.00    -0.036 A 
ATOM     17  C   UNL d   1      -5.844  -5.980  -1.075  0.00  0.00     0.014 A 
ATOM     18  C   UNL d   1      -7.013  -6.741  -1.110  0.00  0.00     0.043 A 
ATOM     19  C   UNL d   1      -7.139  -7.842  -0.274  0.00  0.00     0.116 A 
ATOM     20  F   UNL d   1      -8.268  -8.563  -0.303  0.00  0.00    -0.206 F 
ATOM     21  C   UNL d   1      -6.112  -8.206   0.587  0.00  0.00     0.043 A 
ATOM     22  C   UNL d   1      -4.941  -7.440   0.627  0.00  0.00     0.014 A 
ENDBRANCH  15  16
ENDBRANCH   2  14
TORSDOF 4
