REMARK  10 active torsions:
REMARK  status: ('A' for Active; 'I' for Inactive)
REMARK    1  A    between atoms: C_2  and  C_3 
REMARK       I    between atoms: C_2  and  N_14 
REMARK    2  A    between atoms: C_4  and  C_5 
REMARK    3  A    between atoms: C_8  and  N_9 
REMARK    4  A    between atoms: N_14  and  C_15 
REMARK    5  A    between atoms: C_15  and  N_17 
REMARK    6  A    between atoms: N_17  and  N_18 
REMARK       I    between atoms: N_18  and  C_19 
REMARK    7  A    between atoms: C_19  and  C_21 
REMARK    8  A    between atoms: C_21  and  O_22 
REMARK    9  A    between atoms: O_22  and  C_23 
REMARK   10  A    between atoms: C_28  and  C_29 
ROOT
ATOM      1  N   UNL d   1       5.164  -1.837  -1.692  0.00  0.00    -0.273 N 
ATOM      2  H   UNL d   1       4.622  -2.494  -2.254  0.00  0.00     0.189 HD
ENDROOT
BRANCH   1   3
ATOM      3  C   UNL d   1       4.681  -0.842  -0.836  0.00  0.00     0.193 C 
ATOM      4  S   UNL d   1       5.824   0.114  -0.032  0.00  0.00    -0.039 SA
BRANCH   3   5
ATOM      5  N   UNL d   1       3.268  -0.756  -0.743  0.00  0.00    -0.299 N 
ATOM      6  C   UNL d   1       2.352   0.051  -0.031  0.00  0.00     0.247 C 
ATOM      7  O   UNL d   1       1.137  -0.089  -0.182  0.00  0.00    -0.268 OA
ATOM      8  H   UNL d   1       2.744  -1.404  -1.323  0.00  0.00     0.171 HD
BRANCH   6   9
ATOM      9  C   UNL d   1       2.888   1.083   0.888  0.00  0.00     0.075 C 
ATOM     10  C   UNL d   1       2.243   1.974   1.653  0.00  0.00     0.017 C 
BRANCH  10  11
ATOM     11  C   UNL d   1       3.018   2.999   2.396  0.00  0.00    -0.036 A 
ATOM     12  C   UNL d   1       2.605   3.413   3.666  0.00  0.00     0.014 A 
ATOM     13  C   UNL d   1       3.212   4.514   4.291  0.00  0.00     0.037 A 
ATOM     14  C   UNL d   1       4.304   5.149   3.685  0.00  0.00     0.102 A 
ATOM     15  C   UNL d   1       4.764   4.719   2.439  0.00  0.00     0.037 A 
ATOM     16  C   UNL d   1       4.118   3.655   1.803  0.00  0.00     0.014 A 
BRANCH  14  17
ATOM     17  N   UNL d   1       4.998   6.243   4.378  0.00  0.00    -0.116 N 
ATOM     18  O   UNL d   1       4.568   6.588   5.487  0.00  0.00    -0.532 OA
ATOM     19  O   UNL d   1       5.987   6.745   3.821  0.00  0.00    -0.532 OA
ENDBRANCH  14  17
ENDBRANCH  10  11
ENDBRANCH   6   9
ENDBRANCH   3   5
ENDBRANCH   1   3
BRANCH   1  20
ATOM     20  N   UNL d   1       6.590  -1.925  -1.836  0.00  0.00    -0.266 N 
ATOM     21  C   UNL d   1       7.205  -2.825  -2.679  0.00  0.00     0.260 C 
ATOM     22  O   UNL d   1       6.552  -3.651  -3.323  0.00  0.00    -0.269 OA
ATOM     23  H   UNL d   1       7.122  -1.290  -1.236  0.00  0.00     0.190 HD
BRANCH  21  24
ATOM     24  C   UNL d   1       8.746  -2.712  -2.694  0.00  0.00     0.280 C 
BRANCH  24  25
ATOM     25  O   UNL d   1       9.326  -3.708  -3.537  0.00  0.00    -0.341 OA
BRANCH  25  26
ATOM     26  C   UNL d   1      10.685  -3.914  -3.544  0.00  0.00     0.080 A 
ATOM     27  C   UNL d   1      11.222  -4.226  -4.803  0.00  0.00     0.037 A 
ATOM     28  C   UNL d   1      12.564  -4.604  -4.953  0.00  0.00     0.003 A 
ATOM     29  C   UNL d   1      13.408  -4.629  -3.852  0.00  0.00     0.001 A 
ATOM     30  C   UNL d   1      12.891  -4.324  -2.600  0.00  0.00     0.015 A 
ATOM     31  C   UNL d   1      11.530  -3.980  -2.422  0.00  0.00     0.007 A 
BRANCH  31  32
ATOM     32  C   UNL d   1      11.080  -3.766  -1.053  0.00  0.00    -0.023 A 
ATOM     33  C   UNL d   1      11.632  -2.723  -0.296  0.00  0.00     0.012 A 
ATOM     34  C   UNL d   1      11.227  -2.526   1.018  0.00  0.00     0.001 A 
ATOM     35  C   UNL d   1      10.188  -3.292   1.545  0.00  0.00     0.000 A 
ATOM     36  C   UNL d   1       9.590  -4.295   0.783  0.00  0.00     0.001 A 
ATOM     37  C   UNL d   1      10.064  -4.561  -0.496  0.00  0.00     0.012 A 
ENDBRANCH  31  32
ENDBRANCH  25  26
ENDBRANCH  24  25
ENDBRANCH  21  24
ENDBRANCH   1  20
TORSDOF 10
