@<TRIPOS>MOLECULE
*****
 57 59 0 0 0
SMALL
GASTEIGER

@<TRIPOS>ATOM
      1 C           1.0888   -0.1322    0.0184 C.3     1  UNL1        0.0820
      2 O           2.5254   -0.1253    0.0315 O.3     1  UNL1       -0.4645
      3 C           3.0870   -1.3463   -0.1480 C.2     1  UNL1        0.3389
      4 O           2.4734   -2.3991   -0.3159 O.2     1  UNL1       -0.2450
      5 C           4.5711   -1.2855   -0.1213 C.ar    1  UNL1        0.0591
      6 C           5.3170   -2.1173   -0.9643 C.ar    1  UNL1       -0.0460
      7 C           6.7161   -2.2052   -0.8233 C.ar    1  UNL1       -0.0401
      8 C           7.4114   -1.4086    0.0999 C.ar    1  UNL1        0.0275
      9 N           8.7876   -1.5088    0.2186 N.pl3   1  UNL1       -0.3354
     10 C           9.6034   -0.5954    1.0357 C.3     1  UNL1        0.0861
     11 C          11.1015   -0.8191    0.7579 C.2     1  UNL1        0.2343
     12 O          11.4626   -1.5897   -0.1356 O.2     1  UNL1       -0.2738
     13 N          11.9828   -0.1197    1.5860 N.am    1  UNL1       -0.2842
     14 C          13.3878   -0.1791    1.4136 C.ar    1  UNL1        0.0341
     15 C          14.2519   -0.1679    2.5118 C.ar    1  UNL1       -0.0404
     16 C          15.6383   -0.1761    2.3089 C.ar    1  UNL1       -0.0593
     17 C          16.1588   -0.2054    1.0115 C.ar    1  UNL1       -0.0495
     18 C          15.2998   -0.1820   -0.0958 C.ar    1  UNL1        0.0385
     19 C          15.8870   -0.0902   -1.4651 C.2     1  UNL1        0.2446
     20 O          17.1081   -0.0366   -1.5812 O.2     1  UNL1       -0.2702
     21 N          15.0272   -0.0529   -2.5485 N.am    1  UNL1       -0.3048
     22 C          15.5080   -0.0018   -3.9244 C.3     1  UNL1        0.0458
     23 C          16.3863   -1.2188   -4.2371 C.3     1  UNL1       -0.0424
     24 C          14.3186    0.0789   -4.8794 C.ar    1  UNL1       -0.0275
     25 C          13.8037    1.3161   -5.2967 C.ar    1  UNL1       -0.0568
     26 C          12.6376    1.3734   -6.0706 C.ar    1  UNL1       -0.0614
     27 C          12.0194    0.2011   -6.5050 C.ar    1  UNL1       -0.0617
     28 C          12.5376   -1.0312   -6.1316 C.ar    1  UNL1       -0.0614
     29 C          13.6620   -1.0878   -5.3127 C.ar    1  UNL1       -0.0568
     30 C          13.9219   -0.1860    0.1224 C.ar    1  UNL1       -0.0284
     31 C           6.6417   -0.5953    0.9400 C.ar    1  UNL1       -0.0401
     32 C           5.2429   -0.5222    0.8332 C.ar    1  UNL1       -0.0460
     33 H           0.7332    0.8986    0.1164 H       1  UNL1        0.0661
     34 H           0.6995   -0.7078    0.8651 H       1  UNL1        0.0661
     35 H           0.7035   -0.5345   -0.9253 H       1  UNL1        0.0661
     36 H           4.8150   -2.7129   -1.7249 H       1  UNL1        0.0626
     37 H           7.2546   -2.9244   -1.4394 H       1  UNL1        0.0636
     38 H           9.3067   -1.9812   -0.5242 H       1  UNL1        0.1466
     39 H           9.4125   -0.8018    2.0925 H       1  UNL1        0.0557
     40 H           9.3712    0.4517    0.8077 H       1  UNL1        0.0557
     41 H          11.6367    0.3546    2.4117 H       1  UNL1        0.1549
     42 H          13.8745   -0.2215    3.5296 H       1  UNL1        0.0636
     43 H          16.3213   -0.1547    3.1565 H       1  UNL1        0.0618
     44 H          17.2386   -0.2360    0.8663 H       1  UNL1        0.0625
     45 H          14.0257   -0.0714   -2.4327 H       1  UNL1        0.1496
     46 H          16.1191    0.9054   -4.0210 H       1  UNL1        0.0545
     47 H          15.8477   -2.1569   -4.0635 H       1  UNL1        0.0251
     48 H          17.2701   -1.2674   -3.5985 H       1  UNL1        0.0251
     49 H          16.7247   -1.1954   -5.2766 H       1  UNL1        0.0251
     50 H          14.2999    2.2455   -5.0232 H       1  UNL1        0.0621
     51 H          12.2010    2.3347   -6.3301 H       1  UNL1        0.0618
     52 H          11.1346    0.2445   -7.1336 H       1  UNL1        0.0618
     53 H          12.0646   -1.9546   -6.4546 H       1  UNL1        0.0618
     54 H          14.0159   -2.0719   -5.0203 H       1  UNL1        0.0621
     55 H          13.2346   -0.1479   -0.7107 H       1  UNL1        0.0644
     56 H           7.1200   -0.0150    1.7221 H       1  UNL1        0.0636
     57 H           4.6919    0.1063    1.5262 H       1  UNL1        0.0626
@<TRIPOS>BOND
     1     1     2    1
     2     2     3    1
     3     3     4    2
     4     3     5    1
     5     5     6   ar
     6     6     7   ar
     7     7     8   ar
     8     8     9    1
     9     9    10    1
    10    10    11    1
    11    11    12    2
    12    11    13   am
    13    13    14    1
    14    14    15   ar
    15    15    16   ar
    16    16    17   ar
    17    17    18   ar
    18    18    19    1
    19    19    20    2
    20    19    21   am
    21    21    22    1
    22    22    23    1
    23    22    24    1
    24    24    25   ar
    25    25    26   ar
    26    26    27   ar
    27    27    28   ar
    28    28    29   ar
    29    24    29   ar
    30    18    30   ar
    31    14    30   ar
    32     8    31   ar
    33    31    32   ar
    34     5    32   ar
    35     1    33    1
    36     1    34    1
    37     1    35    1
    38     6    36    1
    39     7    37    1
    40     9    38    1
    41    10    39    1
    42    10    40    1
    43    13    41    1
    44    15    42    1
    45    16    43    1
    46    17    44    1
    47    21    45    1
    48    22    46    1
    49    23    47    1
    50    23    48    1
    51    23    49    1
    52    25    50    1
    53    26    51    1
    54    27    52    1
    55    28    53    1
    56    29    54    1
    57    30    55    1
    58    31    56    1
    59    32    57    1
