@<TRIPOS>MOLECULE
*****
 52 55 0 0 0
SMALL
GASTEIGER

@<TRIPOS>ATOM
      1 C           0.9360    0.0503    0.0514 C.3     1  UNL1        0.0790
      2 O           2.3681    0.0606    0.0689 O.3     1  UNL1       -0.4908
      3 C           2.9286   -1.0826    0.5690 C.ar    1  UNL1        0.1741
      4 C           2.5481   -2.3615    0.2081 C.ar    1  UNL1        0.2080
      5 C           3.1525   -3.4733    0.7491 C.ar    1  UNL1        0.1702
      6 C           4.1803   -3.3846    1.6536 C.ar    1  UNL1       -0.0121
      7 C           4.6547   -2.1122    1.9805 C.ar    1  UNL1       -0.0266
      8 C           4.0254   -0.9506    1.4452 C.ar    1  UNL1        0.0507
      9 C           4.5286    0.4216    1.8217 C.3     1  UNL1        0.0285
     10 C           5.3906    1.0686    0.7097 C.3     1  UNL1        0.0865
     11 N           5.8746    2.3756    1.2200 N.2     1  UNL1       -0.2886
     12 C           6.4731    3.0449    0.2861 C.2     1  UNL1        0.0207
     13 C           7.1923    4.3489    0.5315 C.3     1  UNL1        0.1487
     14 C           8.3674    4.3521   -0.3874 C.2     1  UNL1        0.2554
     15 O           9.0894    3.3493   -0.4079 O.2     1  UNL1       -0.2724
     16 N           8.5703    5.3817   -1.2495 N.am    1  UNL1       -0.1581
     17 C           7.8306    6.4326   -1.2075 C.2     1  UNL1        0.1519
     18 S           8.2272    7.6987   -2.3501 S.3     1  UNL1       -0.1099
     19 N           6.7690    6.6114   -0.3497 N.am    1  UNL1       -0.2550
     20 C           6.0203    7.8658   -0.2289 C.3     1  UNL1        0.0099
     21 C           6.3675    5.5956    0.5069 C.2     1  UNL1        0.2381
     22 O           5.4100    5.7208    1.2758 O.2     1  UNL1       -0.2740
     23 N           5.3584    0.4009    3.1180 N.4     1  UNL1        0.2401
     24 C           4.4833    0.2766    4.3322 C.3     1  UNL1       -0.0424
     25 C           6.4341   -0.6534    3.0538 C.3     1  UNL1       -0.0274
     26 C           5.7969   -2.0332    2.9652 C.3     1  UNL1        0.0134
     27 O           2.6469   -4.6362    0.2595 O.3     1  UNL1       -0.4525
     28 C           1.8636   -4.1264   -0.8340 C.3     1  UNL1        0.2334
     29 O           1.6111   -2.7151   -0.7147 O.3     1  UNL1       -0.4489
     30 H           0.5973    0.9950   -0.3840 H       1  UNL1        0.0660
     31 H           0.5482   -0.0163    1.0733 H       1  UNL1        0.0660
     32 H           0.5137   -0.7411   -0.5697 H       1  UNL1        0.0660
     33 H           4.6264   -4.2819    2.0708 H       1  UNL1        0.0658
     34 H           3.6922    1.0985    2.0393 H       1  UNL1        0.0924
     35 H           4.8172    1.1696   -0.2201 H       1  UNL1        0.0568
     36 H           6.2584    0.4379    0.4733 H       1  UNL1        0.0568
     37 H           6.5523    2.6333   -0.7414 H       1  UNL1        0.0791
     38 H           7.5848    4.3113    1.5576 H       1  UNL1        0.0549
     39 H           9.2366    7.0836   -2.9835 H       1  UNL1        0.1096
     40 H           6.3311    8.6432   -0.9256 H       1  UNL1        0.0433
     41 H           6.1562    8.2520    0.7877 H       1  UNL1        0.0433
     42 H           4.9560    7.6652   -0.3835 H       1  UNL1        0.0433
     43 H           5.8121    1.3314    3.1303 H       1  UNL1        0.2038
     44 H           3.9005   -0.6469    4.2647 H       1  UNL1        0.0778
     45 H           3.8089    1.1334    4.3636 H       1  UNL1        0.0778
     46 H           5.1248    0.2506    5.2160 H       1  UNL1        0.0778
     47 H           7.0671   -0.5559    3.9415 H       1  UNL1        0.0818
     48 H           7.0621   -0.4526    2.1800 H       1  UNL1        0.0818
     49 H           5.4106   -2.3170    3.9519 H       1  UNL1        0.0365
     50 H           6.5657   -2.7641    2.6934 H       1  UNL1        0.0365
     51 H           0.9113   -4.6619   -0.8848 H       1  UNL1        0.1166
     52 H           2.4203   -4.2949   -1.7643 H       1  UNL1        0.1166
@<TRIPOS>UNITY_ATOM_ATTR
23 1
charge 1
@<TRIPOS>BOND
     1     1     2    1
     2     2     3    1
     3     3     4   ar
     4     4     5   ar
     5     5     6   ar
     6     6     7   ar
     7     7     8   ar
     8     3     8   ar
     9     8     9    1
    10     9    10    1
    11    10    11    1
    12    11    12    2
    13    12    13    1
    14    13    14    1
    15    14    15    2
    16    14    16    1
    17    16    17    2
    18    17    18    1
    19    17    19    1
    20    19    20    1
    21    19    21   am
    22    13    21    1
    23    21    22    2
    24     9    23    1
    25    23    25    1
    26    25    26    1
    27     7    26    1
    28     5    27    1
    29    27    28    1
    30    28    29    1
    31     4    29    1
    32    23    24    1
    33     1    30    1
    34     1    31    1
    35     1    32    1
    36     6    33    1
    37     9    34    1
    38    10    35    1
    39    10    36    1
    40    12    37    1
    41    13    38    1
    42    18    39    1
    43    20    40    1
    44    20    41    1
    45    20    42    1
    46    23    43    1
    47    24    44    1
    48    24    45    1
    49    24    46    1
    50    25    47    1
    51    25    48    1
    52    26    49    1
    53    26    50    1
    54    28    51    1
    55    28    52    1
