REMARK  6 active torsions:
REMARK  status: ('A' for Active; 'I' for Inactive)
REMARK    1  A    between atoms: C_4  and  C_5 
REMARK    2  A    between atoms: C_12  and  C_13 
REMARK       I    between atoms: C_13  and  N_15 
REMARK    3  A    between atoms: N_15  and  N_16 
REMARK    4  A    between atoms: N_16  and  C_17 
REMARK    5  A    between atoms: C_17  and  N_19 
REMARK    6  A    between atoms: N_19  and  C_20 
ROOT
ATOM      1  C   UNL d   1       5.087  -3.814  -1.052  0.00  0.00     0.275 C 
ATOM      2  O   UNL d   1       3.931  -4.239  -0.920  0.00  0.00    -0.266 OA
ATOM      3  N   UNL d   1       6.148  -4.692  -1.234  0.00  0.00    -0.263 N 
ATOM      4  H   UNL d   1       7.111  -4.382  -1.354  0.00  0.00     0.190 HD
ENDROOT
BRANCH   3   5
ATOM      5  N   UNL d   1       5.965  -6.132  -1.262  0.00  0.00    -0.273 N 
ATOM      6  H   UNL d   1       5.004  -6.453  -1.149  0.00  0.00     0.189 HD
BRANCH   5   7
ATOM      7  C   UNL d   1       7.074  -6.960  -1.500  0.00  0.00     0.191 C 
ATOM      8  S   UNL d   1       8.585  -6.254  -1.792  0.00  0.00    -0.039 SA
BRANCH   7   9
ATOM      9  N   UNL d   1       6.789  -8.344  -1.499  0.00  0.00    -0.331 N 
ATOM     10  H   UNL d   1       5.824  -8.626  -1.619  0.00  0.00     0.168 HD
BRANCH   9  11
ATOM     11  C   UNL d   1       7.770  -9.391  -1.693  0.00  0.00     0.045 A 
ATOM     12  C   UNL d   1       8.970  -9.326  -0.970  0.00  0.00     0.030 A 
ATOM     13  C   UNL d   1      10.017 -10.215  -1.196  0.00  0.00     0.003 A 
ATOM     14  C   UNL d   1       9.867 -11.239  -2.119  0.00  0.00     0.012 A 
ATOM     15  C   UNL d   1       8.652 -11.415  -2.790  0.00  0.00    -0.024 A 
ATOM     16  C   UNL d   1       8.525 -12.498  -3.677  0.00  0.00     0.012 A 
ATOM     17  C   UNL d   1       7.572 -10.497  -2.584  0.00  0.00     0.001 A 
ATOM     18  C   UNL d   1       7.343 -12.710  -4.377  0.00  0.00     0.001 A 
ATOM     19  C   UNL d   1       6.282 -11.830  -4.205  0.00  0.00     0.001 A 
ATOM     20  C   UNL d   1       6.396 -10.738  -3.331  0.00  0.00     0.014 A 
ENDBRANCH   9  11
ENDBRANCH   7   9
ENDBRANCH   5   7
ENDBRANCH   3   5
BRANCH   1  21
ATOM     21  C   UNL d   1       5.402  -2.377  -1.012  0.00  0.00     0.098 C 
ATOM     22  C   UNL d   1       6.646  -1.690  -1.110  0.00  0.00     0.160 C 
ATOM     23  N   UNL d   1       6.547  -0.363  -0.953  0.00  0.00    -0.181 NA
ATOM     24  N   UNL d   1       5.222  -0.156  -0.894  0.00  0.00    -0.240 N 
ATOM     25  C   UNL d   1       4.639   1.176  -0.762  0.00  0.00     0.221 C 
ATOM     26  C   UNL d   1       4.501  -1.332  -0.834  0.00  0.00     0.138 C 
ATOM     27  C   UNL d   1       3.102   1.106  -0.906  0.00  0.00     0.061 C 
ATOM     28  C   UNL d   1       2.578  -0.066  -0.077  0.00  0.00     0.081 C 
ATOM     29  C   UNL d   1       1.059  -0.102  -0.084  0.00  0.00     0.032 C 
ATOM     30  N   UNL d   1       3.155  -1.276  -0.658  0.00  0.00    -0.370 N 
ATOM     31  H   UNL d   1       2.606  -2.138  -0.639  0.00  0.00     0.161 HD
BRANCH  25  32
ATOM     32  C   UNL d   1       5.207   2.216  -1.720  0.00  0.00     0.409 C 
ATOM     33  F   UNL d   1       6.256   1.815  -2.461  0.00  0.00    -0.169 F 
ATOM     34  F   UNL d   1       4.269   2.663  -2.595  0.00  0.00    -0.169 F 
ATOM     35  F   UNL d   1       5.610   3.313  -1.023  0.00  0.00    -0.169 F 
ENDBRANCH  25  32
ENDBRANCH   1  21
TORSDOF 6
