@<TRIPOS>MOLECULE
*****
 69 72 0 0 0
SMALL
GASTEIGER

@<TRIPOS>ATOM
      1 C           0.9876    0.1130   -0.0024 C.3     1  UNL1       -0.0653
      2 C           2.5113    0.1710    0.0125 C.3     1  UNL1       -0.0556
      3 C           3.0497    1.4179    0.7731 C.3     1  UNL1       -0.0473
      4 C           4.5827    1.5094    0.6500 C.3     1  UNL1       -0.0003
      5 C           5.4669    2.6268    1.2167 C.2     1  UNL1        0.1247
      6 N           6.4292    2.2450    2.0047 N.2     1  UNL1       -0.0798
      7 N           6.8839    3.3414    2.7208 N.pl3   1  UNL1       -0.0340
      8 C           6.1597    3.5575    3.8860 C.2     1  UNL1        0.3489
      9 N           5.0300    2.9342    4.0531 N.2     1  UNL1       -0.0968
     10 C           6.5562    4.7556    4.6857 C.2     1  UNL1        0.1318
     11 C           5.9390    5.0928    5.8344 C.2     1  UNL1       -0.0344
     12 C           4.8122    4.3030    6.3678 C.ar    1  UNL1       -0.0204
     13 C           3.5264    4.8271    6.4877 C.ar    1  UNL1       -0.0509
     14 C           2.4740    3.9795    6.8635 C.ar    1  UNL1       -0.0157
     15 C           2.6607    2.5863    6.9493 C.ar    1  UNL1        0.1621
     16 O           1.5237    1.8665    7.2299 O.3     1  UNL1       -0.4849
     17 C           1.6696    0.4398    7.2299 C.3     1  UNL1        0.1237
     18 C           0.3477   -0.1946    7.5736 C.3     1  UNL1        0.1235
     19 O           0.4679   -1.6156    7.5701 O.3     1  UNL1       -0.4881
     20 C          -0.6743   -2.3472    7.7952 C.ar    1  UNL1        0.1264
     21 C          -0.5263   -3.4988    8.5991 C.ar    1  UNL1       -0.0085
     22 C           0.6911   -3.7388    9.4528 C.3     1  UNL1       -0.0362
     23 C          -1.5877   -4.4167    8.7038 C.ar    1  UNL1       -0.0554
     24 C          -2.8185   -4.1455    8.1185 C.ar    1  UNL1       -0.0610
     25 C          -2.9813   -2.9871    7.3720 C.ar    1  UNL1       -0.0554
     26 C          -1.9185   -2.0891    7.1865 C.ar    1  UNL1       -0.0085
     27 C          -2.2042   -0.8811    6.3508 C.3     1  UNL1       -0.0362
     28 C           3.9392    2.0534    6.7445 C.ar    1  UNL1        0.1624
     29 O           4.1034    0.6993    6.6868 O.3     1  UNL1       -0.4886
     30 C           5.3715    0.1513    6.3653 C.3     1  UNL1        0.0870
     31 C           5.2954   -1.3424    6.6079 C.3     1  UNL1       -0.0307
     32 C           5.0036    2.9278    6.5655 C.ar    1  UNL1       -0.0091
     33 C           7.5077    5.6851    3.9562 C.2     1  UNL1        0.2789
     34 O           8.2441    6.4312    4.5598 O.2     1  UNL1       -0.2676
     35 N           7.2320    5.7009    2.5631 N.am    1  UNL1       -0.1303
     36 C           6.8272    4.5613    2.0717 C.2     1  UNL1        0.2752
     37 S           5.4214    4.3824    0.9114 S.3     1  UNL1       -0.0097
     38 H           0.6325   -0.7506   -0.5783 H       1  UNL1        0.0230
     39 H           0.5726    1.0139   -0.4637 H       1  UNL1        0.0230
     40 H           0.5867    0.0251    1.0120 H       1  UNL1        0.0230
     41 H           2.8678    0.1849   -1.0247 H       1  UNL1        0.0263
     42 H           2.8908   -0.7586    0.4602 H       1  UNL1        0.0263
     43 H           2.7278    1.3321    1.8215 H       1  UNL1        0.0269
     44 H           2.5845    2.3159    0.3615 H       1  UNL1        0.0269
     45 H           4.8774    1.3920   -0.3905 H       1  UNL1        0.0335
     46 H           4.9317    0.5975    1.1696 H       1  UNL1        0.0335
     47 H           4.8946    2.2089    3.3547 H       1  UNL1        0.3634
     48 H           6.1906    5.9973    6.3760 H       1  UNL1        0.0634
     49 H           3.3207    5.8692    6.2511 H       1  UNL1        0.0625
     50 H           1.4962    4.4090    7.0692 H       1  UNL1        0.0655
     51 H           2.3961    0.1071    7.9757 H       1  UNL1        0.0731
     52 H           1.9372    0.0942    6.2191 H       1  UNL1        0.0731
     53 H          -0.2732    0.1826    6.7731 H       1  UNL1        0.0731
     54 H          -0.0262    0.1610    8.5374 H       1  UNL1        0.0731
     55 H           1.4367   -2.9454    9.3559 H       1  UNL1        0.0279
     56 H           1.1653   -4.6937    9.2093 H       1  UNL1        0.0279
     57 H           0.3862   -3.7555   10.5075 H       1  UNL1        0.0279
     58 H          -1.4637   -5.3430    9.2609 H       1  UNL1        0.0621
     59 H          -3.6575   -4.8215    8.2561 H       1  UNL1        0.0618
     60 H          -3.9453   -2.7866    6.9099 H       1  UNL1        0.0621
     61 H          -3.2074   -0.8782    5.9237 H       1  UNL1        0.0279
     62 H          -1.4943   -0.8298    5.5179 H       1  UNL1        0.0279
     63 H          -2.1639    0.0061    6.9924 H       1  UNL1        0.0279
     64 H           6.1448    0.5647    7.0185 H       1  UNL1        0.0694
     65 H           5.6065    0.3425    5.3123 H       1  UNL1        0.0694
     66 H           5.0380   -1.5443    7.6534 H       1  UNL1        0.0262
     67 H           6.2537   -1.8147    6.3796 H       1  UNL1        0.0262
     68 H           4.5125   -1.7986    5.9935 H       1  UNL1        0.0262
     69 H           5.9765    2.5204    6.3131 H       1  UNL1        0.0661
@<TRIPOS>BOND
     1     1     2    1
     2     2     3    1
     3     3     4    1
     4     4     5    1
     5     5     6    2
     6     6     7    1
     7     7     8    1
     8     8     9    2
     9     8    10    1
    10    10    11    2
    11    11    12    1
    12    12    13   ar
    13    13    14   ar
    14    14    15   ar
    15    15    16    1
    16    16    17    1
    17    17    18    1
    18    18    19    1
    19    19    20    1
    20    20    21   ar
    21    21    22    1
    22    21    23   ar
    23    23    24   ar
    24    24    25   ar
    25    25    26   ar
    26    20    26   ar
    27    26    27    1
    28    15    28   ar
    29    28    29    1
    30    29    30    1
    31    30    31    1
    32    28    32   ar
    33    12    32   ar
    34    10    33    1
    35    33    34    2
    36    33    35    1
    37    35    36    2
    38     7    36    1
    39    36    37    1
    40     5    37    1
    41     1    38    1
    42     1    39    1
    43     1    40    1
    44     2    41    1
    45     2    42    1
    46     3    43    1
    47     3    44    1
    48     4    45    1
    49     4    46    1
    50     9    47    1
    51    11    48    1
    52    13    49    1
    53    14    50    1
    54    17    51    1
    55    17    52    1
    56    18    53    1
    57    18    54    1
    58    22    55    1
    59    22    56    1
    60    22    57    1
    61    23    58    1
    62    24    59    1
    63    25    60    1
    64    27    61    1
    65    27    62    1
    66    27    63    1
    67    30    64    1
    68    30    65    1
    69    31    66    1
    70    31    67    1
    71    31    68    1
    72    32    69    1
