@<TRIPOS>MOLECULE
*****
 46 47 0 0 0
SMALL
GASTEIGER

@<TRIPOS>ATOM
      1 C           5.2346   -9.4459   -2.4116 C.3     1  UNL1        0.0790
      2 O           4.3188   -8.3610   -2.5074 O.3     1  UNL1       -0.4915
      3 C           4.7670   -7.1487   -2.9706 C.ar    1  UNL1        0.1615
      4 C           4.5012   -6.0951   -2.0816 C.ar    1  UNL1       -0.0160
      5 C           4.6317   -4.7509   -2.4606 C.ar    1  UNL1       -0.0531
      6 C           5.0982   -4.3918   -3.7283 C.ar    1  UNL1       -0.0238
      7 C           5.2904   -2.9338   -4.1758 C.3     1  UNL1        0.0472
      8 C           4.6479   -1.9668   -3.1584 C.3     1  UNL1       -0.0424
      9 N           4.7484   -2.6806   -5.5269 N.am    1  UNL1       -0.2912
     10 C           5.3655   -3.1086   -6.6881 C.2     1  UNL1        0.3231
     11 O           6.4992   -3.5980   -6.7038 O.2     1  UNL1       -0.2507
     12 N           4.5512   -3.0493   -7.7969 N.am    1  UNL1       -0.1781
     13 O           5.1050   -3.6288   -8.9769 O.3     1  UNL1       -0.2740
     14 C           4.3539   -3.2524  -10.1331 C.3     1  UNL1        0.0983
     15 C           4.8564   -3.9879  -11.3553 C.ar    1  UNL1       -0.0197
     16 C           4.5668   -5.3490  -11.5348 C.ar    1  UNL1       -0.0563
     17 C           5.0748   -6.0474  -12.6338 C.ar    1  UNL1       -0.0614
     18 C           5.8138   -5.3781  -13.6067 C.ar    1  UNL1       -0.0617
     19 C           6.0941   -4.0222  -13.4520 C.ar    1  UNL1       -0.0614
     20 C           5.6308   -3.3340  -12.3261 C.ar    1  UNL1       -0.0563
     21 C           5.4124   -5.4590   -4.5759 C.ar    1  UNL1       -0.0114
     22 C           5.2160   -6.8122   -4.2530 C.ar    1  UNL1        0.1618
     23 O           5.4513   -7.5565   -5.3807 O.3     1  UNL1       -0.4914
     24 C           5.4550   -8.9402   -5.2121 C.3     1  UNL1        0.0790
     25 H           4.9060  -10.1339   -1.6308 H       1  UNL1        0.0660
     26 H           6.2675   -9.1314   -2.2375 H       1  UNL1        0.0660
     27 H           5.1597  -10.0947   -3.2826 H       1  UNL1        0.0660
     28 H           4.1424   -6.3070   -1.0770 H       1  UNL1        0.0655
     29 H           4.3234   -4.0062   -1.7330 H       1  UNL1        0.0622
     30 H           6.3676   -2.7212   -4.2048 H       1  UNL1        0.0546
     31 H           3.5737   -2.1700   -3.0509 H       1  UNL1        0.0251
     32 H           4.7574   -0.9165   -3.4393 H       1  UNL1        0.0251
     33 H           5.1066   -2.0755   -2.1660 H       1  UNL1        0.0251
     34 H           3.9473   -2.0757   -5.6068 H       1  UNL1        0.1509
     35 H           3.8313   -2.3502   -7.8977 H       1  UNL1        0.1841
     36 H           4.4490   -2.1708  -10.2770 H       1  UNL1        0.0634
     37 H           3.2938   -3.4910   -9.9854 H       1  UNL1        0.0634
     38 H           3.9484   -5.8760  -10.8115 H       1  UNL1        0.0621
     39 H           4.9030   -7.1170  -12.7242 H       1  UNL1        0.0618
     40 H           6.1744   -5.9144  -14.4808 H       1  UNL1        0.0618
     41 H           6.6885   -3.5043  -14.2007 H       1  UNL1        0.0618
     42 H           5.8806   -2.2817  -12.2143 H       1  UNL1        0.0621
     43 H           5.7911   -5.2905   -5.5763 H       1  UNL1        0.0659
     44 H           5.6506   -9.4824   -6.1369 H       1  UNL1        0.0660
     45 H           4.4571   -9.2427   -4.8831 H       1  UNL1        0.0660
     46 H           6.2963   -9.1792   -4.5566 H       1  UNL1        0.0660
@<TRIPOS>BOND
     1     1     2    1
     2     2     3    1
     3     3     4   ar
     4     4     5   ar
     5     5     6   ar
     6     7     9    1
     7     9    10   am
     8    10    11    2
     9    10    12   am
    10    12    13    1
    11    13    14    1
    12    14    15    1
    13    15    16   ar
    14    16    17   ar
    15    17    18   ar
    16    18    19   ar
    17    19    20   ar
    18    15    20   ar
    19     6    21   ar
    20    21    22   ar
    21     3    22   ar
    22    22    23    1
    23    23    24    1
    24     7     8    1
    25     7     6    1
    26     1    25    1
    27     1    26    1
    28     1    27    1
    29     4    28    1
    30     5    29    1
    31     7    30    1
    32     8    31    1
    33     8    32    1
    34     8    33    1
    35     9    34    1
    36    12    35    1
    37    14    36    1
    38    14    37    1
    39    16    38    1
    40    17    39    1
    41    18    40    1
    42    19    41    1
    43    20    42    1
    44    21    43    1
    45    24    44    1
    46    24    45    1
    47    24    46    1
