@<TRIPOS>MOLECULE
*****
 64 66 0 0 0
SMALL
GASTEIGER

@<TRIPOS>ATOM
      1 C           1.0387   -0.0576    0.0744 C.3     1  UNL1       -0.0648
      2 C           2.5568   -0.0795    0.0638 C.3     1  UNL1       -0.0476
      3 C           3.1404   -1.3251   -0.6330 C.3     1  UNL1        0.0240
      4 C           4.6640   -1.2723   -0.6102 C.2     1  UNL1        0.2172
      5 O           5.2382   -0.3241   -0.0729 O.2     1  UNL1       -0.2755
      6 N           5.3357   -2.3176   -1.2603 N.am    1  UNL1       -0.2854
      7 C           6.7608   -2.3873   -1.2426 C.ar    1  UNL1        0.0352
      8 C           7.3889   -2.0588   -0.0497 C.ar    1  UNL1       -0.0390
      9 C           8.7589   -2.0237    0.0344 C.ar    1  UNL1       -0.0398
     10 C           9.5708   -2.3075   -1.0604 C.ar    1  UNL1        0.0622
     11 CL         11.2043   -2.0313   -0.5638 Cl      1  UNL1       -0.0816
     12 C           9.0037   -2.7096   -2.3031 C.ar    1  UNL1        0.0537
     13 N           9.7363   -3.0606   -3.5134 N.am    1  UNL1       -0.2829
     14 C          11.1139   -3.1082   -3.6540 C.2     1  UNL1        0.2343
     15 O          11.9394   -2.8356   -2.7793 O.2     1  UNL1       -0.2738
     16 C          11.7515   -3.5243   -4.9804 C.3     1  UNL1        0.0861
     17 N          13.2040   -3.6192   -4.7218 N.pl3   1  UNL1       -0.3353
     18 C          14.1799   -3.7324   -5.6747 C.ar    1  UNL1        0.0310
     19 C          15.3613   -4.4206   -5.3913 C.ar    1  UNL1       -0.0406
     20 C          16.3406   -4.5942   -6.3721 C.ar    1  UNL1       -0.0566
     21 C          16.1297   -4.0972   -7.6574 C.ar    1  UNL1       -0.0198
     22 C          14.9708   -3.3798   -7.9386 C.ar    1  UNL1        0.1222
     23 O          14.8492   -2.8704   -9.2008 O.3     1  UNL1       -0.4919
     24 C          13.6829   -2.0678   -9.4046 C.3     1  UNL1        0.0899
     25 C          13.7209   -1.5662  -10.8215 C.3     1  UNL1       -0.0146
     26 C          12.4861   -0.7386  -11.1611 C.3     1  UNL1       -0.0246
     27 C          12.5148   -0.1972  -12.5683 C.ar    1  UNL1       -0.0472
     28 C          13.4770   -0.5990  -13.5078 C.ar    1  UNL1       -0.0586
     29 C          13.5676    0.0218  -14.7471 C.ar    1  UNL1       -0.0615
     30 C          12.6331    0.9853  -15.1036 C.ar    1  UNL1       -0.0617
     31 C          11.6337    1.3557  -14.2046 C.ar    1  UNL1       -0.0615
     32 C          11.5777    0.7737  -12.9386 C.ar    1  UNL1       -0.0586
     33 C          14.0127   -3.2071   -6.9443 C.ar    1  UNL1        0.0009
     34 C           7.5613   -2.7620   -2.3577 C.ar    1  UNL1       -0.0178
     35 H           0.6769    0.8462    0.5783 H       1  UNL1        0.0230
     36 H           0.6383   -0.9238    0.6086 H       1  UNL1        0.0230
     37 H           0.6402   -0.0569   -0.9442 H       1  UNL1        0.0230
     38 H           2.9170   -0.0257    1.0997 H       1  UNL1        0.0267
     39 H           2.9177    0.8295   -0.4353 H       1  UNL1        0.0267
     40 H           2.7987   -1.3593   -1.6721 H       1  UNL1        0.0358
     41 H           2.8003   -2.2286   -0.1156 H       1  UNL1        0.0358
     42 H           4.8176   -2.9425   -1.8630 H       1  UNL1        0.1548
     43 H           6.8342   -1.8116    0.8504 H       1  UNL1        0.0636
     44 H           9.2108   -1.7385    0.9814 H       1  UNL1        0.0633
     45 H           9.1809   -3.3159   -4.3247 H       1  UNL1        0.1549
     46 H          11.5009   -2.7785   -5.7393 H       1  UNL1        0.0557
     47 H          11.4062   -4.5185   -5.2679 H       1  UNL1        0.0557
     48 H          13.4865   -3.2137   -3.8191 H       1  UNL1        0.1466
     49 H          15.5019   -4.8685   -4.4100 H       1  UNL1        0.0636
     50 H          17.2599   -5.1214   -6.1336 H       1  UNL1        0.0619
     51 H          16.8709   -4.2635   -8.4335 H       1  UNL1        0.0654
     52 H          13.6772   -1.2098   -8.7194 H       1  UNL1        0.0696
     53 H          12.7778   -2.6742   -9.2720 H       1  UNL1        0.0696
     54 H          13.7989   -2.4371  -11.4825 H       1  UNL1        0.0301
     55 H          14.6343   -0.9740  -10.9658 H       1  UNL1        0.0301
     56 H          12.4301    0.1112  -10.4661 H       1  UNL1        0.0314
     57 H          11.5766   -1.3359  -11.0190 H       1  UNL1        0.0314
     58 H          14.1957   -1.3845  -13.2906 H       1  UNL1        0.0620
     59 H          14.3783   -0.2443  -15.4192 H       1  UNL1        0.0618
     60 H          12.6860    1.4451  -16.0850 H       1  UNL1        0.0618
     61 H          10.9104    2.1164  -14.4822 H       1  UNL1        0.0618
     62 H          10.8109    1.0930  -12.2360 H       1  UNL1        0.0620
     63 H          13.1199   -2.6289   -7.1301 H       1  UNL1        0.0673
     64 H           7.0532   -3.0237   -3.2853 H       1  UNL1        0.0655
@<TRIPOS>BOND
     1     1     2    1
     2     2     3    1
     3     3     4    1
     4     4     5    2
     5     4     6   am
     6     6     7    1
     7     7     8   ar
     8     8     9   ar
     9     9    10   ar
    10    10    11    1
    11    10    12   ar
    12    12    13    1
    13    13    14   am
    14    14    15    2
    15    14    16    1
    16    16    17    1
    17    17    18    1
    18    18    19   ar
    19    19    20   ar
    20    20    21   ar
    21    21    22   ar
    22    22    23    1
    23    23    24    1
    24    24    25    1
    25    25    26    1
    26    26    27    1
    27    27    28   ar
    28    28    29   ar
    29    29    30   ar
    30    30    31   ar
    31    31    32   ar
    32    27    32   ar
    33    22    33   ar
    34    18    33   ar
    35    12    34   ar
    36     7    34   ar
    37     1    35    1
    38     1    36    1
    39     1    37    1
    40     2    38    1
    41     2    39    1
    42     3    40    1
    43     3    41    1
    44     6    42    1
    45     8    43    1
    46     9    44    1
    47    13    45    1
    48    16    46    1
    49    16    47    1
    50    17    48    1
    51    19    49    1
    52    20    50    1
    53    21    51    1
    54    24    52    1
    55    24    53    1
    56    25    54    1
    57    25    55    1
    58    26    56    1
    59    26    57    1
    60    28    58    1
    61    29    59    1
    62    30    60    1
    63    31    61    1
    64    32    62    1
    65    33    63    1
    66    34    64    1
