REMARK  8 active torsions:
REMARK  status: ('A' for Active; 'I' for Inactive)
REMARK    1  A    between atoms: C_5  and  C_6 
REMARK    2  A    between atoms: C_6  and  C_8 
REMARK    3  A    between atoms: C_8  and  N_9 
REMARK    4  A    between atoms: N_9  and  C_10 
REMARK    5  A    between atoms: C_15  and  N_16 
REMARK    6  A    between atoms: C_22  and  N_23 
REMARK    7  A    between atoms: N_24  and  C_25 
REMARK    8  A    between atoms: C_25  and  C_26 
ROOT
ATOM      1  C   UNL d   1       0.900   0.067   0.014  0.00  0.00     0.164 C 
ATOM      2  N   UNL d   1       2.355   0.105   0.010  0.00  0.00    -0.270 N 
ATOM      3  C   UNL d   1       2.991   1.307   0.013  0.00  0.00     0.269 C 
ATOM      4  O   UNL d   1       2.341   2.358   0.010  0.00  0.00    -0.267 OA
ATOM      5  C   UNL d   1       4.483   1.303   0.043  0.00  0.00     0.123 C 
ATOM      6  C   UNL d   1       5.142   0.104   0.028  0.00  0.00     0.125 C 
ATOM      7  N   UNL d   1       4.390  -1.087   0.028  0.00  0.00    -0.280 N 
ATOM      8  C   UNL d   1       2.998  -1.098   0.127  0.00  0.00     0.333 C 
ATOM      9  O   UNL d   1       2.301  -2.094   0.316  0.00  0.00    -0.246 OA
ENDROOT
BRANCH   5  10
ATOM     10  C   UNL d   1       5.123   2.679   0.069  0.00  0.00     0.186 C 
ATOM     11  O   UNL d   1       4.466   3.723   0.038  0.00  0.00    -0.290 OA
BRANCH  10  12
ATOM     12  C   UNL d   1       6.615   2.770   0.106  0.00  0.00     0.204 C 
BRANCH  12  13
ATOM     13  N   UNL d   1       7.105   4.112  -0.087  0.00  0.00    -0.381 N 
ATOM     14  H   UNL d   1       6.470   4.866   0.153  0.00  0.00     0.160 HD
BRANCH  13  15
ATOM     15  C   UNL d   1       8.483   4.311  -0.102  0.00  0.00     0.055 A 
ATOM     16  C   UNL d   1       9.004   5.270   0.787  0.00  0.00     0.031 A 
ATOM     17  C   UNL d   1      10.369   5.536   0.847  0.00  0.00     0.002 A 
ATOM     18  C   UNL d   1      11.237   4.825   0.029  0.00  0.00     0.002 A 
ATOM     19  C   UNL d   1      10.743   3.823  -0.817  0.00  0.00     0.031 A 
ATOM     20  C   UNL d   1       9.370   3.530  -0.902  0.00  0.00     0.057 A 
BRANCH  20  21
ATOM     21  N   UNL d   1       8.936   2.559  -1.803  0.00  0.00    -0.379 N 
ATOM     22  C   UNL d   1       9.396   1.179  -1.740  0.00  0.00     0.123 C 
ATOM     23  C   UNL d   1      10.002   0.784  -3.079  0.00  0.00     0.020 C 
ATOM     24  C   UNL d   1       9.038   1.068  -4.235  0.00  0.00     0.003 C 
ATOM     25  C   UNL d   1       8.529   2.513  -4.204  0.00  0.00     0.020 C 
ATOM     26  C   UNL d   1       7.946   2.866  -2.841  0.00  0.00     0.123 C 
ENDBRANCH  20  21
ENDBRANCH  13  15
ENDBRANCH  12  13
ENDBRANCH  10  12
ENDBRANCH   5  10
BRANCH   6  27
ATOM     27  N   UNL d   1       6.515  -0.051   0.028  0.00  0.00    -0.384 N 
ATOM     28  H   UNL d   1       7.203   0.674   0.113  0.00  0.00     0.157 HD
ATOM     29  H   UNL d   1       6.954  -0.960   0.050  0.00  0.00     0.157 HD
ENDBRANCH   6  27
BRANCH   7  30
ATOM     30  C   UNL d   1       5.149  -2.373   0.005  0.00  0.00     0.174 C 
BRANCH  30  31
ATOM     31  C   UNL d   1       4.386  -3.662  -0.049  0.00  0.00    -0.040 A 
ATOM     32  C   UNL d   1       4.411  -4.534   1.047  0.00  0.00     0.009 A 
ATOM     33  C   UNL d   1       3.542  -5.619   1.084  0.00  0.00     0.001 A 
ATOM     34  C   UNL d   1       2.634  -5.821   0.044  0.00  0.00     0.000 A 
ATOM     35  C   UNL d   1       2.624  -4.971  -1.060  0.00  0.00     0.001 A 
ATOM     36  C   UNL d   1       3.536  -3.925  -1.134  0.00  0.00     0.009 A 
ENDBRANCH  30  31
ENDBRANCH   7  30
TORSDOF 8
