REMARK  9 active torsions:
REMARK  status: ('A' for Active; 'I' for Inactive)
REMARK    1  A    between atoms: O_2  and  C_3 
REMARK    2  A    between atoms: C_9  and  C_10 
REMARK    3  A    between atoms: C_10  and  C_11 
REMARK    4  A    between atoms: C_11  and  N_12 
REMARK       I    between atoms: N_12  and  C_13 
REMARK    5  A    between atoms: C_13  and  C_15 
REMARK    6  A    between atoms: C_15  and  C_16 
REMARK    7  A    between atoms: C_16  and  C_17 
REMARK    8  A    between atoms: C_20  and  C_21 
REMARK       I    between atoms: C_21  and  N_23 
REMARK    9  A    between atoms: N_23  and  C_24 
ROOT
ATOM      1  C   UNL d   1      10.346  -1.131   6.041  0.00  0.00     0.105 C 
ENDROOT
BRANCH   1   2
ATOM      2  C   UNL d   1       9.700  -2.124   5.135  0.00  0.00     0.217 C 
ATOM      3  N   UNL d   1       8.636  -1.597   4.434  0.00  0.00    -0.361 N 
ATOM      4  H   UNL d   1       8.388  -0.618   4.551  0.00  0.00     0.162 HD
ATOM      5  O   UNL d   1      10.080  -3.287   4.993  0.00  0.00    -0.274 OA
BRANCH   3   6
ATOM      6  C   UNL d   1       7.946  -2.448   3.515  0.00  0.00     0.127 C 
BRANCH   6   7
ATOM      7  C   UNL d   1       6.784  -1.768   2.808  0.00  0.00     0.056 C 
BRANCH   7   8
ATOM      8  C   UNL d   1       6.058  -2.686   1.876  0.00  0.00    -0.048 A 
ATOM      9  C   UNL d   1       4.992  -2.367   1.134  0.00  0.00    -0.003 A 
ATOM     10  C   UNL d   1       4.655  -3.596   0.396  0.00  0.00     0.039 A 
ATOM     11  C   UNL d   1       4.238  -1.170   0.961  0.00  0.00     0.050 A 
ATOM     12  C   UNL d   1       3.509  -3.548  -0.529  0.00  0.00     0.033 A 
ATOM     13  N   UNL d   1       5.447  -4.562   0.678  0.00  0.00    -0.385 N 
ATOM     14  C   UNL d   1       2.841  -2.378  -0.635  0.00  0.00     0.039 A 
ATOM     15  C   UNL d   1       3.189  -1.176   0.123  0.00  0.00     0.069 A 
ATOM     16  C   UNL d   1       6.451  -4.123   1.664  0.00  0.00     0.155 A 
ATOM     17  H   UNL d   1       5.381  -5.492   0.272  0.00  0.00     0.160 HD
BRANCH  15  18
ATOM     18  O   UNL d   1       2.530   0.004  -0.139  0.00  0.00    -0.356 OA
ATOM     19  C   UNL d   1       1.107  -0.021  -0.065  0.00  0.00     0.210 C 
ENDBRANCH  15  18
ENDBRANCH   7   8
ENDBRANCH   6   7
ENDBRANCH   3   6
ENDBRANCH   1   2
BRANCH   1  20
ATOM     20  C   UNL d   1      11.555  -1.699   6.789  0.00  0.00     0.041 C 
BRANCH  20  21
ATOM     21  C   UNL d   1      12.256  -0.688   7.705  0.00  0.00     0.135 C 
ATOM     22  N   UNL d   1      11.774  -0.767   9.099  0.00  0.00    -0.245 NA
ATOM     23  N   UNL d   1      11.792   0.564   9.733  0.00  0.00    -0.237 NA
ATOM     24  H   UNL d   1      12.348  -1.447   9.610  0.00  0.00     0.142 HD
ATOM     25  C   UNL d   1      12.236   1.613   8.797  0.00  0.00     0.226 C 
ATOM     26  H   UNL d   1      12.308   0.590  10.613  0.00  0.00     0.142 HD
ATOM     27  S   UNL d   1      11.956   1.012   7.146  0.00  0.00    -0.117 SA
BRANCH  25  28
ATOM     28  C   UNL d   1      13.745   1.887   8.924  0.00  0.00     0.251 C 
ATOM     29  O   UNL d   1      14.565   1.448   8.111  0.00  0.00    -0.270 OA
ATOM     30  N   UNL d   1      14.114   2.636  10.036  0.00  0.00    -0.325 N 
ATOM     31  H   UNL d   1      13.490   2.662  10.831  0.00  0.00     0.169 HD
BRANCH  30  32
ATOM     32  C   UNL d   1      15.476   2.939  10.230  0.00  0.00     0.034 A 
ATOM     33  C   UNL d   1      16.264   3.349   9.147  0.00  0.00     0.029 A 
ATOM     34  C   UNL d   1      17.643   3.450   9.273  0.00  0.00     0.002 A 
ATOM     35  C   UNL d   1      18.232   3.245  10.514  0.00  0.00     0.000 A 
ATOM     36  C   UNL d   1      17.436   2.961  11.627  0.00  0.00     0.002 A 
ATOM     37  C   UNL d   1      16.057   2.775  11.484  0.00  0.00     0.029 A 
ENDBRANCH  30  32
ENDBRANCH  25  28
ENDBRANCH  20  21
ENDBRANCH   1  20
TORSDOF 9
