@<TRIPOS>MOLECULE
*****
 56 57 0 0 0
SMALL
GASTEIGER

@<TRIPOS>ATOM
      1 C           0.8561    0.0630   -0.0903 C.3     1  UNL1       -0.0647
      2 C           2.3718    0.0345   -0.0695 C.3     1  UNL1       -0.0493
      3 C           2.9591   -0.7126    1.1451 C.3     1  UNL1       -0.0189
      4 C           2.4587   -2.1695    1.1612 C.3     1  UNL1       -0.0584
      5 C           4.4856   -0.7067    1.1611 C.ar    1  UNL1       -0.0443
      6 C           5.2564   -0.1770    0.1181 C.ar    1  UNL1       -0.0549
      7 C           6.6428   -0.3561    0.0887 C.ar    1  UNL1       -0.0197
      8 C           7.3089   -0.9699    1.1520 C.ar    1  UNL1        0.1212
      9 O           8.6737   -1.0137    1.0472 O.3     1  UNL1       -0.4827
     10 C           9.4310   -1.4925    2.1653 C.3     1  UNL1        0.1666
     11 C          10.9617   -1.3343    1.9109 C.2     1  UNL1        0.2667
     12 O          11.4316   -0.8111    0.9001 O.2     1  UNL1       -0.2705
     13 N          11.7951   -1.8273    2.9104 N.am    1  UNL1       -0.2323
     14 N          13.2489   -1.7509    2.7897 N.am    1  UNL1       -0.2454
     15 C          14.0526   -2.2750    3.8194 C.2     1  UNL1        0.1533
     16 S          13.3115   -2.9628    5.1724 S.2     1  UNL1       -0.0170
     17 N          15.4527   -2.1675    3.6219 N.am    1  UNL1       -0.2627
     18 C          16.4588   -2.6557    4.4910 C.2     1  UNL1        0.2496
     19 O          16.2511   -3.2380    5.5529 O.2     1  UNL1       -0.2698
     20 C          17.9104   -2.4760    4.1743 C.ar    1  UNL1        0.0378
     21 C          18.7994   -3.5091    4.5491 C.ar    1  UNL1       -0.0496
     22 C          20.1843   -3.3162    4.5243 C.ar    1  UNL1       -0.0603
     23 C          20.7004   -2.1044    4.0715 C.ar    1  UNL1       -0.0477
     24 C          19.8344   -1.0594    3.7035 C.ar    1  UNL1        0.0597
     25 C          20.4502    0.2430    3.3168 C.2     1  UNL1        0.3389
     26 O          21.6627    0.4242    3.2577 O.2     1  UNL1       -0.2450
     27 O          19.5020    1.1732    3.0508 O.3     1  UNL1       -0.4645
     28 C          20.0229    2.4528    2.6723 C.3     1  UNL1        0.0820
     29 C          18.4358   -1.2475    3.7616 C.ar    1  UNL1       -0.0356
     30 C           6.5563   -1.4634    2.2138 C.ar    1  UNL1       -0.0197
     31 C           5.1626   -1.3251    2.2223 C.ar    1  UNL1       -0.0549
     32 H           0.5078    0.6223   -0.9625 H       1  UNL1        0.0230
     33 H           0.4713    0.5401    0.8147 H       1  UNL1        0.0230
     34 H           0.4364   -0.9429   -0.1658 H       1  UNL1        0.0230
     35 H           2.7320    1.0716   -0.0743 H       1  UNL1        0.0268
     36 H           2.7198   -0.4345   -0.9993 H       1  UNL1        0.0268
     37 H           2.6104   -0.2094    2.0584 H       1  UNL1        0.0346
     38 H           2.7930   -2.7011    0.2627 H       1  UNL1        0.0236
     39 H           1.3683   -2.2288    1.2069 H       1  UNL1        0.0236
     40 H           2.8240   -2.7240    2.0309 H       1  UNL1        0.0236
     41 H           4.8030    0.3690   -0.7057 H       1  UNL1        0.0622
     42 H           7.1932   -0.0166   -0.7859 H       1  UNL1        0.0654
     43 H           9.2068   -2.5555    2.3135 H       1  UNL1        0.0795
     44 H           9.1685   -0.9246    3.0681 H       1  UNL1        0.0795
     45 H          11.4514   -2.2649    3.7657 H       1  UNL1        0.1729
     46 H          13.5769   -1.3209    1.9254 H       1  UNL1        0.1718
     47 H          15.7705   -1.7471    2.7601 H       1  UNL1        0.1569
     48 H          18.4138   -4.4647    4.9084 H       1  UNL1        0.0625
     49 H          20.8573   -4.0926    4.8884 H       1  UNL1        0.0618
     50 H          21.7822   -1.9714    4.0288 H       1  UNL1        0.0626
     51 H          19.1786    3.1216    2.4810 H       1  UNL1        0.0661
     52 H          20.6112    2.3711    1.7527 H       1  UNL1        0.0661
     53 H          20.6251    2.8826    3.4796 H       1  UNL1        0.0661
     54 H          17.7690   -0.4178    3.5569 H       1  UNL1        0.0633
     55 H           7.0131   -1.9854    3.0450 H       1  UNL1        0.0654
     56 H           4.6015   -1.7306    3.0623 H       1  UNL1        0.0622
@<TRIPOS>BOND
     1     1     2    1
     2     2     3    1
     3     3     4    1
     4     3     5    1
     5     5     6   ar
     6     6     7   ar
     7     7     8   ar
     8     8     9    1
     9     9    10    1
    10    10    11    1
    11    11    12    2
    12    11    13   am
    13    13    14    1
    14    14    15    1
    15    15    16    2
    16    15    17    1
    17    17    18   am
    18    18    19    2
    19    18    20    1
    20    20    21   ar
    21    21    22   ar
    22    22    23   ar
    23    23    24   ar
    24    24    25    1
    25    25    26    2
    26    25    27    1
    27    27    28    1
    28    24    29   ar
    29    20    29   ar
    30     8    30   ar
    31    30    31   ar
    32     5    31   ar
    33     1    32    1
    34     1    33    1
    35     1    34    1
    36     2    35    1
    37     2    36    1
    38     3    37    1
    39     4    38    1
    40     4    39    1
    41     4    40    1
    42     6    41    1
    43     7    42    1
    44    10    43    1
    45    10    44    1
    46    13    45    1
    47    14    46    1
    48    17    47    1
    49    21    48    1
    50    22    49    1
    51    23    50    1
    52    28    51    1
    53    28    52    1
    54    28    53    1
    55    29    54    1
    56    30    55    1
    57    31    56    1
