@<TRIPOS>MOLECULE
*****
 59 63 0 0 0
SMALL
GASTEIGER

@<TRIPOS>ATOM
      1 C          -2.4212    0.0100    0.0731 C.3     1  UNL1       -0.0210
      2 C          -0.9800    0.0389    0.0050 C.ar    1  UNL1        0.0596
      3 N          -0.4429    1.3008   -0.0131 N.ar    1  UNL1       -0.2290
      4 C           0.8549    1.2068   -0.0137 C.ar    1  UNL1        0.1665
      5 N           1.6187    2.3582    0.0009 N.am    1  UNL1       -0.2482
      6 C           2.9881    2.3447    0.0160 C.2     1  UNL1        0.3096
      7 O           3.6430    1.3178    0.0263 O.2     1  UNL1       -0.2521
      8 N           3.5935    3.5994    0.0358 N.am    1  UNL1       -0.2692
      9 C           5.0139    3.6912   -0.0145 C.ar    1  UNL1        0.0348
     10 C           5.7180    4.6210    0.7553 C.ar    1  UNL1       -0.0404
     11 C           7.1174    4.7038    0.6462 C.ar    1  UNL1       -0.0600
     12 C           7.8179    3.8412   -0.1991 C.ar    1  UNL1       -0.0616
     13 C           7.1219    2.9150   -0.9633 C.ar    1  UNL1       -0.0600
     14 C           5.7339    2.8480   -0.8716 C.ar    1  UNL1       -0.0404
     15 S           1.4609   -0.4040   -0.0321 S.2     1  UNL1       -0.0471
     16 C          -0.1325   -1.0607   -0.0201 C.ar    1  UNL1        0.0981
     17 C          -0.3612   -2.5377    0.0724 C.2     1  UNL1        0.2551
     18 O           0.5239   -3.3486    0.2152 O.2     1  UNL1       -0.2694
     19 N          -1.7072   -2.9728    0.1100 N.am    1  UNL1       -0.2946
     20 C          -2.2005   -3.9648    1.0784 C.3     1  UNL1        0.0278
     21 C          -3.5789   -3.4725    1.6228 C.3     1  UNL1        0.0151
     22 N          -4.6153   -3.2205    0.5709 N.3     1  UNL1       -0.2952
     23 C          -5.0669   -4.4528   -0.0729 C.3     1  UNL1        0.0243
     24 C          -5.9516   -4.2391   -1.2747 C.ar    1  UNL1       -0.0297
     25 C          -7.3227   -4.3956   -1.2887 C.ar    1  UNL1       -0.0537
     26 C          -8.0198   -3.9688   -2.4414 C.ar    1  UNL1       -0.0158
     27 C          -7.3055   -3.4596   -3.5543 C.ar    1  UNL1        0.1662
     28 C          -6.0180   -3.8585   -3.6989 C.ar    1  UNL1        0.1665
     29 C          -5.3391   -3.9618   -2.5070 C.ar    1  UNL1       -0.0117
     30 O          -5.3631   -3.2407   -4.7406 O.3     1  UNL1       -0.4526
     31 C          -5.8152   -1.9351   -4.4075 C.3     1  UNL1        0.2332
     32 O          -7.1826   -2.0359   -3.8538 O.3     1  UNL1       -0.4526
     33 C          -4.0369   -2.2957   -0.4070 C.3     1  UNL1        0.0151
     34 C          -2.6430   -2.7611   -0.9762 C.3     1  UNL1        0.0278
     35 H          -2.9542    0.9490    0.1737 H       1  UNL1        0.0293
     36 H          -2.6449   -0.5981    0.9547 H       1  UNL1        0.0293
     37 H          -2.7393   -0.3760   -0.8953 H       1  UNL1        0.0293
     38 H           1.0812    3.2117    0.0029 H       1  UNL1        0.1583
     39 H           3.0744    4.4248    0.2965 H       1  UNL1        0.1564
     40 H           5.2191    5.2387    1.4962 H       1  UNL1        0.0636
     41 H           7.6726    5.4381    1.2255 H       1  UNL1        0.0618
     42 H           8.9025    3.8829   -0.2606 H       1  UNL1        0.0618
     43 H           7.6446    2.2454   -1.6399 H       1  UNL1        0.0618
     44 H           5.2151    2.1256   -1.4973 H       1  UNL1        0.0636
     45 H          -1.4833   -4.1081    1.8897 H       1  UNL1        0.0477
     46 H          -2.3338   -4.9332    0.5782 H       1  UNL1        0.0477
     47 H          -3.3979   -2.5218    2.1510 H       1  UNL1        0.0442
     48 H          -3.9818   -4.1518    2.3788 H       1  UNL1        0.0442
     49 H          -5.5669   -5.0794    0.6688 H       1  UNL1        0.0476
     50 H          -4.2208   -5.0310   -0.4506 H       1  UNL1        0.0476
     51 H          -7.8127   -4.9155   -0.4657 H       1  UNL1        0.0622
     52 H          -8.9493   -4.5317   -2.6053 H       1  UNL1        0.0655
     53 H          -4.3476   -3.5433   -2.5496 H       1  UNL1        0.0658
     54 H          -5.7142   -1.2704   -5.2746 H       1  UNL1        0.1166
     55 H          -5.0902   -1.5416   -3.6651 H       1  UNL1        0.1166
     56 H          -4.0475   -1.3942    0.1832 H       1  UNL1        0.0442
     57 H          -4.7031   -1.9536   -1.2041 H       1  UNL1        0.0442
     58 H          -2.2219   -2.1182   -1.7557 H       1  UNL1        0.0477
     59 H          -2.7342   -3.7367   -1.4750 H       1  UNL1        0.0477
@<TRIPOS>BOND
     1     1     2    1
     2     2     3   ar
     3     3     4   ar
     4     4     5    1
     5     5     6   am
     6     6     7    2
     7     6     8   am
     8     8     9    1
     9     9    10   ar
    10    10    11   ar
    11    11    12   ar
    12    12    13   ar
    13    13    14   ar
    14     9    14   ar
    15     4    15   ar
    16    15    16   ar
    17     2    16   ar
    18    16    17    1
    19    17    18    2
    20    17    19   am
    21    19    20    1
    22    20    21    1
    23    21    22    1
    24    22    23    1
    25    23    24    1
    26    24    25   ar
    27    25    26   ar
    28    26    27   ar
    29    27    28   ar
    30    28    29   ar
    31    24    29   ar
    32    28    30    1
    33    30    31    1
    34    31    32    1
    35    27    32    1
    36    22    33    1
    37    33    34    1
    38    19    34    1
    39     1    35    1
    40     1    36    1
    41     1    37    1
    42     5    38    1
    43     8    39    1
    44    10    40    1
    45    11    41    1
    46    12    42    1
    47    13    43    1
    48    14    44    1
    49    20    45    1
    50    20    46    1
    51    21    47    1
    52    21    48    1
    53    23    49    1
    54    23    50    1
    55    25    51    1
    56    26    52    1
    57    29    53    1
    58    31    54    1
    59    31    55    1
    60    33    56    1
    61    33    57    1
    62    34    58    1
    63    34    59    1
