REMARK  8 active torsions:
REMARK  status: ('A' for Active; 'I' for Inactive)
REMARK    1  A    between atoms: C_2  and  C_3 
REMARK    2  A    between atoms: C_6  and  C_3 
REMARK    3  A    between atoms: N_4  and  O_5 
REMARK    4  A    between atoms: C_6  and  C_8 
REMARK    5  A    between atoms: C_8  and  C_10 
REMARK    6  A    between atoms: C_10  and  C_11 
REMARK    7  A    between atoms: C_11  and  C_12 
REMARK       I    between atoms: C_12  and  N_14 
REMARK    8  A    between atoms: N_14  and  C_15 
ROOT
ATOM      1  C   UNL d   1       6.266   2.414  -4.707  0.00  0.00     0.110 C 
ENDROOT
BRANCH   1   2
ATOM      2  C   UNL d   1       6.216   1.723  -3.333  0.00  0.00     0.088 C 
BRANCH   2   3
ATOM      3  C   UNL d   1       4.794   1.476  -2.872  0.00  0.00     0.136 C 
ATOM      4  O   UNL d   1       3.841   1.908  -3.526  0.00  0.00    -0.297 OA
BRANCH   3   5
ATOM      5  C   UNL d   1       4.600   0.752  -1.538  0.00  0.00     0.101 C 
ATOM      6  C   UNL d   1       3.107   0.664  -1.203  0.00  0.00     0.024 C 
BRANCH   5   7
ATOM      7  C   UNL d   1       5.205  -0.657  -1.556  0.00  0.00     0.050 C 
ATOM      8  N   UNL d   1       4.644  -1.505  -2.372  0.00  0.00    -0.145 NA
BRANCH   7   9
ATOM      9  C   UNL d   1       6.410  -0.889  -0.631  0.00  0.00     0.053 C 
ATOM     10  C   UNL d   1       7.049  -2.263  -0.665  0.00  0.00     0.011 C 
ENDBRANCH   7   9
BRANCH   8  11
ATOM     11  O   UNL d   1       5.211  -2.772  -2.366  0.00  0.00    -0.266 OA
ATOM     12  H   UNL d   1       4.681  -3.269  -3.014  0.00  0.00     0.247 HD
ENDBRANCH   8  11
ENDBRANCH   5   7
ENDBRANCH   3   5
ENDBRANCH   2   3
ENDBRANCH   1   2
BRANCH   1  13
ATOM     13  C   UNL d   1       7.705   2.608  -5.143  0.00  0.00     0.222 C 
ATOM     14  O   UNL d   1       8.632   2.252  -4.406  0.00  0.00    -0.273 OA
ATOM     15  N   UNL d   1       7.887   3.239  -6.368  0.00  0.00    -0.327 N 
ATOM     16  H   UNL d   1       7.107   3.744  -6.775  0.00  0.00     0.169 HD
BRANCH  15  17
ATOM     17  C   UNL d   1       9.184   3.489  -6.883  0.00  0.00     0.034 A 
ATOM     18  C   UNL d   1      10.183   2.514  -6.780  0.00  0.00     0.031 A 
ATOM     19  C   UNL d   1      11.479   2.759  -7.235  0.00  0.00     0.026 A 
ATOM     20  C   UNL d   1      11.791   3.995  -7.787  0.00  0.00     0.034 A 
ATOM     21 CL   UNL d   1      13.402   4.313  -8.301  0.00  0.00    -0.084 Cl
ATOM     22  C   UNL d   1      10.803   4.972  -7.920  0.00  0.00     0.026 A 
ATOM     23  C   UNL d   1       9.490   4.712  -7.491  0.00  0.00     0.031 A 
ENDBRANCH  15  17
ENDBRANCH   1  13
TORSDOF 8
