REMARK  6 active torsions:
REMARK  status: ('A' for Active; 'I' for Inactive)
REMARK    1  A    between atoms: C_7  and  N_8 
REMARK       I    between atoms: N_8  and  C_9 
REMARK    2  A    between atoms: C_9  and  C_11 
REMARK       I    between atoms: C_11  and  N_13 
REMARK    3  A    between atoms: N_13  and  C_14 
REMARK    4  A    between atoms: C_14  and  C_15 
REMARK    5  A    between atoms: C_19  and  N_20 
REMARK       I    between atoms: N_20  and  C_21 
REMARK    6  A    between atoms: C_21  and  C_23 
ROOT
ATOM      1  C   UNL d   1       5.408   5.132  -0.002  0.00  0.00     0.161 C 
ENDROOT
BRANCH   1   2
ATOM      2  N   UNL d   1       4.499   4.014   0.016  0.00  0.00    -0.349 N 
ATOM      3  C   UNL d   1       3.117   4.078   0.001  0.00  0.00     0.309 C 
ATOM      4  O   UNL d   1       2.414   5.077  -0.006  0.00  0.00    -0.262 OA
ATOM      5  H   UNL d   1       4.838   3.049  -0.009  0.00  0.00     0.163 HD
BRANCH   3   6
ATOM      6  C   UNL d   1       2.538   2.660  -0.011  0.00  0.00     0.314 C 
ATOM      7  N   UNL d   1       1.157   2.461  -0.001  0.00  0.00    -0.319 N 
ATOM      8  H   UNL d   1       0.605   3.314   0.002  0.00  0.00     0.169 HD
ATOM      9  O   UNL d   1       3.454   1.845  -0.029  0.00  0.00    -0.262 OA
BRANCH   7  10
ATOM     10  C   UNL d   1       0.428   1.210   0.001  0.00  0.00     0.041 A 
ATOM     11  C   UNL d   1      -0.985   1.257  -0.001  0.00  0.00     0.030 A 
ATOM     12  C   UNL d   1      -1.769   0.079  -0.006  0.00  0.00     0.002 A 
ATOM     13  C   UNL d   1      -1.169  -1.172  -0.000  0.00  0.00     0.001 A 
ATOM     14  C   UNL d   1       0.209  -1.244   0.005  0.00  0.00     0.009 A 
ATOM     15  C   UNL d   1       1.005  -0.081   0.002  0.00  0.00    -0.035 A 
ATOM     16  C   UNL d   1       2.469  -0.356  -0.005  0.00  0.00     0.050 C 
ENDBRANCH   7  10
ENDBRANCH   3   6
ENDBRANCH   1   2
BRANCH   1  17
ATOM     17  C   UNL d   1       6.891   4.801   0.031  0.00  0.00    -0.038 A 
ATOM     18  C   UNL d   1       7.849   5.818   0.044  0.00  0.00     0.009 A 
ATOM     19  C   UNL d   1       9.217   5.506   0.057  0.00  0.00     0.003 A 
ATOM     20  C   UNL d   1       9.654   4.167   0.059  0.00  0.00     0.029 A 
ATOM     21  C   UNL d   1       8.717   3.130   0.055  0.00  0.00     0.035 A 
ATOM     22  C   UNL d   1       7.365   3.485   0.040  0.00  0.00     0.038 A 
BRANCH  21  23
ATOM     23  N   UNL d   1       9.116   1.760   0.074  0.00  0.00    -0.321 N 
ATOM     24  C   UNL d   1       8.243   0.658   0.026  0.00  0.00     0.279 C 
ATOM     25  O   UNL d   1       7.022   0.727  -0.067  0.00  0.00    -0.265 OA
ATOM     26  H   UNL d   1      10.109   1.568   0.075  0.00  0.00     0.169 HD
BRANCH  24  27
ATOM     27  C   UNL d   1       8.864  -0.646   0.101  0.00  0.00     0.142 A 
ATOM     28  C   UNL d   1       9.855  -1.164   0.908  0.00  0.00     0.045 A 
ATOM     29  C   UNL d   1       9.945  -2.546   0.605  0.00  0.00     0.027 A 
ATOM     30  C   UNL d   1       9.003  -2.792  -0.366  0.00  0.00     0.143 A 
ATOM     31  O   UNL d   1       8.335  -1.652  -0.668  0.00  0.00    -0.317 OA
ENDBRANCH  24  27
ENDBRANCH  21  23
ENDBRANCH   1  17
TORSDOF 6
