@<TRIPOS>MOLECULE
*****
 34 35 0 0 0
SMALL
GASTEIGER

@<TRIPOS>ATOM
      1 N           1.0363    0.0980   -0.0424 N.am    1  UNL1       -0.3253
      2 C           2.3995    0.0494   -0.0962 C.2     1  UNL1        0.2415
      3 O           3.0237   -0.9517    0.2504 O.2     1  UNL1       -0.2704
      4 C           3.0966    1.2719   -0.5619 C.ar    1  UNL1        0.0365
      5 C           4.2381    1.1837   -1.3612 C.ar    1  UNL1       -0.0489
      6 C           4.9459    2.3506   -1.6879 C.ar    1  UNL1       -0.0489
      7 C           4.4908    3.6211   -1.2755 C.ar    1  UNL1        0.0371
      8 C           5.2188    4.8304   -1.7804 C.2     1  UNL1        0.2483
      9 O           6.1858    4.6442   -2.5180 O.2     1  UNL1       -0.2699
     10 N           4.7830    6.1001   -1.3919 N.am    1  UNL1       -0.2814
     11 C           5.3241    7.2831   -1.9503 C.ar    1  UNL1        0.0366
     12 C           5.5096    8.4373   -1.1818 C.ar    1  UNL1       -0.0368
     13 C           6.0316    9.6043   -1.7772 C.ar    1  UNL1       -0.0151
     14 C           6.3937    9.6177   -3.1320 C.ar    1  UNL1        0.1620
     15 O           6.9624   10.7750   -3.5960 O.3     1  UNL1       -0.4313
     16 C           7.4510   10.7361   -4.9356 C.3     1  UNL1        0.3893
     17 F           6.3971   10.7163   -5.7883 F       1  UNL1       -0.1663
     18 F           8.0980   11.9083   -5.1678 F       1  UNL1       -0.1663
     19 C           6.1613    8.4667   -3.8826 C.ar    1  UNL1        0.1668
     20 F           6.4317    8.4116   -5.1926 F       1  UNL1       -0.2016
     21 C           5.6354    7.3213   -3.3057 C.ar    1  UNL1       -0.0016
     22 C           3.3534    3.6910   -0.4668 C.ar    1  UNL1       -0.0489
     23 C           2.6650    2.5239   -0.1104 C.ar    1  UNL1       -0.0489
     24 H           0.5471   -0.7279    0.2800 H       1  UNL1        0.1453
     25 H           0.4890    0.8594   -0.4197 H       1  UNL1        0.1453
     26 H           4.5808    0.2193   -1.7345 H       1  UNL1        0.0625
     27 H           5.8658    2.2616   -2.2681 H       1  UNL1        0.0625
     28 H           4.1053    6.2167   -0.6536 H       1  UNL1        0.1551
     29 H           5.3307    8.4321   -0.1085 H       1  UNL1        0.0637
     30 H           6.1694   10.5012   -1.1738 H       1  UNL1        0.0656
     31 H           8.1525    9.9144   -5.1281 H       1  UNL1        0.1520
     32 H           5.4548    6.4675   -3.9498 H       1  UNL1        0.0666
     33 H           2.9782    4.6308   -0.0823 H       1  UNL1        0.0625
     34 H           1.8056    2.5963    0.5500 H       1  UNL1        0.0625
@<TRIPOS>BOND
     1     1     2   am
     2     2     3    2
     3     2     4    1
     4     4     5   ar
     5     5     6   ar
     6     6     7   ar
     7     7     8    1
     8     8     9    2
     9     8    10   am
    10    10    11    1
    11    11    12   ar
    12    12    13   ar
    13    13    14   ar
    14    14    15    1
    15    15    16    1
    16    16    17    1
    17    16    18    1
    18    14    19   ar
    19    19    20    1
    20    19    21   ar
    21    11    21   ar
    22     7    22   ar
    23    22    23   ar
    24     4    23   ar
    25     1    24    1
    26     1    25    1
    27     5    26    1
    28     6    27    1
    29    10    28    1
    30    12    29    1
    31    13    30    1
    32    16    31    1
    33    21    32    1
    34    22    33    1
    35    23    34    1
