@<TRIPOS>MOLECULE
*****
 38 40 0 0 0
SMALL
GASTEIGER

@<TRIPOS>ATOM
      1 C           0.9069   -0.0556   -0.0136 C.3     1  UNL1       -0.0296
      2 C           2.4292   -0.0473   -0.0208 C.3     1  UNL1        0.1743
      3 N           2.8487    1.2369    0.5530 N.2     1  UNL1       -0.1362
      4 N           3.5898    1.2377    1.6288 N.2     1  UNL1       -0.1603
      5 C           4.0578   -0.0689    2.2911 C.2     1  UNL1        0.4137
      6 N           4.8338    0.0614    3.4059 N.pl3   1  UNL1       -0.1448
      7 N           5.2645    1.2721    3.9932 N.am    1  UNL1       -0.1834
      8 C           6.0760    1.1015    5.1071 C.2     1  UNL1        0.2614
      9 O           6.3443   -0.0541    5.4313 O.2     1  UNL1       -0.2712
     10 C           6.5348    2.4208    5.7749 C.3     1  UNL1        0.1238
     11 N           7.3440    2.2631    6.9706 N.ar    1  UNL1       -0.2200
     12 N           7.4926    0.9918    7.4423 N.ar    1  UNL1       -0.1756
     13 C           8.2226    0.7685    8.4793 C.ar    1  UNL1        0.0559
     14 C           8.8976    1.8190    9.2070 C.ar    1  UNL1        0.0071
     15 C           9.7620    1.4960   10.2441 C.ar    1  UNL1       -0.0524
     16 C          10.5659    2.5048   10.7583 C.ar    1  UNL1       -0.0611
     17 C          10.3211    3.8387   10.4158 C.ar    1  UNL1       -0.0610
     18 C           9.3617    4.1595    9.4541 C.ar    1  UNL1       -0.0487
     19 C           8.7142    3.1283    8.7820 C.ar    1  UNL1        0.0495
     20 C           7.8885    3.3868    7.5868 C.ar    1  UNL1        0.2754
     21 O           7.7344    4.5315    7.1659 O.2     1  UNL1       -0.2655
     22 N           3.7268   -1.2176    1.8070 N.am    1  UNL1       -0.0009
     23 C           2.9460   -1.2968    0.6830 C.2     1  UNL1        0.3364
     24 O           2.6312   -2.3973    0.2209 O.2     1  UNL1       -0.2516
     25 H           0.5054    0.8644   -0.4513 H       1  UNL1        0.0256
     26 H           0.5269   -0.1299    1.0122 H       1  UNL1        0.0256
     27 H           0.5156   -0.9075   -0.5773 H       1  UNL1        0.0256
     28 H           2.8063   -0.0743   -1.0495 H       1  UNL1        0.0686
     29 H           3.8922    2.0973    2.0712 H       1  UNL1        0.2915
     30 H           5.1837   -0.7908    3.8772 H       1  UNL1        0.2734
     31 H           5.0352    2.2007    3.6740 H       1  UNL1        0.1891
     32 H           5.6546    3.0159    6.0521 H       1  UNL1        0.0607
     33 H           7.1040    3.0138    5.0456 H       1  UNL1        0.0607
     34 H           8.3507   -0.2762    8.8058 H       1  UNL1        0.0853
     35 H           9.8444    0.4787   10.6167 H       1  UNL1        0.0624
     36 H          11.3909    2.2517   11.4194 H       1  UNL1        0.0618
     37 H          10.8904    4.6314   10.8940 H       1  UNL1        0.0618
     38 H           9.1611    5.1970    9.1995 H       1  UNL1        0.0625
@<TRIPOS>UNITY_ATOM_ATTR
4 1
charge 1
@<TRIPOS>BOND
     1     1     2    1
     2     2     3    1
     3     3     4    2
     4     4     5    1
     5     5     6    1
     6     6     7    1
     7     7     8   am
     8     8     9    2
     9     8    10    1
    10    10    11    1
    11    11    12   ar
    12    12    13   ar
    13    13    14   ar
    14    14    15   ar
    15    15    16   ar
    16    16    17   ar
    17    17    18   ar
    18    18    19   ar
    19    14    19   ar
    20    19    20   ar
    21    11    20   ar
    22    20    21    2
    23     5    22    2
    24    22    23    1
    25     2    23    1
    26    23    24    2
    27     1    25    1
    28     1    26    1
    29     1    27    1
    30     2    28    1
    31     4    29    1
    32     6    30    1
    33     7    31    1
    34    10    32    1
    35    10    33    1
    36    13    34    1
    37    15    35    1
    38    16    36    1
    39    17    37    1
    40    18    38    1
