REMARK  9 active torsions:
REMARK  status: ('A' for Active; 'I' for Inactive)
REMARK    1  A    between atoms: C_2  and  O_3 
REMARK    2  A    between atoms: C_2  and  C_11 
REMARK    3  A    between atoms: O_3  and  C_4 
REMARK       I    between atoms: C_11  and  N_13 
REMARK    4  A    between atoms: N_13  and  C_14 
REMARK    5  A    between atoms: C_17  and  N_18 
REMARK    6  A    between atoms: N_18  and  C_19 
REMARK    7  A    between atoms: C_19  and  N_21 
REMARK       I    between atoms: N_21  and  C_22 
REMARK    8  A    between atoms: C_22  and  C_24 
REMARK    9  A    between atoms: C_29  and  N_30 
ROOT
ATOM      1  C   UNL d   1       5.018  -0.031   3.047  0.00  0.00     0.034 A 
ATOM      2  C   UNL d   1       6.137   0.676   3.500  0.00  0.00     0.032 A 
ATOM      3  C   UNL d   1       6.639   0.494   4.835  0.00  0.00     0.032 A 
ATOM      4  C   UNL d   1       6.016  -0.402   5.722  0.00  0.00     0.034 A 
ATOM      5  C   UNL d   1       4.976  -1.125   5.163  0.00  0.00     0.032 A 
ATOM      6  C   UNL d   1       4.446  -0.931   3.907  0.00  0.00     0.032 A 
ENDROOT
BRANCH   4   7
ATOM      7  N   UNL d   1       6.400  -0.595   7.114  0.00  0.00    -0.333 N 
ATOM      8  H   UNL d   1       7.152   0.013   7.428  0.00  0.00     0.168 HD
BRANCH   7   9
ATOM      9  C   UNL d   1       5.707  -1.396   8.087  0.00  0.00     0.179 C 
ATOM     10  S   UNL d   1       4.237  -2.209   7.882  0.00  0.00    -0.040 SA
BRANCH   9  11
ATOM     11  N   UNL d   1       6.364  -1.508   9.329  0.00  0.00    -0.299 N 
ATOM     12  C   UNL d   1       5.801  -2.171  10.440  0.00  0.00     0.260 C 
ATOM     13  O   UNL d   1       4.872  -2.985  10.424  0.00  0.00    -0.267 OA
ATOM     14  H   UNL d   1       7.023  -0.770   9.539  0.00  0.00     0.171 HD
BRANCH  12  15
ATOM     15  C   UNL d   1       6.318  -2.016  11.803  0.00  0.00     0.065 A 
ATOM     16  C   UNL d   1       6.346  -3.234  12.542  0.00  0.00     0.020 A 
ATOM     17  C   UNL d   1       6.568  -3.252  13.915  0.00  0.00     0.001 A 
ATOM     18  C   UNL d   1       6.835  -2.059  14.568  0.00  0.00     0.002 A 
ATOM     19  C   UNL d   1       6.799  -0.852  13.864  0.00  0.00     0.037 A 
ATOM     20  C   UNL d   1       6.518  -0.816  12.485  0.00  0.00     0.118 A 
BRANCH  20  21
ATOM     21  N   UNL d   1       6.426   0.501  11.845  0.00  0.00    -0.115 N 
ATOM     22  O   UNL d   1       6.733   1.490  12.538  0.00  0.00    -0.532 OA
ATOM     23  O   UNL d   1       6.127   0.584  10.660  0.00  0.00    -0.532 OA
ENDBRANCH  20  21
ENDBRANCH  12  15
ENDBRANCH   9  11
ENDBRANCH   7   9
ENDBRANCH   4   7
BRANCH   1  24
ATOM     24  N   UNL d   1       4.480   0.067   1.745  0.00  0.00    -0.325 N 
ATOM     25  C   UNL d   1       3.106  -0.003   1.538  0.00  0.00     0.251 C 
ATOM     26  O   UNL d   1       2.294  -0.044   2.468  0.00  0.00    -0.270 OA
ATOM     27  H   UNL d   1       5.098   0.264   0.973  0.00  0.00     0.169 HD
BRANCH  25  28
ATOM     28  C   UNL d   1       2.618  -0.038   0.071  0.00  0.00     0.217 C 
ATOM     29  C   UNL d   1       1.123  -0.304   0.185  0.00  0.00     0.050 C 
BRANCH  28  30
ATOM     30  O   UNL d   1       2.914   1.213  -0.593  0.00  0.00    -0.335 OA
BRANCH  30  31
ATOM     31  C   UNL d   1       2.566   1.333  -1.922  0.00  0.00     0.091 C 
ATOM     32  C   UNL d   1       3.614   1.651  -2.804  0.00  0.00     0.038 C 
ATOM     33  C   UNL d   1       3.375   1.830  -4.177  0.00  0.00     0.003 C 
ATOM     34  C   UNL d   1       2.105   1.622  -4.702  0.00  0.00     0.002 C 
ATOM     35  C   UNL d   1       1.057   1.343  -3.843  0.00  0.00     0.026 C 
ATOM     36  C   UNL d   1       1.263   1.329  -2.461  0.00  0.00     0.067 C 
ATOM     37 CL   UNL d   1      -0.214   1.618  -1.594  0.00  0.00    -0.081 Cl
ENDBRANCH  30  31
ENDBRANCH  28  30
ENDBRANCH  25  28
ENDBRANCH   1  24
TORSDOF 9
