REMARK  6 active torsions:
REMARK  status: ('A' for Active; 'I' for Inactive)
REMARK    1  A    between atoms: C_2  and  O_3 
REMARK    2  A    between atoms: C_2  and  C_16 
REMARK    3  A    between atoms: O_3  and  C_4 
REMARK    4  A    between atoms: C_4  and  C_6 
REMARK    5  A    between atoms: C_9  and  N_10 
REMARK       I    between atoms: N_10  and  C_11 
REMARK       I    between atoms: C_11  and  N_12 
REMARK       I    between atoms: C_16  and  N_18 
REMARK    6  A    between atoms: N_18  and  C_19 
ROOT
ATOM      1  C   UNL d   1       2.628  -0.574   2.432  0.00  0.00     0.294 C 
ATOM      2  O   UNL d   1       1.988   0.412   2.739  0.00  0.00    -0.259 OA
ENDROOT
BRANCH   1   3
ATOM      3  O   UNL d   1       3.055  -0.922   1.182  0.00  0.00    -0.303 OA
BRANCH   3   4
ATOM      4  C   UNL d   1       2.606  -0.066   0.109  0.00  0.00     0.220 C 
ATOM      5  C   UNL d   1       1.070  -0.012   0.057  0.00  0.00     0.050 C 
BRANCH   4   6
ATOM      6  C   UNL d   1       3.070  -0.625  -1.263  0.00  0.00     0.251 C 
ATOM      7  O   UNL d   1       2.254  -1.091  -2.061  0.00  0.00    -0.270 OA
ATOM      8  N   UNL d   1       4.437  -0.604  -1.526  0.00  0.00    -0.323 N 
ATOM      9  H   UNL d   1       5.071  -0.590  -0.738  0.00  0.00     0.169 HD
BRANCH   8  10
ATOM     10  C   UNL d   1       4.943  -1.043  -2.789  0.00  0.00     0.056 A 
ATOM     11  C   UNL d   1       6.011  -1.956  -2.810  0.00  0.00     0.031 A 
ATOM     12  C   UNL d   1       6.550  -2.400  -4.029  0.00  0.00     0.002 A 
ATOM     13  C   UNL d   1       6.006  -1.970  -5.237  0.00  0.00     0.002 A 
ATOM     14  C   UNL d   1       4.959  -1.054  -5.232  0.00  0.00     0.026 A 
ATOM     15  C   UNL d   1       4.439  -0.577  -4.022  0.00  0.00     0.060 A 
ATOM     16 CL   UNL d   1       3.293   0.719  -4.152  0.00  0.00    -0.082 Cl
ENDBRANCH   8  10
ENDBRANCH   4   6
ENDBRANCH   3   4
ENDBRANCH   1   3
BRANCH   1  17
ATOM     17  C   UNL d   1       3.126  -1.497   3.470  0.00  0.00     0.039 C 
ATOM     18  C   UNL d   1       2.392  -1.742   4.642  0.00  0.00     0.020 C 
ATOM     19  C   UNL d   1       3.017  -2.326   5.766  0.00  0.00     0.030 C 
ATOM     20  C   UNL d   1       4.372  -2.687   5.711  0.00  0.00     0.036 C 
ATOM     21  C   UNL d   1       5.069  -2.362   4.550  0.00  0.00     0.030 C 
ATOM     22  C   UNL d   1       4.458  -1.851   3.415  0.00  0.00     0.020 C 
BRANCH  20  23
ATOM     23  N   UNL d   1       4.978  -3.360   6.797  0.00  0.00    -0.309 N 
ATOM     24  C   UNL d   1       6.215  -3.913   6.965  0.00  0.00     0.318 C 
ATOM     25  N   UNL d   1       7.165  -3.776   6.015  0.00  0.00    -0.352 N 
ATOM     26  O   UNL d   1       6.494  -4.521   7.997  0.00  0.00    -0.247 OA
ATOM     27  H   UNL d   1       6.919  -3.825   5.044  0.00  0.00     0.160 HD
ATOM     28  H   UNL d   1       8.029  -4.267   6.204  0.00  0.00     0.160 HD
ATOM     29  H   UNL d   1       4.393  -3.546   7.606  0.00  0.00     0.170 HD
ENDBRANCH  20  23
ENDBRANCH   1  17
TORSDOF 6
