@<TRIPOS>MOLECULE
*****
 37 37 0 0 0
SMALL
GASTEIGER

@<TRIPOS>ATOM
      1 C           0.9428   -0.0545    0.0549 C.3     1  UNL1       -0.0627
      2 C           2.4762   -0.0610    0.0294 C.3     1  UNL1       -0.0463
      3 C           2.9528   -0.9985   -1.0797 C.3     1  UNL1       -0.0627
      4 C           3.0181    1.3702   -0.1659 C.3     1  UNL1       -0.0424
      5 C           4.5568    1.4676   -0.1677 C.3     1  UNL1        0.0256
      6 C           5.0465    2.8977   -0.3842 C.2     1  UNL1        0.2291
      7 O           4.2828    3.8523   -0.5326 O.2     1  UNL1       -0.2743
      8 N           6.4259    3.0531   -0.4268 N.am    1  UNL1       -0.2342
      9 N           6.9430    4.3520   -0.6660 N.am    1  UNL1       -0.2303
     10 C           8.3095    4.5897   -0.6803 C.2     1  UNL1        0.2616
     11 O           9.1499    3.6936   -0.5938 O.2     1  UNL1       -0.2686
     12 C           8.7554    6.0154   -0.8553 C.ar    1  UNL1        0.0568
     13 C           9.8208    6.2944   -1.7401 C.ar    1  UNL1       -0.0418
     14 C          10.2642    7.6151   -1.9552 C.ar    1  UNL1        0.0164
     15 C           9.6516    8.6703   -1.2696 C.ar    1  UNL1        0.2746
     16 N          10.0825   10.0613   -1.4979 N.pl3   1  UNL1        0.0796
     17 O          10.9914   10.2574   -2.3158 O.2     1  UNL1        0.0414
     18 O           9.5027   10.9532   -0.8624 O.co2   1  UNL1       -0.5760
     19 C           8.6221    8.4057   -0.3594 C.ar    1  UNL1        0.0346
     20 C           8.1855    7.0858   -0.1483 C.ar    1  UNL1        0.0595
     21 CL          6.9701    6.8630    1.0587 Cl      1  UNL1       -0.0825
     22 H           0.5510   -1.0659    0.2136 H       1  UNL1        0.0232
     23 H           0.5332    0.3167   -0.8913 H       1  UNL1        0.0232
     24 H           0.5620    0.5806    0.8612 H       1  UNL1        0.0232
     25 H           2.8295   -0.4469    0.9942 H       1  UNL1        0.0296
     26 H           2.6213   -0.6387   -2.0599 H       1  UNL1        0.0232
     27 H           2.5594   -2.0096   -0.9353 H       1  UNL1        0.0232
     28 H           4.0426   -1.0788   -1.0965 H       1  UNL1        0.0232
     29 H           2.6184    2.0118    0.6310 H       1  UNL1        0.0272
     30 H           2.6264    1.7756   -1.1082 H       1  UNL1        0.0272
     31 H           4.9704    0.8576   -0.9768 H       1  UNL1        0.0359
     32 H           4.9457    1.0878    0.7839 H       1  UNL1        0.0359
     33 H           7.0966    2.2963   -0.3075 H       1  UNL1        0.1728
     34 H           6.2436    5.0947   -0.7032 H       1  UNL1        0.1731
     35 H          10.3140    5.4840   -2.2783 H       1  UNL1        0.0628
     36 H          11.0791    7.8034   -2.6555 H       1  UNL1        0.0685
     37 H           8.1562    9.2182    0.1969 H       1  UNL1        0.0700
@<TRIPOS>UNITY_ATOM_ATTR
16 1
charge 1
18 1
charge -1
@<TRIPOS>BOND
     1     1     2    1
     2     2     3    1
     3     2     4    1
     4     4     5    1
     5     5     6    1
     6     6     7    2
     7     6     8   am
     8     8     9    1
     9     9    10   am
    10    10    11    2
    11    10    12    1
    12    12    13   ar
    13    13    14   ar
    14    14    15   ar
    15    15    16    1
    16    16    17    2
    17    16    18    1
    18    15    19   ar
    19    19    20   ar
    20    12    20   ar
    21    20    21    1
    22     1    22    1
    23     1    23    1
    24     1    24    1
    25     2    25    1
    26     3    26    1
    27     3    27    1
    28     3    28    1
    29     4    29    1
    30     4    30    1
    31     5    31    1
    32     5    32    1
    33     8    33    1
    34     9    34    1
    35    13    35    1
    36    14    36    1
    37    19    37    1
