REMARK  8 active torsions:
REMARK  status: ('A' for Active; 'I' for Inactive)
REMARK    1  A    between atoms: N_1  and  N_2 
REMARK       I    between atoms: N_2  and  C_3 
REMARK    2  A    between atoms: C_3  and  C_5 
REMARK    3  A    between atoms: C_5  and  N_6 
REMARK    4  A    between atoms: N_6  and  C_7 
REMARK    5  A    between atoms: C_7  and  C_8 
REMARK    6  A    between atoms: C_7  and  C_14 
REMARK    7  A    between atoms: C_20  and  N_21 
REMARK       I    between atoms: N_21  and  C_22 
REMARK    8  A    between atoms: C_22  and  C_24 
ROOT
ATOM      1  C   UNL d   1       6.964   3.348   2.195  0.00  0.00    -0.003 C 
ATOM      2  C   UNL d   1       7.536   3.261   3.497  0.00  0.00     0.031 C 
ATOM      3  C   UNL d   1       7.688   4.399   4.269  0.00  0.00     0.011 C 
ATOM      4 BR   UNL d   1       8.025   4.241   6.124  0.00  0.00    -0.051 Br
ATOM      5  C   UNL d   1       7.472   5.644   3.696  0.00  0.00     0.021 C 
ATOM      6  C   UNL d   1       6.961   5.748   2.386  0.00  0.00     0.031 C 
ATOM      7  C   UNL d   1       6.598   4.619   1.631  0.00  0.00     0.043 C 
ENDROOT
BRANCH   1   8
ATOM      8  C   UNL d   1       6.799   2.005   1.481  0.00  0.00     0.146 C 
BRANCH   8   9
ATOM      9  N   UNL d   1       5.371   1.670   1.634  0.00  0.00    -0.401 N 
ATOM     10  H   UNL d   1       4.881   2.013   2.456  0.00  0.00     0.154 HD
BRANCH   9  11
ATOM     11  C   UNL d   1       4.661   0.704   0.818  0.00  0.00     0.219 C 
BRANCH  11  12
ATOM     12  C   UNL d   1       3.115   0.950   0.762  0.00  0.00     0.248 C 
ATOM     13  N   UNL d   1       2.457  -0.035  -0.003  0.00  0.00    -0.293 N 
ATOM     14  H   UNL d   1       3.000  -0.774  -0.441  0.00  0.00     0.183 HD
ATOM     15  O   UNL d   1       2.514   1.872   1.312  0.00  0.00    -0.270 OA
BRANCH  13  16
ATOM     16  N   UNL d   1       1.043  -0.101  -0.015  0.00  0.00    -0.247 NA
ATOM     17  H   UNL d   1       0.715  -0.857  -0.615  0.00  0.00     0.143 HD
ATOM     18  H   UNL d   1       0.688   0.776  -0.410  0.00  0.00     0.143 HD
ENDBRANCH  13  16
ENDBRANCH  11  12
ENDBRANCH   9  11
ENDBRANCH   8   9
BRANCH   8  19
ATOM     19  C   UNL d   1       7.603   2.012   0.121  0.00  0.00    -0.031 C 
ATOM     20  C   UNL d   1       7.701   0.878  -0.679  0.00  0.00     0.009 C 
ATOM     21  C   UNL d   1       8.237   0.953  -1.982  0.00  0.00     0.001 C 
ATOM     22  C   UNL d   1       8.575   2.173  -2.563  0.00  0.00     0.000 C 
ATOM     23  C   UNL d   1       8.625   3.285  -1.760  0.00  0.00     0.001 C 
ATOM     24  C   UNL d   1       8.236   3.172  -0.423  0.00  0.00     0.009 C 
ENDBRANCH   8  19
ENDBRANCH   1   8
BRANCH   7  25
ATOM     25  N   UNL d   1       6.071   4.885   0.275  0.00  0.00    -0.322 N 
ATOM     26  C   UNL d   1       5.517   3.974  -0.616  0.00  0.00     0.256 C 
ATOM     27  O   UNL d   1       4.986   2.916  -0.275  0.00  0.00    -0.267 OA
ATOM     28  H   UNL d   1       6.225   5.820  -0.072  0.00  0.00     0.169 HD
BRANCH  26  29
ATOM     29  C   UNL d   1       5.480   4.019  -2.090  0.00  0.00     0.032 C 
ATOM     30  C   UNL d   1       4.808   2.926  -2.727  0.00  0.00     0.017 C 
ATOM     31  C   UNL d   1       4.793   2.752  -4.097  0.00  0.00     0.001 C 
ATOM     32  C   UNL d   1       5.460   3.684  -4.868  0.00  0.00     0.000 C 
ATOM     33  C   UNL d   1       6.234   4.686  -4.261  0.00  0.00     0.001 C 
ATOM     34  C   UNL d   1       6.233   4.874  -2.873  0.00  0.00     0.017 C 
ENDBRANCH  26  29
ENDBRANCH   7  25
TORSDOF 8
