@<TRIPOS>MOLECULE
*****
 61 65 0 0 0
SMALL
GASTEIGER

@<TRIPOS>ATOM
      1 C           0.9939    0.0181    0.5937 C.3     1  UNL1        0.0789
      2 O           2.3855    0.0327    0.3192 O.3     1  UNL1       -0.4933
      3 C           2.9905   -1.1344   -0.0654 C.ar    1  UNL1        0.1412
      4 C           4.1956   -1.3593    0.6336 C.ar    1  UNL1       -0.0181
      5 C           4.9890   -2.4720    0.3702 C.ar    1  UNL1       -0.0582
      6 C           4.5586   -3.3986   -0.5700 C.ar    1  UNL1       -0.0598
      7 C           3.3710   -3.1791   -1.2896 C.ar    1  UNL1       -0.0369
      8 C           2.5790   -2.0344   -1.0792 C.ar    1  UNL1        0.0758
      9 N           1.4048   -1.8915   -1.9015 N.am    1  UNL1       -0.2781
     10 C           0.9042   -0.6630   -2.2747 C.2     1  UNL1        0.2570
     11 O           1.6487    0.3356   -2.2179 O.2     1  UNL1       -0.2692
     12 C          -0.5025   -0.4777   -2.7080 C.ar    1  UNL1        0.1015
     13 S          -1.7927   -1.6163   -2.8750 S.2     1  UNL1       -0.0133
     14 C          -2.8606   -0.4455   -3.5930 C.ar    1  UNL1        0.2566
     15 N          -4.1108   -0.6578   -4.1408 N.ar    1  UNL1       -0.1851
     16 C          -4.7916    0.3134   -4.8126 C.ar    1  UNL1        0.2784
     17 N          -5.9444   -0.0687   -5.4755 N.pl3   1  UNL1       -0.2777
     18 C          -6.2571    0.2964   -6.8741 C.3     1  UNL1        0.0174
     19 C          -7.6553    0.9059   -6.8351 C.3     1  UNL1       -0.0356
     20 C          -8.3392    0.0802   -5.7626 C.3     1  UNL1       -0.0356
     21 C          -7.2233   -0.2619   -4.7547 C.3     1  UNL1        0.0174
     22 C          -4.2091    1.6017   -4.8634 C.ar    1  UNL1        0.0697
     23 C          -2.9505    1.8343   -4.2653 C.ar    1  UNL1       -0.0158
     24 C          -2.2664    0.7981   -3.6112 C.ar    1  UNL1        0.0793
     25 C          -0.9927    0.7875   -2.9732 C.ar    1  UNL1        0.0581
     26 N          -0.2498    1.8887   -2.7209 N.pl3   1  UNL1       -0.3563
     27 C          -2.2843    3.1767   -4.3757 C.3     1  UNL1        0.0025
     28 C          -2.8255    4.0455   -5.4824 C.3     1  UNL1        0.0684
     29 C          -2.3373    3.5274   -6.8461 C.3     1  UNL1       -0.0358
     30 C          -2.2593    5.4550   -5.2695 C.3     1  UNL1       -0.0358
     31 O          -4.2475    4.0502   -5.3459 O.3     1  UNL1       -0.3687
     32 C          -4.8449    2.7695   -5.5996 C.3     1  UNL1        0.0812
     33 H           0.6486    1.0569    0.5481 H       1  UNL1        0.0660
     34 H           0.7924   -0.4090    1.5740 H       1  UNL1        0.0660
     35 H           0.3788   -0.5387   -0.1036 H       1  UNL1        0.0660
     36 H           4.5103   -0.6610    1.4086 H       1  UNL1        0.0655
     37 H           5.9311   -2.6130    0.8979 H       1  UNL1        0.0619
     38 H           5.1550   -4.2922   -0.7462 H       1  UNL1        0.0618
     39 H           3.1085   -3.9073   -2.0515 H       1  UNL1        0.0637
     40 H           1.1257   -2.6858   -2.4596 H       1  UNL1        0.1553
     41 H          -4.5215   -1.5857   -4.1256 H       1  UNL1        0.4554
     42 H          -6.2902   -0.6344   -7.4508 H       1  UNL1        0.0465
     43 H          -5.5385    0.9410   -7.3785 H       1  UNL1        0.0465
     44 H          -8.1658    0.8407   -7.8033 H       1  UNL1        0.0281
     45 H          -7.6348    1.9631   -6.5472 H       1  UNL1        0.0281
     46 H          -8.7473   -0.8354   -6.2088 H       1  UNL1        0.0281
     47 H          -9.1786    0.6138   -5.3022 H       1  UNL1        0.0281
     48 H          -7.3126   -1.3144   -4.4662 H       1  UNL1        0.0465
     49 H          -7.3122    0.3637   -3.8607 H       1  UNL1        0.0465
     50 H          -0.4288    2.8504   -2.9694 H       1  UNL1        0.1424
     51 H           0.7142    1.7899   -2.3681 H       1  UNL1        0.1424
     52 H          -1.2265    3.0385   -4.6174 H       1  UNL1        0.0341
     53 H          -2.3843    3.6603   -3.3948 H       1  UNL1        0.0341
     54 H          -1.2429    3.5468   -6.9070 H       1  UNL1        0.0257
     55 H          -2.7533    4.1340   -7.6528 H       1  UNL1        0.0257
     56 H          -2.6350    2.4904   -7.0332 H       1  UNL1        0.0257
     57 H          -1.1626    5.4478   -5.3361 H       1  UNL1        0.0257
     58 H          -2.5264    5.8564   -4.2850 H       1  UNL1        0.0257
     59 H          -2.6452    6.1480   -6.0203 H       1  UNL1        0.0257
     60 H          -4.7783    2.6159   -6.6775 H       1  UNL1        0.0613
     61 H          -5.8970    2.8452   -5.3211 H       1  UNL1        0.0613
@<TRIPOS>UNITY_ATOM_ATTR
15 1
charge 1
@<TRIPOS>BOND
     1     1     2    1
     2     2     3    1
     3     3     4   ar
     4     4     5   ar
     5     5     6   ar
     6     6     7   ar
     7     7     8   ar
     8     3     8   ar
     9     8     9    1
    10     9    10   am
    11    10    11    2
    12    10    12    1
    13    12    13   ar
    14    13    14   ar
    15    14    15   ar
    16    15    16   ar
    17    16    17    1
    18    17    18    1
    19    18    19    1
    20    19    20    1
    21    20    21    1
    22    17    21    1
    23    16    22   ar
    24    22    23   ar
    25    23    24   ar
    26    14    24   ar
    27    24    25   ar
    28    12    25   ar
    29    25    26    1
    30    23    27    1
    31    27    28    1
    32    28    29    1
    33    28    30    1
    34    28    31    1
    35    31    32    1
    36    22    32    1
    37     1    33    1
    38     1    34    1
    39     1    35    1
    40     4    36    1
    41     5    37    1
    42     6    38    1
    43     7    39    1
    44     9    40    1
    45    15    41    1
    46    18    42    1
    47    18    43    1
    48    19    44    1
    49    19    45    1
    50    20    46    1
    51    20    47    1
    52    21    48    1
    53    21    49    1
    54    26    50    1
    55    26    51    1
    56    27    52    1
    57    27    53    1
    58    29    54    1
    59    29    55    1
    60    29    56    1
    61    30    57    1
    62    30    58    1
    63    30    59    1
    64    32    60    1
    65    32    61    1
