@<TRIPOS>MOLECULE
*****
 57 60 0 0 0
SMALL
GASTEIGER

@<TRIPOS>ATOM
      1 C           0.9527   -0.3265   -0.4722 C.3     1  UNL1        0.0789
      2 O           2.3750   -0.2761   -0.3694 O.3     1  UNL1       -0.4933
      3 C           2.9801    0.8818   -0.7680 C.ar    1  UNL1        0.1413
      4 C           4.1386    0.7177   -1.5502 C.ar    1  UNL1       -0.0164
      5 C           4.8034    1.8196   -2.1237 C.ar    1  UNL1       -0.0369
      6 C           4.3034    3.1048   -1.9230 C.ar    1  UNL1        0.0354
      7 N           4.8328    4.1937   -2.6545 N.am    1  UNL1       -0.2857
      8 C           4.4175    5.4948   -2.7924 C.2     1  UNL1        0.2141
      9 C           3.2269    6.0699   -2.0637 C.3     1  UNL1        0.0125
     10 O           5.0540    6.2354   -3.5516 O.2     1  UNL1       -0.2758
     11 C           3.2856    3.2380   -0.9806 C.ar    1  UNL1       -0.0156
     12 C           2.5818    2.1712   -0.4254 C.ar    1  UNL1        0.0776
     13 N           1.5106    2.5231    0.4377 N.am    1  UNL1       -0.2784
     14 C           1.1240    1.7309    1.5086 C.2     1  UNL1        0.2518
     15 O           1.8410    0.9029    2.0305 O.2     1  UNL1       -0.2697
     16 C          -0.2470    1.9065    1.9774 C.ar    1  UNL1        0.0786
     17 C          -0.6716    1.2493    3.1162 C.ar    1  UNL1        0.0192
     18 N          -1.9072    1.7074    3.4688 N.ar    1  UNL1       -0.3436
     19 C          -2.5146    1.4024    4.7411 C.3     1  UNL1        0.0121
     20 C          -2.3744    2.5282    2.4787 C.ar    1  UNL1        0.1316
     21 C          -3.6076    3.2649    2.3810 C.ar    1  UNL1        0.2811
     22 O          -4.4462    3.2825    3.2794 O.2     1  UNL1       -0.2652
     23 N          -3.7358    3.9898    1.1798 N.ar    1  UNL1       -0.2549
     24 C          -4.9665    4.7808    1.0613 C.3     1  UNL1        0.0560
     25 C          -5.1939    5.4780   -0.2546 C.ar    1  UNL1       -0.0275
     26 C          -5.2255    6.8744   -0.3415 C.ar    1  UNL1       -0.0569
     27 C          -5.3693    7.4867   -1.5865 C.ar    1  UNL1       -0.0614
     28 C          -5.3466    6.7208   -2.7534 C.ar    1  UNL1       -0.0617
     29 C          -5.2719    5.3342   -2.6791 C.ar    1  UNL1       -0.0614
     30 C          -5.2617    4.7145   -1.4350 C.ar    1  UNL1       -0.0569
     31 C          -2.7372    4.0315    0.2031 C.ar    1  UNL1        0.3302
     32 O          -2.6810    4.7327   -0.8043 O.2     1  UNL1       -0.2464
     33 N          -1.6473    3.2337    0.3583 N.ar    1  UNL1       -0.3051
     34 C          -1.3981    2.5667    1.5122 C.ar    1  UNL1        0.0858
     35 H           0.5857   -1.0267    0.2862 H       1  UNL1        0.0660
     36 H           0.6678   -0.6408   -1.4724 H       1  UNL1        0.0660
     37 H           0.4118    0.6052   -0.3223 H       1  UNL1        0.0660
     38 H           4.5089   -0.2884   -1.7389 H       1  UNL1        0.0655
     39 H           5.7053    1.6426   -2.7085 H       1  UNL1        0.0637
     40 H           5.6008    3.9932   -3.2916 H       1  UNL1        0.1548
     41 H           2.5298    5.3591   -1.6555 H       1  UNL1        0.0323
     42 H           2.5869    6.6049   -2.7659 H       1  UNL1        0.0323
     43 H           3.5773    6.7322   -1.2665 H       1  UNL1        0.0323
     44 H           3.0917    4.1858   -0.5142 H       1  UNL1        0.0656
     45 H           1.1212    3.4532    0.3707 H       1  UNL1        0.1552
     46 H          -0.1238    0.5428    3.7253 H       1  UNL1        0.0817
     47 H          -1.8477    0.7285    5.2905 H       1  UNL1        0.0456
     48 H          -3.4727    0.9116    4.5716 H       1  UNL1        0.0456
     49 H          -2.6187    2.3347    5.2986 H       1  UNL1        0.0456
     50 H          -4.9940    5.4980    1.8941 H       1  UNL1        0.0544
     51 H          -5.8224    4.1106    1.2292 H       1  UNL1        0.0544
     52 H          -5.1009    7.4934    0.5447 H       1  UNL1        0.0621
     53 H          -5.4714    8.5659   -1.6517 H       1  UNL1        0.0618
     54 H          -5.3609    7.2068   -3.7239 H       1  UNL1        0.0618
     55 H          -5.1808    4.7330   -3.5789 H       1  UNL1        0.0618
     56 H          -5.1344    3.6344   -1.3878 H       1  UNL1        0.0621
     57 H          -1.0091    3.2408   -0.4236 H       1  UNL1        0.1705
@<TRIPOS>BOND
     1     1     2    1
     2     2     3    1
     3     3     4   ar
     4     4     5   ar
     5     5     6   ar
     6     6     7    1
     7     7     8   am
     8     8     9    1
     9     8    10    2
    10     6    11   ar
    11    11    12   ar
    12     3    12   ar
    13    12    13    1
    14    13    14   am
    15    14    15    2
    16    14    16    1
    17    16    17   ar
    18    17    18   ar
    19    18    19    1
    20    18    20   ar
    21    20    21   ar
    22    21    22    2
    23    21    23   ar
    24    23    24    1
    25    24    25    1
    26    25    26   ar
    27    26    27   ar
    28    27    28   ar
    29    28    29   ar
    30    29    30   ar
    31    25    30   ar
    32    23    31   ar
    33    31    32    2
    34    31    33   ar
    35    33    34   ar
    36    16    34   ar
    37    20    34   ar
    38     1    35    1
    39     1    36    1
    40     1    37    1
    41     4    38    1
    42     5    39    1
    43     7    40    1
    44     9    41    1
    45     9    42    1
    46     9    43    1
    47    11    44    1
    48    13    45    1
    49    17    46    1
    50    19    47    1
    51    19    48    1
    52    19    49    1
    53    24    50    1
    54    24    51    1
    55    26    52    1
    56    27    53    1
    57    28    54    1
    58    29    55    1
    59    30    56    1
    60    33    57    1
