@<TRIPOS>MOLECULE
*****
 60 62 0 0 0
SMALL
GASTEIGER

@<TRIPOS>ATOM
      1 C           1.0964   -0.0002   -0.0403 C.3     1  UNL1       -0.0188
      2 C           2.6135   -0.0706   -0.0791 C.2     1  UNL1        0.0815
      3 N           3.3042   -0.8732   -0.8399 N.2     1  UNL1       -0.1829
      4 N           2.6929   -1.7194   -1.7212 N.pl3   1  UNL1       -0.2051
      5 C           3.3912   -2.6947   -2.3536 C.ar    1  UNL1        0.2317
      6 N           4.4582   -3.3636   -1.9697 N.ar    1  UNL1       -0.1865
      7 C           4.7073   -4.1976   -3.0173 C.ar    1  UNL1        0.2105
      8 S           5.9929   -5.3598   -3.0767 S.3     1  UNL1       -0.0750
      9 C           6.8416   -5.2502   -1.4527 C.3     1  UNL1        0.0780
     10 C           8.0101   -6.2659   -1.4449 C.2     1  UNL1        0.2275
     11 O           8.2541   -6.9852   -2.4166 O.2     1  UNL1       -0.2746
     12 N           8.7573   -6.3596   -0.2660 N.am    1  UNL1       -0.2848
     13 C           9.8965   -7.2092   -0.1645 C.ar    1  UNL1        0.0335
     14 C          10.1700   -7.9037    1.0182 C.ar    1  UNL1       -0.0386
     15 C          11.3184   -8.7026    1.1043 C.ar    1  UNL1       -0.0336
     16 C          12.1717   -8.8397   -0.0039 C.ar    1  UNL1        0.1054
     17 S          13.4944   -9.9951    0.1567 S.O2    1  UNL1        0.0589
     18 O          14.3657   -9.4311    1.1539 O.2     1  UNL1       -0.1530
     19 O          12.8451  -11.2817    0.3368 O.2     1  UNL1       -0.1530
     20 N          14.3674  -10.0310   -1.3277 N.3     1  UNL1       -0.1846
     21 C          15.5253  -11.0131   -1.3987 C.3     1  UNL1        0.0316
     22 C          16.5819  -10.6462   -0.3519 C.3     1  UNL1       -0.0457
     23 C          15.0394  -12.4529   -1.2116 C.3     1  UNL1       -0.0457
     24 C          16.1966  -10.9296   -2.7844 C.3     1  UNL1       -0.0457
     25 C          11.9273   -8.1421   -1.1736 C.ar    1  UNL1       -0.0336
     26 C          10.7901   -7.3329   -1.2426 C.ar    1  UNL1       -0.0386
     27 N           3.8600   -4.0804   -4.0488 N.ar    1  UNL1       -0.1443
     28 N           3.0374   -3.1164   -3.6080 N.ar    1  UNL1       -0.2446
     29 C           3.3379    0.8511    0.8760 C.ar    1  UNL1        0.0862
     30 C           2.8627    1.0128    2.1744 C.ar    1  UNL1       -0.0345
     31 C           3.5704    1.8225    3.0603 C.ar    1  UNL1       -0.0583
     32 C           4.7264    2.4561    2.6276 C.ar    1  UNL1       -0.0436
     33 C           5.1241    2.2565    1.3141 C.ar    1  UNL1        0.0283
     34 N           4.4584    1.4732    0.4274 N.ar    1  UNL1       -0.2537
     35 H           0.6053   -0.6990   -0.7142 H       1  UNL1        0.0294
     36 H           0.7715    1.0084   -0.3116 H       1  UNL1        0.0294
     37 H           0.7305   -0.2404    0.9607 H       1  UNL1        0.0294
     38 H           1.6819   -1.7391   -1.8018 H       1  UNL1        0.1774
     39 H           6.1432   -5.4951   -0.6462 H       1  UNL1        0.0475
     40 H           7.2410   -4.2418   -1.3048 H       1  UNL1        0.0475
     41 H           8.4127   -5.9382    0.5878 H       1  UNL1        0.1548
     42 H           9.4735   -7.9113    1.8528 H       1  UNL1        0.0637
     43 H          11.5419   -9.2458    2.0240 H       1  UNL1        0.0638
     44 H          14.6882   -9.0874   -1.5549 H       1  UNL1        0.1486
     45 H          16.1991  -10.7396    0.6656 H       1  UNL1        0.0248
     46 H          16.9249   -9.6139   -0.4913 H       1  UNL1        0.0248
     47 H          17.4490  -11.3103   -0.4064 H       1  UNL1        0.0248
     48 H          14.6022  -12.6184   -0.2264 H       1  UNL1        0.0248
     49 H          15.8686  -13.1636   -1.2862 H       1  UNL1        0.0248
     50 H          14.2896  -12.7174   -1.9663 H       1  UNL1        0.0248
     51 H          16.5856   -9.9277   -2.9949 H       1  UNL1        0.0248
     52 H          15.5101  -11.2009   -3.5937 H       1  UNL1        0.0248
     53 H          17.0476  -11.6240   -2.8351 H       1  UNL1        0.0248
     54 H          12.5786   -8.2178   -2.0364 H       1  UNL1        0.0638
     55 H          10.6121   -6.7837   -2.1633 H       1  UNL1        0.0637
     56 H           2.3108   -2.7647   -4.2209 H       1  UNL1        0.1919
     57 H           1.9799    0.4956    2.5252 H       1  UNL1        0.0639
     58 H           3.2288    1.9389    4.0853 H       1  UNL1        0.0619
     59 H           5.3064    3.0792    3.3013 H       1  UNL1        0.0633
     60 H           6.0263    2.7336    0.9372 H       1  UNL1        0.0830
@<TRIPOS>BOND
     1     1     2    1
     2     2     3    2
     3     3     4    1
     4     4     5    1
     5     5     6   ar
     6     6     7   ar
     7     7     8    1
     8     8     9    1
     9     9    10    1
    10    10    11    2
    11    10    12   am
    12    12    13    1
    13    13    14   ar
    14    14    15   ar
    15    15    16   ar
    16    16    17    1
    17    17    18    2
    18    17    19    2
    19    17    20    1
    20    20    21    1
    21    21    22    1
    22    21    23    1
    23    21    24    1
    24    16    25   ar
    25    25    26   ar
    26    13    26   ar
    27     7    27   ar
    28    27    28   ar
    29     5    28   ar
    30     2    29    1
    31    29    30   ar
    32    30    31   ar
    33    31    32   ar
    34    32    33   ar
    35    33    34   ar
    36    29    34   ar
    37     1    35    1
    38     1    36    1
    39     1    37    1
    40     4    38    1
    41     9    39    1
    42     9    40    1
    43    12    41    1
    44    14    42    1
    45    15    43    1
    46    20    44    1
    47    22    45    1
    48    22    46    1
    49    22    47    1
    50    23    48    1
    51    23    49    1
    52    23    50    1
    53    24    51    1
    54    24    52    1
    55    24    53    1
    56    25    54    1
    57    26    55    1
    58    28    56    1
    59    30    57    1
    60    31    58    1
    61    32    59    1
    62    33    60    1
