REMARK  4 active torsions:
REMARK  status: ('A' for Active; 'I' for Inactive)
REMARK       I    between atoms: N_1  and  C_2 
REMARK    1  A    between atoms: C_2  and  C_4 
REMARK    2  A    between atoms: C_10  and  N_11 
REMARK       I    between atoms: N_11  and  C_12 
REMARK    3  A    between atoms: C_12  and  C_14 
REMARK    4  A    between atoms: C_15  and  C_16 
ROOT
ATOM      1  N   UNL d   1       4.528  -0.714  -1.618  0.00  0.00    -0.323 N 
ATOM      2  C   UNL d   1       3.643  -1.771  -1.470  0.00  0.00     0.245 C 
ATOM      3  O   UNL d   1       2.418  -1.662  -1.445  0.00  0.00    -0.268 OA
ATOM      4  H   UNL d   1       5.431  -0.906  -2.034  0.00  0.00     0.169 HD
ENDROOT
BRANCH   1   5
ATOM      5  C   UNL d   1       4.201   0.659  -1.352  0.00  0.00     0.050 A 
ATOM      6  C   UNL d   1       5.034   1.663  -1.891  0.00  0.00     0.032 A 
ATOM      7  C   UNL d   1       4.747   3.029  -1.694  0.00  0.00     0.026 A 
ATOM      8  C   UNL d   1       3.620   3.411  -0.971  0.00  0.00     0.035 A 
ATOM      9  C   UNL d   1       2.801   2.447  -0.403  0.00  0.00     0.043 A 
ATOM     10 CL   UNL d   1       3.261   5.075  -0.724  0.00  0.00    -0.084 Cl
ATOM     11  C   UNL d   1       3.108   1.087  -0.561  0.00  0.00     0.060 A 
BRANCH  11  12
ATOM     12  C   UNL d   1       2.357   0.172   0.328  0.00  0.00     0.251 C 
ATOM     13  N   UNL d   1       0.988   0.176   0.193  0.00  0.00    -0.366 N 
ATOM     14  H   UNL d   1       0.577  -0.717   0.441  0.00  0.00     0.159 HD
ATOM     15  H   UNL d   1       0.552   0.638  -0.593  0.00  0.00     0.159 HD
ATOM     16  O   UNL d   1       2.940  -0.548   1.119  0.00  0.00    -0.268 OA
ENDBRANCH  11  12
ENDBRANCH   1   5
BRANCH   2  17
ATOM     17  C   UNL d   1       4.220  -3.142  -1.490  0.00  0.00     0.075 C 
ATOM     18  C   UNL d   1       3.458  -4.129  -0.975  0.00  0.00     0.017 C 
BRANCH  18  19
ATOM     19  C   UNL d   1       3.722  -5.555  -1.192  0.00  0.00    -0.036 A 
ATOM     20  C   UNL d   1       5.009  -6.081  -1.048  0.00  0.00     0.014 A 
ATOM     21  C   UNL d   1       5.259  -7.421  -1.345  0.00  0.00     0.043 A 
ATOM     22  C   UNL d   1       4.216  -8.240  -1.760  0.00  0.00     0.116 A 
ATOM     23  F   UNL d   1       4.466  -9.522  -2.058  0.00  0.00    -0.206 F 
ATOM     24  C   UNL d   1       2.921  -7.749  -1.873  0.00  0.00     0.043 A 
ATOM     25  C   UNL d   1       2.671  -6.405  -1.582  0.00  0.00     0.014 A 
ENDBRANCH  18  19
ENDBRANCH   2  17
TORSDOF 4
