@<TRIPOS>MOLECULE
*****
 53 57 0 0 0
SMALL
GASTEIGER

@<TRIPOS>ATOM
      1 O           0.9997    0.0346    0.1804 O.2     1  UNL1       -0.2739
      2 C           2.2219    0.0547    0.0402 C.2     1  UNL1        0.2355
      3 C           2.9063    0.6729   -1.1559 C.3     1  UNL1        0.0700
      4 C           1.9811    1.3431   -2.1323 C.ar    1  UNL1        0.0781
      5 N           1.2350    0.5724   -2.8642 N.ar    1  UNL1       -0.1748
      6 N           0.4258    1.1543   -3.7831 N.ar    1  UNL1       -0.2425
      7 C           0.4197    2.4846   -4.1240 C.ar    1  UNL1        0.2725
      8 O          -0.2560    2.9232   -5.0482 O.2     1  UNL1       -0.2658
      9 C           1.2530    3.3721   -3.2948 C.ar    1  UNL1        0.0496
     10 C           1.2539    4.7548   -3.5185 C.ar    1  UNL1       -0.0487
     11 C           1.9787    5.5984   -2.6762 C.ar    1  UNL1       -0.0610
     12 C           2.6993    5.0638   -1.6132 C.ar    1  UNL1       -0.0611
     13 C           2.7126    3.6836   -1.4025 C.ar    1  UNL1       -0.0521
     14 C           1.9964    2.8260   -2.2540 C.ar    1  UNL1        0.0108
     15 N           3.0101   -0.4913    1.0251 N.am    1  UNL1       -0.2234
     16 N           4.3988   -0.5157    0.9953 N.am    1  UNL1       -0.1366
     17 C           5.2058    0.5845    0.9256 C.2     1  UNL1        0.3268
     18 O           4.8912    1.7686    0.8467 O.2     1  UNL1       -0.2506
     19 N           6.5101    0.1809    0.9722 N.am    1  UNL1       -0.2763
     20 C           6.6500   -1.2226    1.2949 C.3     1  UNL1        0.1651
     21 C           7.4250   -1.9232    0.1771 C.ar    1  UNL1       -0.0107
     22 C           6.9189   -3.0691   -0.4508 C.ar    1  UNL1       -0.0557
     23 C           7.7506   -3.8770   -1.2176 C.ar    1  UNL1       -0.0614
     24 C           9.0788   -3.5181   -1.4275 C.ar    1  UNL1       -0.0617
     25 C           9.5924   -2.3612   -0.8504 C.ar    1  UNL1       -0.0614
     26 C           8.7639   -1.5477   -0.0827 C.ar    1  UNL1       -0.0557
     27 C           7.2957   -1.4017    2.6826 C.ar    1  UNL1       -0.0107
     28 C           8.4693   -2.1645    2.8728 C.ar    1  UNL1       -0.0557
     29 C           8.9881   -2.4262    4.1326 C.ar    1  UNL1       -0.0614
     30 C           8.3752   -1.8784    5.2446 C.ar    1  UNL1       -0.0617
     31 C           7.2330   -1.0937    5.0935 C.ar    1  UNL1       -0.0614
     32 C           6.6985   -0.8495    3.8262 C.ar    1  UNL1       -0.0557
     33 C           5.1300   -1.6284    1.3425 C.2     1  UNL1        0.2723
     34 O           4.6636   -2.7177    1.6584 O.2     1  UNL1       -0.2704
     35 H           3.5054   -0.0800   -1.6789 H       1  UNL1        0.0424
     36 H           3.6020    1.4210   -0.8207 H       1  UNL1        0.0424
     37 H          -0.1923    0.5330   -4.2944 H       1  UNL1        0.1921
     38 H           0.6760    5.1751   -4.3384 H       1  UNL1        0.0625
     39 H           1.9675    6.6731   -2.8377 H       1  UNL1        0.0618
     40 H           3.2502    5.7165   -0.9386 H       1  UNL1        0.0618
     41 H           3.2857    3.3305   -0.5506 H       1  UNL1        0.0624
     42 H           2.5363   -0.9897    1.7736 H       1  UNL1        0.1735
     43 H           7.2661    0.8454    0.9042 H       1  UNL1        0.1519
     44 H           5.8916   -3.3973   -0.3113 H       1  UNL1        0.0621
     45 H           7.3633   -4.8122   -1.6131 H       1  UNL1        0.0618
     46 H           9.7165   -4.1523   -2.0350 H       1  UNL1        0.0618
     47 H          10.6496   -2.1259   -0.9434 H       1  UNL1        0.0618
     48 H           9.2115   -0.7033    0.4438 H       1  UNL1        0.0621
     49 H           9.0232   -2.6071    2.0514 H       1  UNL1        0.0621
     50 H           9.8528   -3.0781    4.2245 H       1  UNL1        0.0618
     51 H           8.7883   -2.0716    6.2287 H       1  UNL1        0.0618
     52 H           6.7392   -0.6898    5.9723 H       1  UNL1        0.0618
     53 H           5.7980   -0.2432    3.7538 H       1  UNL1        0.0621
@<TRIPOS>BOND
     1     1     2    2
     2     2     3    1
     3     3     4    1
     4     4     5   ar
     5     5     6   ar
     6     6     7   ar
     7     7     8    2
     8     7     9   ar
     9     9    10   ar
    10    10    11   ar
    11    11    12   ar
    12    12    13   ar
    13    13    14   ar
    14     4    14   ar
    15     9    14   ar
    16     2    15   am
    17    15    16    1
    18    16    17   am
    19    17    18    2
    20    17    19   am
    21    19    20    1
    22    20    21    1
    23    21    22   ar
    24    22    23   ar
    25    23    24   ar
    26    24    25   ar
    27    25    26   ar
    28    21    26   ar
    29    20    27    1
    30    27    28   ar
    31    28    29   ar
    32    29    30   ar
    33    30    31   ar
    34    31    32   ar
    35    27    32   ar
    36    20    33    1
    37    16    33   am
    38    33    34    2
    39     3    35    1
    40     3    36    1
    41     6    37    1
    42    10    38    1
    43    11    39    1
    44    12    40    1
    45    13    41    1
    46    15    42    1
    47    19    43    1
    48    22    44    1
    49    23    45    1
    50    24    46    1
    51    25    47    1
    52    26    48    1
    53    28    49    1
    54    29    50    1
    55    30    51    1
    56    31    52    1
    57    32    53    1
