@<TRIPOS>MOLECULE
*****
 54 58 0 0 0
SMALL
GASTEIGER

@<TRIPOS>ATOM
      1 C           1.1476   -0.0745   -0.0324 C.3     1  UNL1       -0.0216
      2 C           2.6761   -0.0410   -0.0396 C.3     1  UNL1       -0.0234
      3 C           3.1227    1.1933   -0.8403 C.3     1  UNL1       -0.0097
      4 C           4.6326    1.3238   -0.8493 C.3     1  UNL1       -0.0432
      5 C           5.1705    0.1539   -1.6286 C.3     1  UNL1       -0.0123
      6 C           4.8042   -1.1151   -0.9002 C.3     1  UNL1       -0.0313
      7 N           3.3065   -1.3079   -0.6557 N.4     1  UNL1        0.2406
      8 C           2.9993   -2.5934    0.1666 C.3     1  UNL1        0.0014
      9 C           3.4185   -3.9314   -0.4234 C.ar    1  UNL1        0.0811
     10 C           4.7682   -4.2530   -0.6449 C.ar    1  UNL1        0.1286
     11 O           5.8257   -3.4796   -0.2612 O.3     1  UNL1       -0.5062
     12 C           5.1580   -5.4479   -1.2290 C.ar    1  UNL1       -0.0188
     13 C           4.2407   -6.4809   -1.3288 C.ar    1  UNL1       -0.0439
     14 C           2.8797   -6.2249   -1.1452 C.ar    1  UNL1        0.0655
     15 C           1.8715   -7.2653   -1.4676 C.ar    1  UNL1        0.2041
     16 O           2.2566   -8.4134   -1.7565 O.2     1  UNL1       -0.2863
     17 C           0.4496   -6.8589   -1.4653 C.ar    1  UNL1        0.1114
     18 C          -0.6925   -7.7039   -1.7613 C.ar    1  UNL1        0.1180
     19 N          -1.7833   -7.7205   -1.0004 N.ar    1  UNL1       -0.2387
     20 C          -2.5302   -8.7628   -1.4420 C.ar    1  UNL1        0.0789
     21 C          -2.5823  -10.0801   -0.9622 C.ar    1  UNL1       -0.0352
     22 C          -3.2713  -11.0452   -1.7073 C.ar    1  UNL1       -0.0597
     23 C          -4.1069  -10.6526   -2.7473 C.ar    1  UNL1       -0.0606
     24 C          -4.0034   -9.3520   -3.2634 C.ar    1  UNL1       -0.0459
     25 C          -2.9241   -8.5751   -2.7672 C.ar    1  UNL1        0.0395
     26 S          -1.0223   -8.5852   -3.2917 S.2     1  UNL1       -0.0669
     27 C           0.1758   -5.5948   -1.0348 C.ar    1  UNL1        0.1977
     28 N          -1.1101   -5.0937   -1.0160 N.pl3   1  UNL1       -0.3286
     29 O           1.1283   -4.6671   -0.6179 O.2     1  UNL1       -0.4402
     30 C           2.4676   -4.9491   -0.7362 C.ar    1  UNL1        0.1526
     31 H           0.7670    0.8665    0.3882 H       1  UNL1        0.0284
     32 H           0.7394   -0.8706    0.5937 H       1  UNL1        0.0284
     33 H           0.7334   -0.1673   -1.0414 H       1  UNL1        0.0284
     34 H           3.0485    0.0180    0.9904 H       1  UNL1        0.0848
     35 H           2.6911    2.1033   -0.4138 H       1  UNL1        0.0320
     36 H           2.7567    1.1156   -1.8739 H       1  UNL1        0.0320
     37 H           5.0204    1.3040    0.1784 H       1  UNL1        0.0269
     38 H           4.9538    2.2630   -1.3048 H       1  UNL1        0.0269
     39 H           6.2622    0.2241   -1.7129 H       1  UNL1        0.0317
     40 H           4.7722    0.1241   -2.6494 H       1  UNL1        0.0317
     41 H           5.2886   -1.1073    0.0839 H       1  UNL1        0.0814
     42 H           5.1411   -1.9146   -1.5526 H       1  UNL1        0.0814
     43 H           2.8761   -1.4712   -1.5749 H       1  UNL1        0.2039
     44 H           1.9193   -2.5933    0.3301 H       1  UNL1        0.0870
     45 H           3.4633   -2.4581    1.1535 H       1  UNL1        0.0870
     46 H           5.6312   -3.0307    0.5756 H       1  UNL1        0.2922
     47 H           6.1905   -5.5871   -1.5457 H       1  UNL1        0.0654
     48 H           4.6030   -7.4813   -1.5551 H       1  UNL1        0.0627
     49 H          -1.9241  -10.3381   -0.1456 H       1  UNL1        0.0639
     50 H          -3.1779  -12.0926   -1.4442 H       1  UNL1        0.0618
     51 H          -4.8793  -11.3370   -3.1021 H       1  UNL1        0.0618
     52 H          -4.9407   -8.8888   -3.5959 H       1  UNL1        0.0629
     53 H          -1.8378   -5.8241   -0.9785 H       1  UNL1        0.1451
     54 H          -1.3112   -4.2773   -0.4581 H       1  UNL1        0.1451
@<TRIPOS>UNITY_ATOM_ATTR
7 1
charge 1
@<TRIPOS>BOND
     1     1     2    1
     2     2     3    1
     3     3     4    1
     4     4     5    1
     5     5     6    1
     6     6     7    1
     7     2     7    1
     8     7     8    1
     9     8     9    1
    10     9    10   ar
    11    10    11    1
    12    10    12   ar
    13    12    13   ar
    14    13    14   ar
    15    14    15   ar
    16    15    16    2
    17    15    17   ar
    18    17    18    1
    19    18    19   ar
    20    19    20   ar
    21    20    21   ar
    22    21    22   ar
    23    22    23   ar
    24    23    24   ar
    25    24    25   ar
    26    20    25   ar
    27    25    26   ar
    28    18    26   ar
    29    17    27   ar
    30    27    28    1
    31    27    29   ar
    32    29    30   ar
    33     9    30   ar
    34    14    30   ar
    35     1    31    1
    36     1    32    1
    37     1    33    1
    38     2    34    1
    39     3    35    1
    40     3    36    1
    41     4    37    1
    42     4    38    1
    43     5    39    1
    44     5    40    1
    45     6    41    1
    46     6    42    1
    47     7    43    1
    48     8    44    1
    49     8    45    1
    50    11    46    1
    51    12    47    1
    52    13    48    1
    53    21    49    1
    54    22    50    1
    55    23    51    1
    56    24    52    1
    57    28    53    1
    58    28    54    1
