@<TRIPOS>MOLECULE
*****
 46 46 0 0 0
SMALL
GASTEIGER

@<TRIPOS>ATOM
      1 C         -10.1706   -6.5686   -9.2554 C.3     1  UNL1       -0.0396
      2 C          -9.4836   -6.8670   -7.9574 C.ar    1  UNL1       -0.0470
      3 C          -8.9341   -5.8494   -7.1753 C.ar    1  UNL1       -0.0579
      4 C          -8.2780   -6.1491   -5.9790 C.ar    1  UNL1       -0.0458
      5 C          -8.1645   -7.4713   -5.5336 C.ar    1  UNL1        0.0795
      6 C          -7.4161   -7.7958   -4.2841 C.2     1  UNL1        0.2637
      7 O          -7.2945   -8.9733   -3.9664 O.2     1  UNL1       -0.2685
      8 N          -6.8602   -6.7507   -3.5505 N.am    1  UNL1       -0.2302
      9 N          -6.0459   -7.0486   -2.4515 N.am    1  UNL1       -0.2320
     10 C          -5.5586   -6.0301   -1.6432 C.2     1  UNL1        0.2577
     11 O          -5.7604   -4.8442   -1.9103 O.2     1  UNL1       -0.2714
     12 C          -4.8100   -6.4796   -0.3443 C.3     1  UNL1        0.1329
     13 C          -3.5124   -5.6847   -0.1957 C.3     1  UNL1       -0.0300
     14 O          -4.4904   -7.8668   -0.2571 O.3     1  UNL1       -0.3676
     15 C          -5.6433   -8.6537    0.0276 C.3     1  UNL1        0.0489
     16 C          -5.3149  -10.1206   -0.1753 C.3     1  UNL1       -0.0271
     17 C          -6.6033  -10.9501   -0.2752 C.3     1  UNL1       -0.0446
     18 C          -7.4138  -10.6201   -1.5308 C.3     1  UNL1       -0.0626
     19 C          -6.2607  -12.4325   -0.2905 C.3     1  UNL1       -0.0626
     20 C          -8.7419   -8.4915   -6.3146 C.ar    1  UNL1        0.1292
     21 O          -8.7265   -9.8226   -5.9845 O.3     1  UNL1       -0.5060
     22 C          -9.3871   -8.1901   -7.5161 C.ar    1  UNL1       -0.0165
     23 H         -10.1674   -5.4968   -9.4781 H       1  UNL1        0.0278
     24 H         -11.2115   -6.9035   -9.2121 H       1  UNL1        0.0278
     25 H          -9.6599   -7.0848  -10.0747 H       1  UNL1        0.0278
     26 H          -9.0022   -4.8097   -7.4874 H       1  UNL1        0.0620
     27 H          -7.8602   -5.3176   -5.4252 H       1  UNL1        0.0626
     28 H          -6.9159   -5.7656   -3.7830 H       1  UNL1        0.1731
     29 H          -5.7280   -8.0127   -2.3800 H       1  UNL1        0.1729
     30 H          -5.4456   -6.2184    0.5138 H       1  UNL1        0.0690
     31 H          -2.8385   -5.8798   -1.0362 H       1  UNL1        0.0259
     32 H          -2.9726   -5.9663    0.7171 H       1  UNL1        0.0259
     33 H          -3.7063   -4.6075   -0.1559 H       1  UNL1        0.0259
     34 H          -6.4470   -8.3777   -0.6431 H       1  UNL1        0.0560
     35 H          -6.0278   -8.4512    1.0308 H       1  UNL1        0.0560
     36 H          -4.6952  -10.4563    0.6659 H       1  UNL1        0.0290
     37 H          -4.6975  -10.2600   -1.0738 H       1  UNL1        0.0290
     38 H          -7.2250  -10.7359    0.6025 H       1  UNL1        0.0296
     39 H          -6.8176  -10.8137   -2.4286 H       1  UNL1        0.0232
     40 H          -7.7456   -9.5789   -1.5508 H       1  UNL1        0.0232
     41 H          -8.3227  -11.2252   -1.5890 H       1  UNL1        0.0232
     42 H          -5.6530  -12.6834   -1.1669 H       1  UNL1        0.0232
     43 H          -7.1746  -13.0331   -0.3249 H       1  UNL1        0.0232
     44 H          -5.7007  -12.7083    0.6072 H       1  UNL1        0.0232
     45 H          -8.2470   -9.9261   -5.1346 H       1  UNL1        0.2922
     46 H          -9.8137   -8.9948   -8.1120 H       1  UNL1        0.0657
@<TRIPOS>BOND
     1     1     2    1
     2     2     3   ar
     3     3     4   ar
     4     4     5   ar
     5     5     6    1
     6     6     7    2
     7     6     8   am
     8     8     9    1
     9     9    10   am
    10    10    11    2
    11    12    14    1
    12    14    15    1
    13    15    16    1
    14    16    17    1
    15    17    18    1
    16    17    19    1
    17     5    20   ar
    18    20    21    1
    19    20    22   ar
    20     2    22   ar
    21    12    13    1
    22    12    10    1
    23     1    23    1
    24     1    24    1
    25     1    25    1
    26     3    26    1
    27     4    27    1
    28     8    28    1
    29     9    29    1
    30    12    30    1
    31    13    31    1
    32    13    32    1
    33    13    33    1
    34    15    34    1
    35    15    35    1
    36    16    36    1
    37    16    37    1
    38    17    38    1
    39    18    39    1
    40    18    40    1
    41    18    41    1
    42    19    42    1
    43    19    43    1
    44    19    44    1
    45    21    45    1
    46    22    46    1
