REMARK  5 active torsions:
REMARK  status: ('A' for Active; 'I' for Inactive)
REMARK    1  A    between atoms: O_2  and  C_3 
REMARK    2  A    between atoms: C_7  and  C_8 
REMARK    3  A    between atoms: C_8  and  N_9 
REMARK    4  A    between atoms: N_9  and  C_10 
REMARK    5  A    between atoms: C_16  and  C_17 
REMARK       I    between atoms: C_17  and  N_18 
ROOT
ATOM      1  C   UNL d   1       1.076   1.373   5.769  0.00  0.00     0.044 A 
ATOM      2  C   UNL d   1       0.423   0.204   6.238  0.00  0.00     0.032 A 
ATOM      3  C   UNL d   1      -0.367   0.213   7.381  0.00  0.00     0.026 A 
ATOM      4  C   UNL d   1      -0.450   1.382   8.116  0.00  0.00     0.035 A 
ATOM      5 CL   UNL d   1      -1.310   1.397   9.604  0.00  0.00    -0.084 Cl
ATOM      6  C   UNL d   1       0.176   2.548   7.676  0.00  0.00     0.043 A 
ATOM      7  C   UNL d   1       0.931   2.575   6.492  0.00  0.00     0.059 A 
ENDROOT
BRANCH   1   8
ATOM      8  N   UNL d   1       1.791   1.187   4.606  0.00  0.00    -0.385 N 
ATOM      9  H   UNL d   1       1.227   0.794   3.868  0.00  0.00     0.160 HD
BRANCH   8  10
ATOM     10  C   UNL d   1       3.075   1.784   4.290  0.00  0.00     0.158 C 
BRANCH  10  11
ATOM     11  C   UNL d   1       3.454   1.685   2.838  0.00  0.00    -0.038 A 
ATOM     12  C   UNL d   1       4.649   2.280   2.419  0.00  0.00     0.009 A 
ATOM     13  C   UNL d   1       5.088   2.110   1.111  0.00  0.00     0.003 A 
ATOM     14  C   UNL d   1       4.302   1.398   0.198  0.00  0.00     0.037 A 
ATOM     15  C   UNL d   1       3.092   0.834   0.594  0.00  0.00     0.068 A 
ATOM     16  C   UNL d   1       2.674   1.010   1.900  0.00  0.00     0.045 A 
BRANCH  15  17
ATOM     17  O   UNL d   1       2.427   0.030  -0.291  0.00  0.00    -0.356 OA
ATOM     18  C   UNL d   1       1.010  -0.059  -0.122  0.00  0.00     0.210 C 
ENDBRANCH  15  17
ENDBRANCH  10  11
ENDBRANCH   8  10
ENDBRANCH   1   8
BRANCH   7  19
ATOM     19  C   UNL d   1       1.468   3.902   6.025  0.00  0.00     0.251 C 
ATOM     20  N   UNL d   1       1.629   4.916   6.924  0.00  0.00    -0.366 N 
ATOM     21  H   UNL d   1       1.027   5.036   7.722  0.00  0.00     0.159 HD
ATOM     22  H   UNL d   1       1.951   5.767   6.477  0.00  0.00     0.159 HD
ATOM     23  O   UNL d   1       1.746   4.192   4.862  0.00  0.00    -0.268 OA
ENDBRANCH   7  19
TORSDOF 5
