REMARK  9 active torsions:
REMARK  status: ('A' for Active; 'I' for Inactive)
REMARK    1  A    between atoms: C_2  and  O_3 
REMARK    2  A    between atoms: O_3  and  C_4 
REMARK    3  A    between atoms: C_8  and  C_9 
REMARK       I    between atoms: C_9  and  N_11 
REMARK    4  A    between atoms: N_11  and  C_12 
REMARK    5  A    between atoms: C_12  and  N_14 
REMARK    6  A    between atoms: N_14  and  N_15 
REMARK       I    between atoms: N_15  and  C_16 
REMARK    7  A    between atoms: C_16  and  C_18 
REMARK    8  A    between atoms: C_18  and  O_19 
REMARK    9  A    between atoms: O_19  and  C_20 
ROOT
ATOM      1  N   UNL d   1       6.988  -2.871  -4.328  0.00  0.00    -0.273 N 
ATOM      2  H   UNL d   1       6.005  -3.096  -4.178  0.00  0.00     0.189 HD
ENDROOT
BRANCH   1   3
ATOM      3  C   UNL d   1       7.696  -1.810  -3.730  0.00  0.00     0.193 C 
ATOM      4  S   UNL d   1       9.332  -1.596  -4.080  0.00  0.00    -0.039 SA
BRANCH   3   5
ATOM      5  N   UNL d   1       6.926  -1.000  -2.862  0.00  0.00    -0.298 N 
ATOM      6  C   UNL d   1       7.379   0.137  -2.136  0.00  0.00     0.258 C 
ATOM      7  O   UNL d   1       8.527   0.548  -2.170  0.00  0.00    -0.267 OA
ATOM      8  H   UNL d   1       5.958  -1.251  -2.771  0.00  0.00     0.171 HD
BRANCH   6   9
ATOM      9  C   UNL d   1       6.436   0.929  -1.261  0.00  0.00     0.035 A 
ATOM     10  C   UNL d   1       6.962   2.073  -0.615  0.00  0.00     0.017 A 
ATOM     11  C   UNL d   1       6.162   2.905   0.175  0.00  0.00     0.004 A 
ATOM     12  C   UNL d   1       4.821   2.591   0.352  0.00  0.00     0.037 A 
ATOM     13  C   UNL d   1       4.282   1.461  -0.271  0.00  0.00     0.069 A 
ATOM     14  C   UNL d   1       5.085   0.637  -1.079  0.00  0.00     0.053 A 
BRANCH  13  15
ATOM     15  O   UNL d   1       2.930   1.303  -0.118  0.00  0.00    -0.351 OA
BRANCH  15  16
ATOM     16  C   UNL d   1       2.473  -0.046  -0.033  0.00  0.00     0.171 C 
ATOM     17  C   UNL d   1       0.957  -0.037  -0.045  0.00  0.00     0.034 C 
ENDBRANCH  15  16
ENDBRANCH  13  15
ENDBRANCH   6   9
ENDBRANCH   3   5
ENDBRANCH   1   3
BRANCH   1  18
ATOM     18  N   UNL d   1       7.688  -3.756  -5.242  0.00  0.00    -0.266 N 
ATOM     19  C   UNL d   1       7.062  -4.837  -5.862  0.00  0.00     0.260 C 
ATOM     20  O   UNL d   1       5.864  -5.067  -5.681  0.00  0.00    -0.269 OA
ATOM     21  H   UNL d   1       8.681  -3.552  -5.355  0.00  0.00     0.190 HD
BRANCH  19  22
ATOM     22  C   UNL d   1       8.008  -5.715  -6.775  0.00  0.00     0.280 C 
BRANCH  22  23
ATOM     23  O   UNL d   1       7.383  -6.902  -7.287  0.00  0.00    -0.341 OA
BRANCH  23  24
ATOM     24  C   UNL d   1       8.005  -7.712  -8.221  0.00  0.00     0.087 C 
ATOM     25  C   UNL d   1       7.200  -7.962  -9.337  0.00  0.00     0.039 C 
ATOM     26  C   UNL d   1       7.598  -8.861 -10.327  0.00  0.00     0.015 C 
ATOM     27  C   UNL d   1       8.836  -9.504 -10.262  0.00  0.00    -0.028 C 
ATOM     28  C   UNL d   1       9.290 -10.188 -11.393  0.00  0.00    -0.005 C 
ATOM     29  C   UNL d   1       9.635  -9.449  -9.104  0.00  0.00    -0.006 C 
ATOM     30  C   UNL d   1      10.593 -10.640 -11.438  0.00  0.00     0.043 C 
ATOM     31  C   UNL d   1      11.013 -11.179 -10.253  0.00  0.00    -0.016 C 
ATOM     32  C   UNL d   1      10.722 -10.423  -9.109  0.00  0.00     0.010 C 
ATOM     33  C   UNL d   1       9.192  -8.491  -8.082  0.00  0.00     0.055 C 
ATOM     34 BR   UNL d   1      10.262  -8.345  -6.513  0.00  0.00    -0.047 Br
ENDBRANCH  23  24
ENDBRANCH  22  23
ENDBRANCH  19  22
ENDBRANCH   1  18
TORSDOF 9
