@<TRIPOS>MOLECULE
*****
 67 69 0 0 0
SMALL
GASTEIGER

@<TRIPOS>ATOM
      1 C           0.9021    0.0426    0.0178 C.3     1  UNL1       -0.0653
      2 C           2.4199    0.0473    0.0379 C.3     1  UNL1       -0.0559
      3 C           2.9395    0.3629    1.4410 C.3     1  UNL1       -0.0529
      4 C           4.4603    0.3686    1.4647 C.3     1  UNL1       -0.0448
      5 C           5.0322    0.6777    2.8554 C.3     1  UNL1        0.0243
      6 C           6.5508    0.6566    2.7769 C.2     1  UNL1        0.2172
      7 O           7.1182    0.4475    1.7132 O.2     1  UNL1       -0.2755
      8 N           7.2072    0.8605    3.9870 N.am    1  UNL1       -0.2854
      9 C           8.6178    0.9393    4.0561 C.ar    1  UNL1        0.0351
     10 C           9.3258    0.4216    5.1361 C.ar    1  UNL1       -0.0404
     11 C          10.7185    0.5681    5.1798 C.ar    1  UNL1       -0.0583
     12 C          11.4000    1.2178    4.1405 C.ar    1  UNL1       -0.0407
     13 C          10.7003    1.7666    3.0655 C.ar    1  UNL1        0.0293
     14 N          11.3491    2.4382    2.0534 N.pl3   1  UNL1       -0.3353
     15 C          10.6273    3.1169    0.9723 C.3     1  UNL1        0.0861
     16 C          11.6116    3.8848    0.1044 C.2     1  UNL1        0.2343
     17 O          12.8200    3.8495    0.3584 O.2     1  UNL1       -0.2738
     18 N          11.0467    4.6328   -0.9309 N.am    1  UNL1       -0.2842
     19 C          11.8684    5.2628   -1.8829 C.ar    1  UNL1        0.0335
     20 C          11.5986    6.5041   -2.4561 C.ar    1  UNL1       -0.0398
     21 C          12.5182    7.0613   -3.3816 C.ar    1  UNL1       -0.0479
     22 C          13.6845    6.3676   -3.7754 C.ar    1  UNL1        0.0373
     23 C          14.7209    7.0622   -4.6391 C.2     1  UNL1        0.2506
     24 O          14.4007    8.1892   -5.0215 O.2     1  UNL1       -0.2696
     25 N          15.9682    6.4747   -4.9930 N.am    1  UNL1       -0.2705
     26 C          16.5467    5.2072   -4.5306 C.3     1  UNL1        0.0086
     27 C          16.9184    7.2245   -5.7758 C.ar    1  UNL1        0.0363
     28 C          17.6647    6.5832   -6.7813 C.ar    1  UNL1       -0.0403
     29 C          18.6954    7.2489   -7.4474 C.ar    1  UNL1       -0.0600
     30 C          18.9636    8.5805   -7.1483 C.ar    1  UNL1       -0.0616
     31 C          18.2353    9.2282   -6.1516 C.ar    1  UNL1       -0.0600
     32 C          17.2218    8.5526   -5.4652 C.ar    1  UNL1       -0.0403
     33 C          13.7797    5.0616   -3.3243 C.ar    1  UNL1       -0.0479
     34 C          12.9624    4.5531   -2.3335 C.ar    1  UNL1       -0.0398
     35 C           9.3167    1.5965    3.0443 C.ar    1  UNL1       -0.0196
     36 H           0.5331   -0.1831   -0.9868 H       1  UNL1        0.0230
     37 H           0.5085    1.0192    0.3169 H       1  UNL1        0.0230
     38 H           0.5086   -0.7121    0.7060 H       1  UNL1        0.0230
     39 H           2.7912    0.7904   -0.6782 H       1  UNL1        0.0263
     40 H           2.7914   -0.9308   -0.2911 H       1  UNL1        0.0263
     41 H           2.5639   -0.3843    2.1494 H       1  UNL1        0.0265
     42 H           2.5631    1.3410    1.7618 H       1  UNL1        0.0265
     43 H           4.8304    1.1080    0.7415 H       1  UNL1        0.0270
     44 H           4.8307   -0.6085    1.1264 H       1  UNL1        0.0270
     45 H           4.6930   -0.0716    3.5778 H       1  UNL1        0.0358
     46 H           4.6992    1.6673    3.1870 H       1  UNL1        0.0358
     47 H           6.6928    0.8348    4.8562 H       1  UNL1        0.1548
     48 H           8.8290   -0.1546    5.9100 H       1  UNL1        0.0636
     49 H          11.2824    0.1756    6.0231 H       1  UNL1        0.0619
     50 H          12.4845    1.2939    4.1835 H       1  UNL1        0.0636
     51 H          12.3489    2.6245    2.1085 H       1  UNL1        0.1466
     52 H           9.9101    3.8397    1.3769 H       1  UNL1        0.0557
     53 H          10.1131    2.3773    0.3489 H       1  UNL1        0.0557
     54 H          10.0430    4.7288   -1.0252 H       1  UNL1        0.1549
     55 H          10.7409    7.0944   -2.1451 H       1  UNL1        0.0636
     56 H          12.3060    8.0437   -3.8075 H       1  UNL1        0.0626
     57 H          16.0654    4.7748   -3.6754 H       1  UNL1        0.0433
     58 H          17.5498    5.3842   -4.1322 H       1  UNL1        0.0433
     59 H          16.5654    4.4835   -5.3515 H       1  UNL1        0.0433
     60 H          17.4314    5.5662   -7.0844 H       1  UNL1        0.0636
     61 H          19.2841    6.7279   -8.1980 H       1  UNL1        0.0618
     62 H          19.7363    9.1152   -7.6937 H       1  UNL1        0.0618
     63 H          18.4631   10.2587   -5.8936 H       1  UNL1        0.0618
     64 H          16.7051    9.0619   -4.6564 H       1  UNL1        0.0636
     65 H          14.4321    4.3127   -3.7249 H       1  UNL1        0.0626
     66 H          13.1800    3.5520   -1.9706 H       1  UNL1        0.0636
     67 H           8.7495    2.0230    2.2255 H       1  UNL1        0.0655
@<TRIPOS>BOND
     1     1     2    1
     2     2     3    1
     3     3     4    1
     4     4     5    1
     5     5     6    1
     6     6     7    2
     7     6     8   am
     8     8     9    1
     9     9    10   ar
    10    10    11   ar
    11    11    12   ar
    12    12    13   ar
    13    13    14    1
    14    14    15    1
    15    15    16    1
    16    16    17    2
    17    16    18   am
    18    18    19    1
    19    19    20   ar
    20    20    21   ar
    21    21    22   ar
    22    22    23    1
    23    23    24    2
    24    23    25   am
    25    25    26    1
    26    25    27    1
    27    27    28   ar
    28    28    29   ar
    29    29    30   ar
    30    30    31   ar
    31    31    32   ar
    32    27    32   ar
    33    22    33   ar
    34    33    34   ar
    35    19    34   ar
    36    13    35   ar
    37     9    35   ar
    38     1    36    1
    39     1    37    1
    40     1    38    1
    41     2    39    1
    42     2    40    1
    43     3    41    1
    44     3    42    1
    45     4    43    1
    46     4    44    1
    47     5    45    1
    48     5    46    1
    49     8    47    1
    50    10    48    1
    51    11    49    1
    52    12    50    1
    53    14    51    1
    54    15    52    1
    55    15    53    1
    56    18    54    1
    57    20    55    1
    58    21    56    1
    59    26    57    1
    60    26    58    1
    61    26    59    1
    62    28    60    1
    63    29    61    1
    64    30    62    1
    65    31    63    1
    66    32    64    1
    67    33    65    1
    68    34    66    1
    69    35    67    1
