REMARK  3 active torsions:
REMARK  status: ('A' for Active; 'I' for Inactive)
REMARK    1  A    between atoms: C_7  and  N_8 
REMARK    2  A    between atoms: N_8  and  N_9 
REMARK       I    between atoms: N_9  and  C_10 
REMARK       I    between atoms: C_10  and  N_12 
REMARK    3  A    between atoms: N_12  and  C_13 
ROOT
ATOM      1  N   UNL d   1      -3.076   0.001   0.035  0.00  0.00    -0.191 NA
ATOM      2  C   UNL d   1      -1.923   0.024  -0.020  0.00  0.00     0.099 C 
ATOM      3  C   UNL d   1      -0.487   0.010  -0.053  0.00  0.00     0.046 A 
ATOM      4  C   UNL d   1       0.235   1.199  -0.042  0.00  0.00     0.023 A 
ATOM      5  C   UNL d   1       1.625   1.146   0.012  0.00  0.00     0.004 A 
ATOM      6  C   UNL d   1       2.285  -0.099   0.056  0.00  0.00     0.031 A 
ATOM      7  C   UNL d   1       1.573  -1.318   0.015  0.00  0.00     0.049 A 
ATOM      8  C   UNL d   1       0.180  -1.225  -0.051  0.00  0.00     0.053 A 
ENDROOT
BRANCH   7   9
ATOM      9  N   UNL d   1       2.247  -2.551   0.062  0.00  0.00    -0.297 N 
ATOM     10  H   UNL d   1       3.267  -2.598   0.103  0.00  0.00     0.187 HD
BRANCH   9  11
ATOM     11  N   UNL d   1       1.565  -3.797   0.004  0.00  0.00    -0.251 N 
ATOM     12  C   UNL d   1       2.324  -4.964   0.043  0.00  0.00     0.339 C 
ATOM     13  O   UNL d   1       3.551  -4.913   0.125  0.00  0.00    -0.245 OA
ATOM     14  N   UNL d   1       1.585  -6.146  -0.058  0.00  0.00    -0.308 N 
ATOM     15  H   UNL d   1       0.600  -6.116  -0.282  0.00  0.00     0.170 HD
ATOM     16  H   UNL d   1       0.560  -3.804  -0.047  0.00  0.00     0.191 HD
BRANCH  14  17
ATOM     17  C   UNL d   1       2.188  -7.436   0.019  0.00  0.00     0.036 A 
ATOM     18  C   UNL d   1       1.743  -8.511  -0.766  0.00  0.00     0.029 A 
ATOM     19  C   UNL d   1       2.307  -9.792  -0.604  0.00  0.00     0.002 A 
ATOM     20  C   UNL d   1       3.349  -9.996   0.299  0.00  0.00     0.000 A 
ATOM     21  C   UNL d   1       3.786  -8.937   1.085  0.00  0.00     0.002 A 
ATOM     22  C   UNL d   1       3.209  -7.673   0.943  0.00  0.00     0.029 A 
ENDBRANCH  14  17
ENDBRANCH   9  11
ENDBRANCH   7   9
TORSDOF 3
