@<TRIPOS>MOLECULE
*****
 65 67 0 0 0
SMALL
GASTEIGER

@<TRIPOS>ATOM
      1 C           1.0615   -0.0423   -0.0630 C.3     1  UNL1        0.0820
      2 O           2.4877   -0.0196   -0.0220 O.3     1  UNL1       -0.4641
      3 C           3.0118   -0.9548    0.8320 C.2     1  UNL1        0.3460
      4 O           2.3595   -1.7274    1.4989 O.2     1  UNL1       -0.2444
      5 C           4.4591   -0.9148    0.7422 C.ar    1  UNL1        0.1018
      6 S           5.2720   -2.4233    0.7089 S.2     1  UNL1       -0.0617
      7 C           6.7585   -1.6907    0.3560 C.ar    1  UNL1        0.1166
      8 N           7.9014   -2.4288    0.2173 N.ar    1  UNL1       -0.2211
      9 C           8.9774   -1.7237    0.0255 C.ar    1  UNL1        0.1564
     10 C          10.3561   -2.3577    0.4054 C.3     1  UNL1        0.0275
     11 N          11.4847   -1.3442    0.7445 N.4     1  UNL1        0.2428
     12 C          11.3824   -0.5638    2.0893 C.3     1  UNL1       -0.0290
     13 C          10.1012    0.1794    2.3810 C.3     1  UNL1       -0.0064
     14 C           8.9827   -0.7651    2.7642 C.3     1  UNL1       -0.0578
     15 C          10.1503    1.1420    3.5489 C.3     1  UNL1       -0.0578
     16 C          12.8501   -2.0688    0.7218 C.3     1  UNL1       -0.0016
     17 C          14.0174   -1.0515    0.7937 C.3     1  UNL1        0.1285
     18 O          14.0165   -0.3027    2.0047 O.3     1  UNL1       -0.3831
     19 C          15.3385   -1.7797    0.7151 C.3     1  UNL1        0.1204
     20 O          16.3980   -0.8225    0.6815 O.3     1  UNL1       -0.4889
     21 C          17.6517   -1.3770    0.6850 C.ar    1  UNL1        0.1235
     22 C          18.5522   -0.8729    1.6288 C.ar    1  UNL1       -0.0197
     23 C          19.7923   -1.4891    1.8011 C.ar    1  UNL1       -0.0583
     24 C          20.2460   -2.3991    0.8539 C.ar    1  UNL1       -0.0613
     25 C          19.4066   -2.7907   -0.1812 C.ar    1  UNL1       -0.0554
     26 C          18.0761   -2.3599   -0.2212 C.ar    1  UNL1       -0.0088
     27 C          17.1760   -3.0072   -1.2233 C.3     1  UNL1       -0.0362
     28 N           8.9436   -0.3636   -0.2346 N.ar    1  UNL1       -0.3061
     29 C           7.8748    0.4210    0.1776 C.ar    1  UNL1        0.2602
     30 O           8.0492    1.5927    0.5037 O.2     1  UNL1       -0.2671
     31 C           6.6543   -0.3121    0.3871 C.ar    1  UNL1        0.0756
     32 C           5.3287    0.1653    0.6725 C.ar    1  UNL1       -0.0149
     33 C           4.9122    1.6030    0.8054 C.3     1  UNL1       -0.0376
     34 H           0.7251    0.7079   -0.7839 H       1  UNL1        0.0661
     35 H           0.6590    0.2137    0.9208 H       1  UNL1        0.0661
     36 H           0.6980   -1.0222   -0.3899 H       1  UNL1        0.0661
     37 H          10.6935   -3.0162   -0.4005 H       1  UNL1        0.0897
     38 H          10.2616   -2.9758    1.3118 H       1  UNL1        0.0897
     39 H          11.5488   -0.6825   -0.0362 H       1  UNL1        0.2039
     40 H          12.0990    0.2447    1.9967 H       1  UNL1        0.0817
     41 H          11.6391   -1.2625    2.8898 H       1  UNL1        0.0817
     42 H           9.9657    0.8556    1.5387 H       1  UNL1        0.0347
     43 H           9.1845   -1.3258    3.6744 H       1  UNL1        0.0234
     44 H           8.8782   -1.5731    2.0887 H       1  UNL1        0.0234
     45 H           8.0205   -0.2547    2.8207 H       1  UNL1        0.0234
     46 H          10.2280    0.5822    4.4826 H       1  UNL1        0.0234
     47 H           9.2027    1.6989    3.5512 H       1  UNL1        0.0234
     48 H          10.9662    1.8591    3.4643 H       1  UNL1        0.0234
     49 H          12.8904   -2.6477   -0.2100 H       1  UNL1        0.0841
     50 H          12.8565   -2.7557    1.5758 H       1  UNL1        0.0841
     51 H          13.9318   -0.3470   -0.0446 H       1  UNL1        0.0681
     52 H          14.1902   -0.8917    2.7596 H       1  UNL1        0.2102
     53 H          15.2443   -2.3218   -0.2149 H       1  UNL1        0.0725
     54 H          15.4576   -2.4615    1.5669 H       1  UNL1        0.0725
     55 H          18.2966   -0.0163    2.2482 H       1  UNL1        0.0654
     56 H          20.4122   -1.2525    2.6620 H       1  UNL1        0.0619
     57 H          21.2540   -2.8006    0.9109 H       1  UNL1        0.0618
     58 H          19.7834   -3.4634   -0.9478 H       1  UNL1        0.0621
     59 H          17.7031   -3.6796   -1.8989 H       1  UNL1        0.0279
     60 H          16.6622   -2.2449   -1.8179 H       1  UNL1        0.0279
     61 H          16.4684   -3.6537   -0.6912 H       1  UNL1        0.0279
     62 H           9.7879    0.1790   -0.2101 H       1  UNL1        0.1702
     63 H           5.7542    2.2977    0.8595 H       1  UNL1        0.0278
     64 H           4.3152    1.7543    1.7130 H       1  UNL1        0.0278
     65 H           4.3073    1.8885   -0.0597 H       1  UNL1        0.0278
@<TRIPOS>UNITY_ATOM_ATTR
11 1
charge 1
@<TRIPOS>BOND
     1     1     2    1
     2     2     3    1
     3     3     4    2
     4     3     5    1
     5     5     6   ar
     6     6     7   ar
     7     7     8   ar
     8     8     9   ar
     9     9    10    1
    10    10    11    1
    11    11    12    1
    12    12    13    1
    13    13    14    1
    14    13    15    1
    15    11    16    1
    16    16    17    1
    17    17    18    1
    18    17    19    1
    19    19    20    1
    20    20    21    1
    21    21    22   ar
    22    22    23   ar
    23    23    24   ar
    24    24    25   ar
    25    25    26   ar
    26    21    26   ar
    27    26    27    1
    28     9    28   ar
    29    28    29   ar
    30    29    30    2
    31    29    31   ar
    32     7    31   ar
    33    31    32   ar
    34     5    32   ar
    35    32    33    1
    36     1    34    1
    37     1    35    1
    38     1    36    1
    39    10    37    1
    40    10    38    1
    41    11    39    1
    42    12    40    1
    43    12    41    1
    44    13    42    1
    45    14    43    1
    46    14    44    1
    47    14    45    1
    48    15    46    1
    49    15    47    1
    50    15    48    1
    51    16    49    1
    52    16    50    1
    53    17    51    1
    54    18    52    1
    55    19    53    1
    56    19    54    1
    57    22    55    1
    58    23    56    1
    59    24    57    1
    60    25    58    1
    61    27    59    1
    62    27    60    1
    63    27    61    1
    64    28    62    1
    65    33    63    1
    66    33    64    1
    67    33    65    1
