@<TRIPOS>MOLECULE
*****
 29 30 0 0 0
SMALL
GASTEIGER

@<TRIPOS>ATOM
      1 N           1.1769    0.0066   -0.0303 N.am    1  UNL1       -0.3253
      2 C           2.5401    0.0278   -0.0946 C.2     1  UNL1        0.2415
      3 O           3.1479   -0.6259   -0.9416 O.2     1  UNL1       -0.2704
      4 C           3.2677    0.8264    0.9238 C.ar    1  UNL1        0.0365
      5 C           4.4844    1.4359    0.6059 C.ar    1  UNL1       -0.0489
      6 C           5.2640    2.0104    1.6234 C.ar    1  UNL1       -0.0489
      7 C           4.8070    2.0562    2.9570 C.ar    1  UNL1        0.0371
      8 C           5.6237    2.8150    3.9669 C.2     1  UNL1        0.2493
      9 O           6.6802    3.3183    3.5878 O.2     1  UNL1       -0.2698
     10 N           5.1530    2.9082    5.2737 N.am    1  UNL1       -0.2664
     11 C           5.8972    3.5576    6.2750 C.ar    1  UNL1        0.1252
     12 C           6.4601    4.8086    6.0378 C.ar    1  UNL1       -0.0201
     13 C           7.2753    5.3912    7.0070 C.ar    1  UNL1       -0.0387
     14 C           7.5172    4.6992    8.1824 C.ar    1  UNL1        0.0592
     15 CL          8.5835    5.3379    9.3658 Cl      1  UNL1       -0.0820
     16 C           6.8739    3.4829    8.3654 C.ar    1  UNL1        0.0480
     17 N           6.0290    2.9157    7.4563 N.ar    1  UNL1       -0.2387
     18 C           3.5842    1.4476    3.2583 C.ar    1  UNL1       -0.0489
     19 C           2.8199    0.8416    2.2490 C.ar    1  UNL1       -0.0489
     20 H           0.6862   -0.5715   -0.7021 H       1  UNL1        0.1453
     21 H           0.6295    0.5976    0.5793 H       1  UNL1        0.1453
     22 H           4.8363    1.4592   -0.4253 H       1  UNL1        0.0625
     23 H           6.2445    2.4138    1.3663 H       1  UNL1        0.0625
     24 H           4.4997    2.2292    5.6303 H       1  UNL1        0.1566
     25 H           6.2617    5.3349    5.1102 H       1  UNL1        0.0652
     26 H           7.7257    6.3615    6.8222 H       1  UNL1        0.0634
     27 H           7.0382    2.9043    9.2713 H       1  UNL1        0.0845
     28 H           3.2021    1.4024    4.2709 H       1  UNL1        0.0625
     29 H           1.8929    0.3435    2.5174 H       1  UNL1        0.0625
@<TRIPOS>BOND
     1     1     2   am
     2     2     3    2
     3     2     4    1
     4     4     5   ar
     5     5     6   ar
     6     6     7   ar
     7     7     8    1
     8     8     9    2
     9     8    10   am
    10    10    11    1
    11    11    12   ar
    12    12    13   ar
    13    13    14   ar
    14    14    15    1
    15    14    16   ar
    16    16    17   ar
    17    11    17   ar
    18     7    18   ar
    19    18    19   ar
    20     4    19   ar
    21     1    20    1
    22     1    21    1
    23     5    22    1
    24     6    23    1
    25    10    24    1
    26    12    25    1
    27    13    26    1
    28    16    27    1
    29    18    28    1
    30    19    29    1
