@<TRIPOS>MOLECULE
*****
 61 62 0 0 0
SMALL
GASTEIGER

@<TRIPOS>ATOM
      1 C          -0.3410    2.5455   -0.0041 C.3     1  UNL1       -0.0382
      2 C           0.3892    1.2314    0.0043 C.ar    1  UNL1       -0.0284
      3 C           1.7971    1.2421    0.0072 C.ar    1  UNL1       -0.0156
      4 C           2.5277    0.0575   -0.0050 C.ar    1  UNL1        0.1218
      5 O           3.8976   -0.0215   -0.0172 O.3     1  UNL1       -0.4827
      6 C           4.6601    1.1971   -0.0269 C.3     1  UNL1        0.1666
      7 C           6.1844    0.9092   -0.0544 C.2     1  UNL1        0.2667
      8 O           6.6544   -0.2302   -0.0719 O.2     1  UNL1       -0.2705
      9 N           7.0207    2.0236   -0.0585 N.am    1  UNL1       -0.2316
     10 N           8.4387    1.8249   -0.0818 N.am    1  UNL1       -0.2343
     11 C           9.2789    2.9293   -0.0852 C.2     1  UNL1        0.2291
     12 O           8.8256    4.0738   -0.0686 O.2     1  UNL1       -0.2743
     13 C          10.7902    2.6270   -0.1106 C.3     1  UNL1        0.0259
     14 C          11.6303    3.9190   -0.1124 C.3     1  UNL1       -0.0347
     15 C          13.1576    3.7162   -0.1371 C.3     1  UNL1        0.0454
     16 C          13.8714    5.0620   -0.1363 C.2     1  UNL1        0.3071
     17 O          13.2999    6.1498   -0.1194 O.2     1  UNL1       -0.2509
     18 O          15.2282    4.9235   -0.1575 O.3     1  UNL1       -0.4646
     19 C          15.9314    6.1856   -0.1606 C.3     1  UNL1        0.0928
     20 C          17.4243    5.9178   -0.1985 C.3     1  UNL1       -0.0146
     21 C          18.2665    7.1992   -0.2198 C.3     1  UNL1       -0.0246
     22 C          19.7592    6.9423   -0.2206 C.ar    1  UNL1       -0.0472
     23 C          20.2947    5.6452   -0.2161 C.ar    1  UNL1       -0.0586
     24 C          21.6592    5.4308   -0.0549 C.ar    1  UNL1       -0.0615
     25 C          22.5258    6.5144    0.0005 C.ar    1  UNL1       -0.0617
     26 C          22.0209    7.8125   -0.0597 C.ar    1  UNL1       -0.0615
     27 C          20.6440    8.0280   -0.1599 C.ar    1  UNL1       -0.0586
     28 C           1.8307   -1.1614   -0.0063 C.ar    1  UNL1       -0.0156
     29 C           0.4192   -1.2067    0.0002 C.ar    1  UNL1       -0.0284
     30 C          -0.2953   -2.5332    0.0084 C.3     1  UNL1       -0.0382
     31 C          -0.2952    0.0032    0.0005 C.ar    1  UNL1        0.0470
     32 CL         -2.0324   -0.0123   -0.0035 Cl      1  UNL1       -0.0830
     33 H           0.3579    3.3881    0.0165 H       1  UNL1        0.0278
     34 H          -0.9833    2.6317    0.8776 H       1  UNL1        0.0278
     35 H          -0.9408    2.6390   -0.9148 H       1  UNL1        0.0278
     36 H           2.3000    2.2023    0.0176 H       1  UNL1        0.0657
     37 H           4.4391    1.7740    0.8796 H       1  UNL1        0.0795
     38 H           4.4086    1.7823   -0.9203 H       1  UNL1        0.0795
     39 H           6.7066    2.9934   -0.0453 H       1  UNL1        0.1729
     40 H           8.7562    0.8565   -0.0946 H       1  UNL1        0.1728
     41 H          11.0205    2.0410   -1.0075 H       1  UNL1        0.0359
     42 H          11.0474    2.0260    0.7690 H       1  UNL1        0.0359
     43 H          11.3715    4.5139    0.7735 H       1  UNL1        0.0275
     44 H          11.3450    4.5285   -0.9800 H       1  UNL1        0.0275
     45 H          13.4466    3.1654   -1.0391 H       1  UNL1        0.0378
     46 H          13.4736    3.1501    0.7461 H       1  UNL1        0.0378
     47 H          15.6833    6.7465    0.7479 H       1  UNL1        0.0697
     48 H          15.6456    6.7634   -1.0467 H       1  UNL1        0.0697
     49 H          17.6486    5.3098   -1.0837 H       1  UNL1        0.0301
     50 H          17.6925    5.3085    0.6750 H       1  UNL1        0.0301
     51 H          18.0310    7.7929    0.6744 H       1  UNL1        0.0314
     52 H          18.0051    7.8074   -1.0950 H       1  UNL1        0.0314
     53 H          19.6627    4.7678   -0.3168 H       1  UNL1        0.0620
     54 H          22.0324    4.4151    0.0396 H       1  UNL1        0.0618
     55 H          23.5940    6.3427    0.0882 H       1  UNL1        0.0618
     56 H          22.7005    8.6583   -0.0046 H       1  UNL1        0.0618
     57 H          20.2663    9.0484   -0.1770 H       1  UNL1        0.0620
     58 H           2.3965   -2.0923   -0.0117 H       1  UNL1        0.0657
     59 H           0.4055   -3.3734    0.0116 H       1  UNL1        0.0278
     60 H          -0.9269   -2.6350   -0.8814 H       1  UNL1        0.0278
     61 H          -0.9202   -2.6243    0.9043 H       1  UNL1        0.0278
@<TRIPOS>BOND
     1     1     2    1
     2     2     3   ar
     3     3     4   ar
     4     4     5    1
     5     5     6    1
     6     6     7    1
     7     7     8    2
     8     7     9   am
     9     9    10    1
    10    10    11   am
    11    11    12    2
    12    11    13    1
    13    13    14    1
    14    14    15    1
    15    15    16    1
    16    16    17    2
    17    16    18    1
    18    18    19    1
    19    19    20    1
    20    20    21    1
    21    21    22    1
    22    22    23   ar
    23    23    24   ar
    24    24    25   ar
    25    25    26   ar
    26    26    27   ar
    27    22    27   ar
    28     4    28   ar
    29    28    29   ar
    30    29    30    1
    31    29    31   ar
    32     2    31   ar
    33    31    32    1
    34     1    33    1
    35     1    34    1
    36     1    35    1
    37     3    36    1
    38     6    37    1
    39     6    38    1
    40     9    39    1
    41    10    40    1
    42    13    41    1
    43    13    42    1
    44    14    43    1
    45    14    44    1
    46    15    45    1
    47    15    46    1
    48    19    47    1
    49    19    48    1
    50    20    49    1
    51    20    50    1
    52    21    51    1
    53    21    52    1
    54    23    53    1
    55    24    54    1
    56    25    55    1
    57    26    56    1
    58    27    57    1
    59    28    58    1
    60    30    59    1
    61    30    60    1
    62    30    61    1
