@<TRIPOS>MOLECULE
*****
 58 61 0 0 0
SMALL
GASTEIGER

@<TRIPOS>ATOM
      1 C           0.9249    0.0949    0.1034 C.3     1  UNL1       -0.0203
      2 C           2.4378    0.0121    0.0920 C.2     1  UNL1        0.0634
      3 N           3.1373   -0.7899   -0.6730 N.2     1  UNL1       -0.1844
      4 N           2.5575   -1.6662   -1.5611 N.pl3   1  UNL1       -0.2052
      5 C           3.2600   -2.6829   -2.1462 C.ar    1  UNL1        0.2317
      6 N           4.3329   -3.3434   -1.7535 N.ar    1  UNL1       -0.1865
      7 C           4.5614   -4.2457   -2.7601 C.ar    1  UNL1        0.2101
      8 S           5.8550   -5.4338   -2.7938 S.3     1  UNL1       -0.0839
      9 C           6.6591   -5.2257   -1.1729 C.3     1  UNL1        0.0094
     10 C           7.8568   -6.1902   -0.9918 C.3     1  UNL1        0.0337
     11 C           8.4969   -5.9868    0.3824 C.2     1  UNL1        0.2180
     12 O           8.0353   -5.1651    1.1721 O.2     1  UNL1       -0.2754
     13 N           9.6274   -6.7618    0.6506 N.am    1  UNL1       -0.2855
     14 C          10.2840   -6.7497    1.9144 C.ar    1  UNL1        0.0335
     15 C          11.6799   -6.8648    2.0037 C.ar    1  UNL1       -0.0386
     16 C          12.3199   -6.8361    3.2588 C.ar    1  UNL1       -0.0336
     17 C          11.5564   -6.7008    4.4254 C.ar    1  UNL1        0.1051
     18 S          12.3559   -6.4978    5.9982 S.O2    1  UNL1        0.0559
     19 N          13.1704   -7.9364    6.1414 N.3     1  UNL1       -0.2035
     20 O          13.3345   -5.4549    5.8688 O.2     1  UNL1       -0.1533
     21 O          11.3408   -6.5048    7.0380 O.2     1  UNL1       -0.1533
     22 C          10.1690   -6.6339    4.3496 C.ar    1  UNL1       -0.0336
     23 C           9.5446   -6.6491    3.0998 C.ar    1  UNL1       -0.0386
     24 N           3.6973   -4.1713   -3.7805 N.ar    1  UNL1       -0.1443
     25 N           2.8880   -3.1780   -3.3715 N.ar    1  UNL1       -0.2446
     26 C           3.2014    0.9501    1.0362 C.ar    1  UNL1       -0.0019
     27 C           4.3779    1.5144    0.5395 C.ar    1  UNL1       -0.0522
     28 C           5.1899    2.2884    1.3691 C.ar    1  UNL1       -0.0534
     29 C           4.8271    2.5764    2.6908 C.ar    1  UNL1       -0.0178
     30 C           5.5823    3.5060    3.4098 C.ar    1  UNL1       -0.0540
     31 C           5.1325    3.9634    4.6318 C.ar    1  UNL1       -0.0612
     32 C           4.5733    2.9808    5.3997 C.ar    1  UNL1       -0.0612
     33 C           3.6493    2.1534    4.7415 C.ar    1  UNL1       -0.0540
     34 C           3.7110    1.9709    3.2976 C.ar    1  UNL1       -0.0173
     35 C           2.8633    1.1920    2.4036 C.ar    1  UNL1       -0.0451
     36 H           0.4439   -0.6321   -0.5536 H       1  UNL1        0.0293
     37 H           0.6040    1.0872   -0.2289 H       1  UNL1        0.0293
     38 H           0.5528   -0.0940    1.1113 H       1  UNL1        0.0293
     39 H           1.5451   -1.7151   -1.6278 H       1  UNL1        0.1774
     40 H           5.9160   -5.4050   -0.3878 H       1  UNL1        0.0385
     41 H           7.0026   -4.1896   -1.0824 H       1  UNL1        0.0385
     42 H           8.6135   -6.0124   -1.7650 H       1  UNL1        0.0367
     43 H           7.5221   -7.2324   -1.0636 H       1  UNL1        0.0367
     44 H          10.1039   -7.2145   -0.1197 H       1  UNL1        0.1548
     45 H          12.2983   -6.8871    1.1093 H       1  UNL1        0.0637
     46 H          13.4061   -6.8786    3.3180 H       1  UNL1        0.0638
     47 H          14.0816   -8.0016    5.7023 H       1  UNL1        0.1442
     48 H          12.6488   -8.7436    6.4620 H       1  UNL1        0.1442
     49 H           9.5608   -6.5381    5.2464 H       1  UNL1        0.0638
     50 H           8.4598   -6.5856    3.0694 H       1  UNL1        0.0637
     51 H           2.1540   -2.8556   -3.9900 H       1  UNL1        0.1919
     52 H           4.6792    1.3685   -0.4970 H       1  UNL1        0.0624
     53 H           6.1234    2.6828    0.9721 H       1  UNL1        0.0624
     54 H           6.5240    3.8967    3.0444 H       1  UNL1        0.0624
     55 H           4.3313    4.7370    4.4830 H       1  UNL1        0.0618
     56 H           4.7969    3.0302    6.4633 H       1  UNL1        0.0618
     57 H           2.9225    1.6356    5.3631 H       1  UNL1        0.0624
     58 H           1.9572    0.7484    2.8071 H       1  UNL1        0.0630
@<TRIPOS>BOND
     1     1     2    1
     2     2     3    2
     3     3     4    1
     4     4     5    1
     5     5     6   ar
     6     6     7   ar
     7     7     8    1
     8     8     9    1
     9     9    10    1
    10    10    11    1
    11    11    12    2
    12    11    13   am
    13    13    14    1
    14    14    15   ar
    15    15    16   ar
    16    16    17   ar
    17    17    18    1
    18    18    19    1
    19    18    20    2
    20    18    21    2
    21    17    22   ar
    22    22    23   ar
    23    14    23   ar
    24     7    24   ar
    25    24    25   ar
    26     5    25   ar
    27     2    26    1
    28    26    27   ar
    29    27    28   ar
    30    28    29   ar
    31    29    30   ar
    32    30    31   ar
    33    31    32   ar
    34    32    33   ar
    35    33    34   ar
    36    29    34   ar
    37    34    35   ar
    38    26    35   ar
    39     1    36    1
    40     1    37    1
    41     1    38    1
    42     4    39    1
    43     9    40    1
    44     9    41    1
    45    10    42    1
    46    10    43    1
    47    13    44    1
    48    15    45    1
    49    16    46    1
    50    19    47    1
    51    19    48    1
    52    22    49    1
    53    23    50    1
    54    25    51    1
    55    27    52    1
    56    28    53    1
    57    30    54    1
    58    31    55    1
    59    32    56    1
    60    33    57    1
    61    35    58    1
