REMARK  5 active torsions:
REMARK  status: ('A' for Active; 'I' for Inactive)
REMARK       I    between atoms: C_2  and  N_3 
REMARK    1  A    between atoms: C_2  and  C_16 
REMARK    2  A    between atoms: N_3  and  N_4 
REMARK    3  A    between atoms: C_5  and  C_6 
REMARK    4  A    between atoms: C_19  and  O_20 
REMARK    5  A    between atoms: C_22  and  O_23 
ROOT
ATOM      1  O   UNL d   1       1.031  -0.049  -0.044  0.00  0.00    -0.266 OA
ATOM      2  C   UNL d   1       2.257   0.034   0.070  0.00  0.00     0.274 C 
ATOM      3  N   UNL d   1       2.951   1.171   0.497  0.00  0.00    -0.243 N 
ATOM      4  H   UNL d   1       3.963   1.143   0.583  0.00  0.00     0.192 HD
ENDROOT
BRANCH   3   5
ATOM      5  N   UNL d   1       2.254   2.284   0.914  0.00  0.00    -0.183 NA
ATOM      6  C   UNL d   1       2.922   3.344   1.256  0.00  0.00     0.151 C 
BRANCH   6   7
ATOM      7  C   UNL d   1       2.207   4.582   1.701  0.00  0.00    -0.006 A 
ATOM      8  C   UNL d   1       1.119   4.413   2.569  0.00  0.00     0.014 A 
ATOM      9  C   UNL d   1       0.351   5.507   2.962  0.00  0.00     0.002 A 
ATOM     10  C   UNL d   1       0.659   6.781   2.490  0.00  0.00     0.012 A 
ATOM     11  C   UNL d   1       1.768   6.989   1.658  0.00  0.00    -0.025 A 
ATOM     12  C   UNL d   1       2.074   8.292   1.224  0.00  0.00     0.012 A 
ATOM     13  C   UNL d   1       2.573   5.885   1.254  0.00  0.00    -0.014 A 
ATOM     14  C   UNL d   1       3.169   8.530   0.399  0.00  0.00     0.001 A 
ATOM     15  C   UNL d   1       3.967   7.468  -0.006  0.00  0.00     0.001 A 
ATOM     16  C   UNL d   1       3.670   6.164   0.408  0.00  0.00     0.013 A 
ENDBRANCH   6   7
ENDBRANCH   3   5
BRANCH   2  17
ATOM     17  C   UNL d   1       3.072  -1.169  -0.299  0.00  0.00     0.067 A 
ATOM     18  C   UNL d   1       2.716  -1.940  -1.426  0.00  0.00     0.022 A 
ATOM     19  C   UNL d   1       3.439  -3.096  -1.771  0.00  0.00     0.037 A 
ATOM     20  C   UNL d   1       4.502  -3.497  -0.968  0.00  0.00     0.068 A 
ATOM     21  C   UNL d   1       4.843  -2.770   0.170  0.00  0.00     0.074 A 
ATOM     22  C   UNL d   1       4.137  -1.606   0.495  0.00  0.00     0.084 A 
BRANCH  20  23
ATOM     23  O   UNL d   1       5.251  -4.602  -1.254  0.00  0.00    -0.361 OA
ATOM     24  H   UNL d   1       4.936  -5.011  -2.078  0.00  0.00     0.217 HD
ENDBRANCH  20  23
BRANCH  22  25
ATOM     25  O   UNL d   1       4.487  -0.893   1.609  0.00  0.00    -0.360 OA
ATOM     26  H   UNL d   1       5.132  -1.407   2.124  0.00  0.00     0.217 HD
ENDBRANCH  22  25
ENDBRANCH   2  17
TORSDOF 5
