@<TRIPOS>MOLECULE
*****
 39 40 0 0 0
SMALL
GASTEIGER

@<TRIPOS>ATOM
      1 N           0.9880    0.0680   -0.0219 N.am    1  UNL1       -0.3291
      2 C           2.3439    0.0110   -0.1427 C.2     1  UNL1        0.2148
      3 O           2.8261   -0.7154   -1.0126 O.2     1  UNL1       -0.2757
      4 C           3.1382    0.8634    0.8359 C.3     1  UNL1        0.0489
      5 C           4.6429    0.7317    0.7145 C.ar    1  UNL1       -0.0384
      6 C           5.2605   -0.5258    0.6980 C.ar    1  UNL1       -0.0547
      7 C           6.6553   -0.6389    0.6538 C.ar    1  UNL1       -0.0197
      8 C           7.4639    0.4986    0.5699 C.ar    1  UNL1        0.1212
      9 O           8.8086    0.2632    0.4552 O.3     1  UNL1       -0.4827
     10 C           9.6815    1.3776    0.2450 C.3     1  UNL1        0.1666
     11 C          11.1443    0.9153    0.0439 C.2     1  UNL1        0.2666
     12 O          11.4716   -0.2694   -0.0499 O.2     1  UNL1       -0.2705
     13 N          12.0958    1.9476   -0.0101 N.am    1  UNL1       -0.2337
     14 N          13.3379    1.5904   -0.5895 N.pl3   1  UNL1       -0.2644
     15 C          14.4104    2.5103   -0.5324 C.ar    1  UNL1        0.0458
     16 C          15.4770    2.3208   -1.4320 C.ar    1  UNL1       -0.0393
     17 C          16.5783    3.1858   -1.4670 C.ar    1  UNL1       -0.0586
     18 C          16.6152    4.2907   -0.6245 C.ar    1  UNL1       -0.0433
     19 C          15.5744    4.4869    0.2811 C.ar    1  UNL1        0.0428
     20 CL         15.6527    5.8219    1.3688 Cl      1  UNL1       -0.0835
     21 C          14.4820    3.6063    0.3344 C.ar    1  UNL1       -0.0210
     22 C           6.8558    1.7523    0.5995 C.ar    1  UNL1       -0.0197
     23 C           5.4591    1.8688    0.6776 C.ar    1  UNL1       -0.0547
     24 H           0.4591   -0.4997   -0.6729 H       1  UNL1        0.1449
     25 H           0.4915    0.6577    0.6301 H       1  UNL1        0.1449
     26 H           2.8524    0.5941    1.8612 H       1  UNL1        0.0407
     27 H           2.8396    1.9089    0.6824 H       1  UNL1        0.0407
     28 H           4.6593   -1.4345    0.6844 H       1  UNL1        0.0622
     29 H           7.1021   -1.6306    0.6750 H       1  UNL1        0.0654
     30 H           9.6514    2.0299    1.1239 H       1  UNL1        0.0795
     31 H           9.3763    1.9305   -0.6533 H       1  UNL1        0.0795
     32 H          11.8061    2.9014   -0.2031 H       1  UNL1        0.1728
     33 H          13.6098    0.6191   -0.3841 H       1  UNL1        0.1700
     34 H          15.4360    1.5035   -2.1502 H       1  UNL1        0.0636
     35 H          17.4013    2.9969   -2.1528 H       1  UNL1        0.0619
     36 H          17.4519    4.9841   -0.6750 H       1  UNL1        0.0632
     37 H          13.7081    3.7781    1.0746 H       1  UNL1        0.0651
     38 H           7.4379    2.6651    0.5692 H       1  UNL1        0.0654
     39 H           5.0165    2.8622    0.6957 H       1  UNL1        0.0622
@<TRIPOS>BOND
     1     1     2   am
     2     2     3    2
     3     2     4    1
     4     4     5    1
     5     5     6   ar
     6     6     7   ar
     7     7     8   ar
     8     8     9    1
     9     9    10    1
    10    10    11    1
    11    11    12    2
    12    11    13   am
    13    13    14    1
    14    14    15    1
    15    15    16   ar
    16    16    17   ar
    17    17    18   ar
    18    18    19   ar
    19    19    20    1
    20    19    21   ar
    21    15    21   ar
    22     8    22   ar
    23    22    23   ar
    24     5    23   ar
    25     1    24    1
    26     1    25    1
    27     4    26    1
    28     4    27    1
    29     6    28    1
    30     7    29    1
    31    10    30    1
    32    10    31    1
    33    13    32    1
    34    14    33    1
    35    16    34    1
    36    17    35    1
    37    18    36    1
    38    21    37    1
    39    22    38    1
    40    23    39    1
