@<TRIPOS>MOLECULE
*****
 38 39 0 0 0
SMALL
GASTEIGER

@<TRIPOS>ATOM
      1 N           1.0677   -0.0654    0.1605 N.am    1  UNL1       -0.3131
      2 C           2.4163   -0.0593    0.0345 C.2     1  UNL1        0.3013
      3 O           2.9010   -0.0432   -1.0910 O.2     1  UNL1       -0.2527
      4 N           3.0984   -0.1020    1.2267 N.am    1  UNL1       -0.2696
      5 C           4.5047   -0.0294    1.2976 C.ar    1  UNL1        0.0348
      6 C           5.2295   -0.7472    2.2531 C.ar    1  UNL1       -0.0401
      7 C           6.6320   -0.6206    2.3180 C.ar    1  UNL1       -0.0553
      8 C           7.3246    0.2171    1.4237 C.ar    1  UNL1       -0.0302
      9 C           8.8391    0.2625    1.4261 C.3     1  UNL1        0.0371
     10 N           9.4032    1.1600    0.4272 N.am    1  UNL1       -0.3072
     11 C          10.7430    1.4406    0.3713 C.2     1  UNL1        0.2469
     12 O          11.5425    1.1709    1.2597 O.2     1  UNL1       -0.2701
     13 C          11.1878    2.1452   -0.8438 C.ar    1  UNL1        0.0686
     14 C          10.6215    3.4212   -1.0209 C.ar    1  UNL1       -0.0456
     15 C          10.9867    4.2093   -2.1014 C.ar    1  UNL1       -0.0428
     16 C          11.9155    3.6947   -2.9773 C.ar    1  UNL1        0.0289
     17 N          12.4753    2.4709   -2.8330 N.ar    1  UNL1       -0.2478
     18 C          12.1274    1.6795   -1.7684 C.ar    1  UNL1        0.1140
     19 S          12.9951    0.1242   -1.8796 S.3     1  UNL1       -0.0353
     20 C          12.5087   -0.8191   -0.4311 C.3     1  UNL1        0.2908
     21 F          11.1681   -1.0283   -0.4340 F       1  UNL1       -0.1965
     22 F          13.0651   -2.0613   -0.4719 F       1  UNL1       -0.1965
     23 C           6.5650    0.9555    0.5100 C.ar    1  UNL1       -0.0553
     24 C           5.1857    0.8204    0.4360 C.ar    1  UNL1       -0.0401
     25 H           0.5525   -0.0508   -0.7109 H       1  UNL1        0.1465
     26 H           0.5636   -0.0305    1.0291 H       1  UNL1        0.1465
     27 H           2.5924   -0.3475    2.0624 H       1  UNL1        0.1564
     28 H           4.7355   -1.4645    2.9043 H       1  UNL1        0.0636
     29 H           7.1806   -1.1945    3.0652 H       1  UNL1        0.0621
     30 H           9.2226   -0.7435    1.2096 H       1  UNL1        0.0512
     31 H           9.2160    0.5617    2.4098 H       1  UNL1        0.0512
     32 H           8.8533    1.3831   -0.3886 H       1  UNL1        0.1493
     33 H           9.9111    3.8079   -0.2935 H       1  UNL1        0.0626
     34 H          10.5665    5.1988   -2.2441 H       1  UNL1        0.0633
     35 H          12.2471    4.2662   -3.8415 H       1  UNL1        0.0830
     36 H          12.8528   -0.3616    0.4944 H       1  UNL1        0.1146
     37 H           7.0027    1.6638   -0.1806 H       1  UNL1        0.0621
     38 H           4.6531    1.4209   -0.2957 H       1  UNL1        0.0636
@<TRIPOS>BOND
     1     1     2   am
     2     2     3    2
     3     2     4   am
     4     4     5    1
     5     5     6   ar
     6     6     7   ar
     7     7     8   ar
     8     8     9    1
     9     9    10    1
    10    10    11   am
    11    11    12    2
    12    11    13    1
    13    13    14   ar
    14    14    15   ar
    15    15    16   ar
    16    16    17   ar
    17    17    18   ar
    18    13    18   ar
    19    18    19    1
    20    19    20    1
    21    20    21    1
    22    20    22    1
    23     8    23   ar
    24    23    24   ar
    25     5    24   ar
    26     1    25    1
    27     1    26    1
    28     4    27    1
    29     6    28    1
    30     7    29    1
    31     9    30    1
    32     9    31    1
    33    10    32    1
    34    14    33    1
    35    15    34    1
    36    16    35    1
    37    20    36    1
    38    23    37    1
    39    24    38    1
