@<TRIPOS>MOLECULE
*****
 67 70 0 0 0
SMALL
GASTEIGER

@<TRIPOS>ATOM
      1 C           0.9352   -0.1668   -0.1655 C.3     1  UNL1       -0.0307
      2 C           2.4334   -0.4164   -0.3358 C.3     1  UNL1        0.0870
      3 O           2.9693   -0.9081    0.8937 O.3     1  UNL1       -0.4885
      4 C           4.2997   -0.7413    1.1902 C.ar    1  UNL1        0.1632
      5 C           4.8692   -1.8521    1.8727 C.ar    1  UNL1       -0.0076
      6 C           6.2006   -1.8403    2.3282 C.ar    1  UNL1       -0.0018
      7 C           6.7578   -2.9455    3.1884 C.2     1  UNL1        0.0529
      8 N           7.9756   -2.8959    3.6423 N.2     1  UNL1       -0.1876
      9 N           8.4494   -3.8949    4.4770 N.am    1  UNL1       -0.2042
     10 C           9.7674   -3.7878    4.9581 C.2     1  UNL1        0.2698
     11 O          10.5108   -2.8510    4.6571 O.2     1  UNL1       -0.2703
     12 C          10.2502   -4.9380    5.8849 C.3     1  UNL1        0.1668
     13 O          11.5584   -4.6361    6.3891 O.3     1  UNL1       -0.4827
     14 C          12.2752   -5.5840    7.0632 C.ar    1  UNL1        0.1214
     15 C          13.2249   -5.0903    7.9656 C.ar    1  UNL1       -0.0165
     16 C          14.1362   -5.9501    8.5945 C.ar    1  UNL1       -0.0165
     17 C          14.0646   -7.3272    8.3830 C.ar    1  UNL1        0.1212
     18 O          14.9656   -8.0829    9.0787 O.3     1  UNL1       -0.4874
     19 C          14.8368   -9.5081    8.9926 C.3     1  UNL1        0.1146
     20 C          15.7640  -10.2019    9.9690 C.ar    1  UNL1       -0.0104
     21 C          15.7423  -11.6021   10.0785 C.ar    1  UNL1       -0.0554
     22 C          16.4519  -12.2413   11.0981 C.ar    1  UNL1       -0.0614
     23 C          17.2631  -11.5003   11.9556 C.ar    1  UNL1       -0.0617
     24 C          17.3401  -10.1177   11.8168 C.ar    1  UNL1       -0.0614
     25 C          16.5917   -9.4735   10.8337 C.ar    1  UNL1       -0.0554
     26 C          13.1088   -7.8219    7.4974 C.ar    1  UNL1       -0.0165
     27 C          12.2205   -6.9558    6.8377 C.ar    1  UNL1       -0.0165
     28 C           6.9923   -0.7293    2.0301 C.ar    1  UNL1       -0.0494
     29 C           6.4335    0.3972    1.3967 C.ar    1  UNL1       -0.0150
     30 C           5.0830    0.4115    0.9991 C.ar    1  UNL1        0.1734
     31 O           4.6399    1.5996    0.3508 O.3     1  UNL1       -0.4186
     32 C           3.4132    2.1103    0.7382 C.2     1  UNL1        0.3445
     33 O           2.7820    1.7654    1.7427 O.2     1  UNL1       -0.2445
     34 C           2.7860    3.0366   -0.2595 C.ar    1  UNL1        0.0594
     35 C           1.4641    3.4149    0.0365 C.ar    1  UNL1       -0.0478
     36 C           0.7980    4.3800   -0.7076 C.ar    1  UNL1       -0.0610
     37 C           1.4622    5.0048   -1.7528 C.ar    1  UNL1       -0.0617
     38 C           2.7227    4.5459   -2.1500 C.ar    1  UNL1       -0.0610
     39 C           3.3766    3.5293   -1.4302 C.ar    1  UNL1       -0.0478
     40 H           0.5298    0.3709   -1.0296 H       1  UNL1        0.0262
     41 H           0.7090    0.4292    0.7279 H       1  UNL1        0.0262
     42 H           0.3955   -1.1099   -0.0497 H       1  UNL1        0.0262
     43 H           2.8748    0.5014   -0.7004 H       1  UNL1        0.0694
     44 H           2.6434   -1.1349   -1.1290 H       1  UNL1        0.0694
     45 H           4.2443   -2.7274    2.0360 H       1  UNL1        0.0662
     46 H           6.0744   -3.7753    3.4414 H       1  UNL1        0.0851
     47 H           7.8350   -4.6553    4.7419 H       1  UNL1        0.1773
     48 H          10.2396   -5.8641    5.3019 H       1  UNL1        0.0795
     49 H           9.5737   -5.0168    6.7416 H       1  UNL1        0.0795
     50 H          13.2660   -4.0235    8.1767 H       1  UNL1        0.0655
     51 H          14.9118   -5.5362    9.2364 H       1  UNL1        0.0655
     52 H          15.0768   -9.8356    7.9750 H       1  UNL1        0.0748
     53 H          13.8139   -9.8043    9.2629 H       1  UNL1        0.0748
     54 H          15.1536  -12.2036    9.3887 H       1  UNL1        0.0621
     55 H          16.3571  -13.3150   11.2392 H       1  UNL1        0.0618
     56 H          17.8353  -11.9987   12.7329 H       1  UNL1        0.0618
     57 H          17.9590   -9.5307   12.4895 H       1  UNL1        0.0618
     58 H          16.6448   -8.3897   10.7600 H       1  UNL1        0.0621
     59 H          13.0499   -8.8807    7.2705 H       1  UNL1        0.0655
     60 H          11.5315   -7.3900    6.1247 H       1  UNL1        0.0655
     61 H           8.0466   -0.7271    2.3082 H       1  UNL1        0.0625
     62 H           7.0659    1.2688    1.2443 H       1  UNL1        0.0656
     63 H           0.9475    2.9652    0.8829 H       1  UNL1        0.0626
     64 H          -0.2157    4.6614   -0.4353 H       1  UNL1        0.0618
     65 H           0.9936    5.8496   -2.2521 H       1  UNL1        0.0618
     66 H           3.2003    5.0087   -3.0124 H       1  UNL1        0.0618
     67 H           4.3372    3.1675   -1.7889 H       1  UNL1        0.0626
@<TRIPOS>BOND
     1     1     2    1
     2     2     3    1
     3     3     4    1
     4     4     5   ar
     5     5     6   ar
     6     6     7    1
     7     7     8    2
     8     8     9    1
     9     9    10   am
    10    10    11    2
    11    10    12    1
    12    12    13    1
    13    13    14    1
    14    14    15   ar
    15    15    16   ar
    16    16    17   ar
    17    17    18    1
    18    18    19    1
    19    19    20    1
    20    20    21   ar
    21    21    22   ar
    22    22    23   ar
    23    23    24   ar
    24    24    25   ar
    25    20    25   ar
    26    17    26   ar
    27    26    27   ar
    28    14    27   ar
    29     6    28   ar
    30    28    29   ar
    31    29    30   ar
    32     4    30   ar
    33    30    31    1
    34    31    32    1
    35    32    33    2
    36    32    34    1
    37    34    35   ar
    38    35    36   ar
    39    36    37   ar
    40    37    38   ar
    41    38    39   ar
    42    34    39   ar
    43     1    40    1
    44     1    41    1
    45     1    42    1
    46     2    43    1
    47     2    44    1
    48     5    45    1
    49     7    46    1
    50     9    47    1
    51    12    48    1
    52    12    49    1
    53    15    50    1
    54    16    51    1
    55    19    52    1
    56    19    53    1
    57    21    54    1
    58    22    55    1
    59    23    56    1
    60    24    57    1
    61    25    58    1
    62    26    59    1
    63    27    60    1
    64    28    61    1
    65    29    62    1
    66    35    63    1
    67    36    64    1
    68    37    65    1
    69    38    66    1
    70    39    67    1
