@<TRIPOS>MOLECULE
*****
 43 45 0 0 0
SMALL
GASTEIGER

@<TRIPOS>ATOM
      1 N           0.9281   -0.0652   -0.0243 N.1     1  UNL1       -0.1907
      2 C           2.1891   -0.0652   -0.0243 C.1     1  UNL1        0.1045
      3 C           3.7091   -0.0652   -0.0243 C.2     1  UNL1        0.1171
      4 C           4.3421    0.4487   -1.1086 C.2     1  UNL1        0.0031
      5 C           3.6140    1.0396   -2.1987 C.ar    1  UNL1        0.1300
      6 C           2.5755    1.9650   -2.1334 C.ar    1  UNL1       -0.0158
      7 C           2.0741    2.1587   -3.4287 C.ar    1  UNL1       -0.0152
      8 C           2.8821    1.4352   -4.2727 C.ar    1  UNL1        0.1373
      9 C           2.8723    1.3340   -5.7318 C.ar    1  UNL1        0.0420
     10 C           2.6435    0.0989   -6.3680 C.ar    1  UNL1        0.0276
     11 C           2.4590    0.0485   -7.7661 C.ar    1  UNL1        0.2739
     12 N           2.2114   -1.2386   -8.4352 N.pl3   1  UNL1        0.0796
     13 O           2.1692   -2.2550   -7.7337 O.2     1  UNL1        0.0414
     14 O           2.0646   -1.2258   -9.6684 O.co2   1  UNL1       -0.5760
     15 C           2.4901    1.2171   -8.5377 C.ar    1  UNL1        0.0170
     16 C           2.7245    2.4398   -7.9143 C.ar    1  UNL1       -0.0363
     17 C           2.9210    2.4998   -6.5294 C.ar    1  UNL1        0.0520
     18 CL          3.2145    4.0732   -5.8620 Cl      1  UNL1       -0.0828
     19 O           3.8274    0.7586   -3.5461 O.2     1  UNL1       -0.4553
     20 C           4.4191   -0.6518    1.1697 C.2     1  UNL1        0.2587
     21 O           3.7350   -0.9767    2.1425 O.2     1  UNL1       -0.2691
     22 N           5.8150   -0.7099    1.1702 N.am    1  UNL1       -0.2797
     23 C           6.5800   -1.3235    2.2176 C.ar    1  UNL1        0.0527
     24 C           7.7656   -0.6847    2.6493 C.ar    1  UNL1       -0.0274
     25 C           8.5608   -1.2269    3.6909 C.ar    1  UNL1        0.0566
     26 C           9.8110   -0.5256    4.1821 C.3     1  UNL1        0.4175
     27 F          10.7281   -0.3463    3.1926 F       1  UNL1       -0.1659
     28 F           9.5528    0.7113    4.6864 F       1  UNL1       -0.1659
     29 F          10.4616   -1.2020    5.1716 F       1  UNL1       -0.1659
     30 C           8.1726   -2.4350    4.2812 C.ar    1  UNL1       -0.0486
     31 C           7.0301   -3.0947    3.8374 C.ar    1  UNL1       -0.0411
     32 C           6.2449   -2.5587    2.8083 C.ar    1  UNL1        0.0622
     33 CL          5.0090   -3.6067    2.1962 Cl      1  UNL1       -0.0816
     34 H           5.4195    0.4509   -1.2117 H       1  UNL1        0.0669
     35 H           2.1719    2.4068   -1.2315 H       1  UNL1        0.0655
     36 H           1.2354    2.7732   -3.7229 H       1  UNL1        0.0656
     37 H           2.5666   -0.8088   -5.7705 H       1  UNL1        0.0693
     38 H           2.3325    1.1962   -9.6155 H       1  UNL1        0.0686
     39 H           2.7428    3.3508   -8.5096 H       1  UNL1        0.0634
     40 H           6.3430   -0.1413    0.5223 H       1  UNL1        0.1552
     41 H           8.0690    0.2701    2.2192 H       1  UNL1        0.0642
     42 H           8.7669   -2.8833    5.0781 H       1  UNL1        0.0623
     43 H           6.7660   -4.0528    4.2803 H       1  UNL1        0.0633
@<TRIPOS>UNITY_ATOM_ATTR
12 1
charge 1
14 1
charge -1
@<TRIPOS>BOND
     1     1     2    3
     2     2     3    1
     3     3     4    2
     4     4     5    1
     5     5     6   ar
     6     6     7   ar
     7     7     8   ar
     8     8     9    1
     9     9    10   ar
    10    10    11   ar
    11    11    12    1
    12    12    13    2
    13    12    14    1
    14    11    15   ar
    15    15    16   ar
    16    16    17   ar
    17     9    17   ar
    18    17    18    1
    19     8    19   ar
    20     5    19   ar
    21     3    20    1
    22    20    21    2
    23    20    22   am
    24    22    23    1
    25    23    24   ar
    26    24    25   ar
    27    25    26    1
    28    26    27    1
    29    26    28    1
    30    26    29    1
    31    25    30   ar
    32    30    31   ar
    33    31    32   ar
    34    23    32   ar
    35    32    33    1
    36     4    34    1
    37     6    35    1
    38     7    36    1
    39    10    37    1
    40    15    38    1
    41    16    39    1
    42    22    40    1
    43    24    41    1
    44    30    42    1
    45    31    43    1
