REMARK  9 active torsions:
REMARK  status: ('A' for Active; 'I' for Inactive)
REMARK    1  A    between atoms: C_2  and  N_4 
REMARK    2  A    between atoms: N_4  and  S_5 
REMARK    3  A    between atoms: S_5  and  C_8 
REMARK    4  A    between atoms: C_10  and  N_11 
REMARK    5  A    between atoms: N_11  and  C_12 
REMARK    6  A    between atoms: C_12  and  C_13 
REMARK    7  A    between atoms: C_16  and  C_17 
REMARK    8  A    between atoms: C_25  and  C_26 
REMARK       I    between atoms: C_26  and  N_28 
REMARK    9  A    between atoms: N_28  and  C_29 
ROOT
ATOM      1  C   UNL d   1       5.219   2.260  -1.966  0.00  0.00     0.077 C 
ATOM      2  C   UNL d   1       6.175   2.085  -2.982  0.00  0.00     0.054 C 
ATOM      3  C   UNL d   1       6.631   3.184  -3.716  0.00  0.00     0.030 C 
ATOM      4  C   UNL d   1       5.985   4.393  -3.509  0.00  0.00     0.046 C 
ATOM      5  C   UNL d   1       5.052   4.565  -2.477  0.00  0.00     0.035 C 
ATOM      6  C   UNL d   1       4.667   3.498  -1.695  0.00  0.00     0.042 C 
ENDROOT
BRANCH   3   7
ATOM      7  N   UNL d   1       7.627   3.040  -4.674  0.00  0.00    -0.386 N 
ATOM      8  H   UNL d   1       8.279   2.297  -4.440  0.00  0.00     0.160 HD
BRANCH   7   9
ATOM      9  C   UNL d   1       8.256   4.228  -5.274  0.00  0.00     0.158 C 
BRANCH   9  10
ATOM     10  C   UNL d   1       9.508   3.881  -6.049  0.00  0.00    -0.041 A 
ATOM     11  C   UNL d   1       9.819   2.558  -6.392  0.00  0.00     0.010 A 
ATOM     12  C   UNL d   1      11.028   2.239  -7.001  0.00  0.00     0.015 A 
ATOM     13  C   UNL d   1      11.891   3.253  -7.409  0.00  0.00    -0.002 A 
ATOM     14  C   UNL d   1      11.572   4.585  -7.117  0.00  0.00     0.015 A 
ATOM     15  C   UNL d   1      10.391   4.900  -6.439  0.00  0.00     0.010 A 
BRANCH  13  16
ATOM     16  C   UNL d   1      13.123   2.937  -8.096  0.00  0.00     0.085 A 
ATOM     17  C   UNL d   1      14.440   3.213  -7.812  0.00  0.00     0.040 A 
ATOM     18  C   UNL d   1      15.197   2.704  -8.890  0.00  0.00     0.027 A 
ATOM     19  C   UNL d   1      14.293   2.147  -9.766  0.00  0.00     0.142 A 
ATOM     20  O   UNL d   1      13.026   2.270  -9.284  0.00  0.00    -0.322 OA
ENDBRANCH  13  16
ENDBRANCH   9  10
ENDBRANCH   7   9
ENDBRANCH   3   7
BRANCH   1  21
ATOM     21  S   UNL d   1       4.803   0.955  -0.863  0.00  0.00     0.241 S 
ATOM     22  O   UNL d   1       5.206   1.375   0.456  0.00  0.00    -0.206 OA
ATOM     23  O   UNL d   1       5.296  -0.263  -1.474  0.00  0.00    -0.206 OA
BRANCH  21  24
ATOM     24  N   UNL d   1       3.082   0.933  -0.855  0.00  0.00    -0.212 NA
ATOM     25  H   UNL d   1       2.723   1.855  -0.598  0.00  0.00     0.140 HD
BRANCH  24  26
ATOM     26  C   UNL d   1       2.492  -0.097   0.063  0.00  0.00     0.063 C 
ATOM     27  C   UNL d   1       0.964  -0.014   0.045  0.00  0.00     0.027 C 
ATOM     28  C   UNL d   1       2.908  -1.495  -0.363  0.00  0.00     0.027 C 
ENDBRANCH  24  26
ENDBRANCH  21  24
ENDBRANCH   1  21
BRANCH   5  29
ATOM     29  C   UNL d   1       4.607   5.935  -2.220  0.00  0.00     0.252 C 
ATOM     30  O   UNL d   1       5.174   6.805  -2.872  0.00  0.00    -0.268 OA
ATOM     31  N   UNL d   1       3.626   6.150  -1.278  0.00  0.00    -0.344 N 
ATOM     32  H   UNL d   1       3.286   5.406  -0.684  0.00  0.00     0.163 HD
BRANCH  31  33
ATOM     33  C   UNL d   1       3.097   7.473  -0.948  0.00  0.00     0.177 C 
ATOM     34  C   UNL d   1       2.998   8.380  -2.175  0.00  0.00     0.035 C 
ATOM     35  C   UNL d   1       3.065   9.857  -1.871  0.00  0.00     0.004 C 
ATOM     36  C   UNL d   1       1.836  10.385  -1.168  0.00  0.00     0.020 C 
ATOM     37  C   UNL d   1       1.638   9.761   0.206  0.00  0.00     0.122 C 
ATOM     38  N   UNL d   1       1.065   8.433   0.139  0.00  0.00    -0.359 N 
ATOM     39  C   UNL d   1       1.682   7.306  -0.339  0.00  0.00     0.240 C 
ATOM     40  H   UNL d   1       0.133   8.284   0.511  0.00  0.00     0.162 HD
ATOM     41  O   UNL d   1       1.105   6.218  -0.271  0.00  0.00    -0.271 OA
ENDBRANCH  31  33
ENDBRANCH   5  29
TORSDOF 9
