REMARK  3 active torsions:
REMARK  status: ('A' for Active; 'I' for Inactive)
REMARK    1  A    between atoms: C_3  and  C_4 
REMARK       I    between atoms: C_4  and  N_6 
REMARK    2  A    between atoms: N_6  and  N_7 
REMARK       I    between atoms: N_7  and  C_8 
REMARK    3  A    between atoms: C_8  and  C_10 
ROOT
ATOM      1  C   UNL d   1       3.389   1.530   0.034  0.00  0.00     0.294 C 
ATOM      2  O   UNL d   1       3.526   2.760   0.048  0.00  0.00    -0.264 OA
ATOM      3  N   UNL d   1       4.528   0.720   0.047  0.00  0.00    -0.261 N 
ATOM      4  H   UNL d   1       4.508  -0.284  -0.005  0.00  0.00     0.190 HD
ENDROOT
BRANCH   3   5
ATOM      5  N   UNL d   1       5.854   1.213   0.107  0.00  0.00    -0.263 N 
ATOM      6  C   UNL d   1       6.882   0.267   0.070  0.00  0.00     0.273 C 
ATOM      7  O   UNL d   1       6.659  -0.942   0.043  0.00  0.00    -0.266 OA
ATOM      8  H   UNL d   1       5.977   2.221   0.051  0.00  0.00     0.190 HD
BRANCH   6   9
ATOM      9  C   UNL d   1       8.278   0.775   0.080  0.00  0.00     0.075 A 
ATOM     10  C   UNL d   1       8.646   1.809   0.946  0.00  0.00     0.062 A 
ATOM     11  C   UNL d   1       9.963   2.270   0.945  0.00  0.00     0.117 A 
ATOM     12  F   UNL d   1      10.308   3.263   1.774  0.00  0.00    -0.206 F 
ATOM     13  C   UNL d   1      10.926   1.722   0.103  0.00  0.00     0.045 A 
ATOM     14  C   UNL d   1      10.572   0.673  -0.742  0.00  0.00     0.046 A 
ATOM     15  C   UNL d   1       9.256   0.196  -0.741  0.00  0.00     0.132 A 
ATOM     16  F   UNL d   1       8.956  -0.810  -1.575  0.00  0.00    -0.205 F 
ENDBRANCH   6   9
ENDBRANCH   3   5
BRANCH   1  17
ATOM     17  C   UNL d   1       2.072   0.849   0.007  0.00  0.00     0.152 A 
ATOM     18  C   UNL d   1       1.670  -0.490   0.003  0.00  0.00    -0.009 A 
ATOM     19  C   UNL d   1       2.459  -1.742   0.040  0.00  0.00     0.052 C 
ATOM     20  C   UNL d   1       0.235  -0.507  -0.017  0.00  0.00     0.007 A 
ATOM     21  C   UNL d   1      -0.737  -1.532  -0.027  0.00  0.00     0.015 A 
ATOM     22  C   UNL d   1      -0.182   0.812  -0.001  0.00  0.00     0.087 A 
ATOM     23  C   UNL d   1      -2.095  -1.198  -0.003  0.00  0.00     0.001 A 
ATOM     24  C   UNL d   1      -2.488   0.139   0.023  0.00  0.00     0.003 A 
ATOM     25  C   UNL d   1      -1.537   1.179   0.018  0.00  0.00     0.038 A 
ATOM     26  O   UNL d   1       0.917   1.635   0.001  0.00  0.00    -0.304 OA
ENDBRANCH   1  17
TORSDOF 3
