@<TRIPOS>MOLECULE
*****
 37 38 0 0 0
SMALL
GASTEIGER

@<TRIPOS>ATOM
      1 C           3.4937    1.8604    2.6279 C.3     1  UNL1       -0.0439
      2 C           2.4335    1.9943    1.5425 C.3     1  UNL1        0.0492
      3 N           1.1396    1.4457    2.0888 N.pl3   1  UNL1       -0.3225
      4 C           0.9822    0.0649    2.2793 C.ar    1  UNL1        0.1375
      5 N           0.0003   -0.5351    1.5590 N.ar    1  UNL1       -0.2383
      6 C          -0.0906   -1.9054    1.5987 C.ar    1  UNL1        0.0419
      7 C           0.8036   -2.7313    2.2623 C.ar    1  UNL1        0.0561
      8 C           0.7300   -4.2083    2.3823 C.2     1  UNL1        0.2430
      9 N          -0.3035   -4.8649    1.7784 N.am    1  UNL1       -0.3253
     10 O           1.5569   -4.8294    3.0238 O.2     1  UNL1       -0.2704
     11 C           1.8020   -2.1103    2.9867 C.ar    1  UNL1       -0.0265
     12 C           1.8048   -0.7275    3.1055 C.ar    1  UNL1        0.0813
     13 CL          2.6435   -0.1939    4.5261 Cl      1  UNL1       -0.0800
     14 C           2.9559    1.4305    0.1502 C.3     1  UNL1        0.0981
     15 O           2.5173    0.0901   -0.0829 O.3     1  UNL1       -0.3853
     16 C           4.4892    1.4612    0.0184 C.ar    1  UNL1       -0.0173
     17 C           5.2091    0.3063   -0.3355 C.ar    1  UNL1       -0.0550
     18 C           6.6044    0.2885   -0.3064 C.ar    1  UNL1       -0.0474
     19 C           7.3030    1.4208    0.0984 C.ar    1  UNL1        0.0179
     20 BR          9.1909    1.4037    0.1140 Br      1  UNL1       -0.0503
     21 C           6.6201    2.5737    0.4667 C.ar    1  UNL1       -0.0474
     22 C           5.2267    2.6102    0.3702 C.ar    1  UNL1       -0.0550
     23 H           3.0781    2.1480    3.5926 H       1  UNL1        0.0248
     24 H           4.3828    2.4759    2.5395 H       1  UNL1        0.0248
     25 H           3.8687    0.8337    2.5960 H       1  UNL1        0.0248
     26 H           2.2777    3.0746    1.3951 H       1  UNL1        0.0524
     27 H           0.3321    1.8043    1.5811 H       1  UNL1        0.1479
     28 H          -0.9448   -2.3099    1.0643 H       1  UNL1        0.0838
     29 H          -1.0401   -4.4401    1.2434 H       1  UNL1        0.1453
     30 H          -0.3236   -5.8702    1.9040 H       1  UNL1        0.1453
     31 H           2.5214   -2.6938    3.5567 H       1  UNL1        0.0641
     32 H           2.5364    2.0243   -0.6717 H       1  UNL1        0.0662
     33 H           2.8332   -0.4319    0.6724 H       1  UNL1        0.2103
     34 H           4.6928   -0.6094   -0.6176 H       1  UNL1        0.0621
     35 H           7.1285   -0.6194   -0.5907 H       1  UNL1        0.0629
     36 H           7.1547    3.4399    0.8494 H       1  UNL1        0.0629
     37 H           4.7207    3.5170    0.7025 H       1  UNL1        0.0621
@<TRIPOS>BOND
     1     1     2    1
     2     2     3    1
     3     3     4    1
     4     4     5   ar
     5     5     6   ar
     6     6     7   ar
     7     7     8    1
     8     8     9   am
     9     8    10    2
    10     7    11   ar
    11    11    12   ar
    12     4    12   ar
    13    12    13    1
    14    14    16    1
    15    16    17   ar
    16    17    18   ar
    17    18    19   ar
    18    19    20    1
    19    19    21   ar
    20    21    22   ar
    21    16    22   ar
    22    14    15    1
    23    14     2    1
    24     1    23    1
    25     1    24    1
    26     1    25    1
    27     2    26    1
    28     3    27    1
    29     6    28    1
    30     9    29    1
    31     9    30    1
    32    11    31    1
    33    14    32    1
    34    15    33    1
    35    17    34    1
    36    18    35    1
    37    21    36    1
    38    22    37    1
