@<TRIPOS>MOLECULE
*****
 38 40 0 0 0
SMALL
GASTEIGER

@<TRIPOS>ATOM
      1 O           1.1094   -0.0684    0.1941 O.2     1  UNL1       -0.2685
      2 C           2.3381   -0.0675    0.1542 C.2     1  UNL1        0.2637
      3 N           3.1163   -0.7661    1.0710 N.am    1  UNL1       -0.2303
      4 N           2.4506   -1.3375    2.1827 N.am    1  UNL1       -0.2339
      5 C           3.1029   -2.1803    3.0644 C.2     1  UNL1        0.2328
      6 O           4.3287   -2.3119    3.0691 O.2     1  UNL1       -0.2740
      7 C           2.2834   -2.8801    4.1235 C.3     1  UNL1        0.0444
      8 C           1.9540   -4.3647    4.0564 C.3     1  UNL1       -0.0338
      9 C           0.8455   -3.3568    3.9447 C.3     1  UNL1       -0.0039
     10 C           0.1166   -3.0764    2.6550 C.ar    1  UNL1       -0.0408
     11 C           0.5704   -3.5522    1.4078 C.ar    1  UNL1       -0.0581
     12 C           0.0353   -3.0820    0.2097 C.ar    1  UNL1       -0.0588
     13 C          -1.0050   -2.1592    0.2342 C.ar    1  UNL1       -0.0264
     14 C          -1.4926   -1.7079    1.4524 C.ar    1  UNL1        0.1237
     15 F          -2.4681   -0.7902    1.4791 F       1  UNL1       -0.2055
     16 C          -0.9461   -2.1553    2.6501 C.ar    1  UNL1       -0.0230
     17 C           3.0373    0.7043   -0.9064 C.ar    1  UNL1        0.0795
     18 C           4.0596    0.1222   -1.6677 C.ar    1  UNL1       -0.0460
     19 C           4.6445    0.8408   -2.7188 C.ar    1  UNL1       -0.0608
     20 C           4.2167    2.1377   -3.0113 C.ar    1  UNL1       -0.0583
     21 C           3.1986    2.7241   -2.2583 C.ar    1  UNL1       -0.0194
     22 C           2.6107    2.0071   -1.2129 C.ar    1  UNL1        0.1290
     23 O           1.6360    2.5975   -0.4567 O.3     1  UNL1       -0.5060
     24 H           4.1284   -0.7094    1.1231 H       1  UNL1        0.1731
     25 H           1.4374   -1.2466    2.1456 H       1  UNL1        0.1728
     26 H           2.5804   -2.5568    5.1189 H       1  UNL1        0.0401
     27 H           1.9539   -4.9571    4.9701 H       1  UNL1        0.0279
     28 H           2.2476   -4.9586    3.2013 H       1  UNL1        0.0279
     29 H           0.2161   -3.2872    4.8338 H       1  UNL1        0.0356
     30 H           1.4437   -4.1988    1.3533 H       1  UNL1        0.0620
     31 H           0.4838   -3.3799   -0.7338 H       1  UNL1        0.0619
     32 H          -1.3893   -1.7376   -0.6875 H       1  UNL1        0.0646
     33 H          -1.3089   -1.7220    3.5789 H       1  UNL1        0.0649
     34 H           4.3841   -0.8973   -1.4787 H       1  UNL1        0.0626
     35 H           5.4278    0.3866   -3.3228 H       1  UNL1        0.0618
     36 H           4.6765    2.6907   -3.8285 H       1  UNL1        0.0619
     37 H           2.8816    3.7360   -2.4955 H       1  UNL1        0.0654
     38 H           1.3588    3.4387   -0.8507 H       1  UNL1        0.2922
@<TRIPOS>BOND
     1     1     2    2
     2     2     3   am
     3     3     4    1
     4     4     5   am
     5     5     6    2
     6     5     7    1
     7     7     8    1
     8     8     9    1
     9     7     9    1
    10     9    10    1
    11    10    11   ar
    12    11    12   ar
    13    12    13   ar
    14    13    14   ar
    15    14    15    1
    16    14    16   ar
    17    10    16   ar
    18     2    17    1
    19    17    18   ar
    20    18    19   ar
    21    19    20   ar
    22    20    21   ar
    23    21    22   ar
    24    17    22   ar
    25    22    23    1
    26     3    24    1
    27     4    25    1
    28     7    26    1
    29     8    27    1
    30     8    28    1
    31     9    29    1
    32    11    30    1
    33    12    31    1
    34    13    32    1
    35    16    33    1
    36    18    34    1
    37    19    35    1
    38    20    36    1
    39    21    37    1
    40    23    38    1
