REMARK  5 active torsions:
REMARK  status: ('A' for Active; 'I' for Inactive)
REMARK    1  A    between atoms: C_2  and  N_3 
REMARK    2  A    between atoms: C_4  and  N_5 
REMARK    3  A    between atoms: N_5  and  N_6 
REMARK    4  A    between atoms: N_6  and  S_7 
REMARK    5  A    between atoms: S_7  and  C_10 
ROOT
ATOM      1  N   UNL d   1       2.368  -2.782   0.853  0.00  0.00    -0.120 N 
ATOM      2  H   UNL d   1       2.178  -3.695   1.263  0.00  0.00     0.206 HD
ENDROOT
BRANCH   1   3
ATOM      3  C   UNL d   1       2.857  -1.794   1.699  0.00  0.00     0.725 A 
ATOM      4  N   UNL d   1       2.986  -0.442   1.334  0.00  0.00    -0.144 N 
ATOM      5  C   UNL d   1       3.438   0.536   2.218  0.00  0.00     0.274 A 
ATOM      6  C   UNL d   1       3.817   0.087   3.549  0.00  0.00     0.062 A 
ATOM      7  O   UNL d   1       3.551   1.729   1.942  0.00  0.00    -0.266 OA
ATOM      8  C   UNL d   1       4.347   1.003   4.464  0.00  0.00     0.019 C 
ATOM      9  C   UNL d   1       3.687  -1.264   3.837  0.00  0.00     0.091 A 
ATOM     10  C   UNL d   1       4.934   0.527   5.625  0.00  0.00     0.001 C 
ATOM     11  C   UNL d   1       4.901  -0.839   5.894  0.00  0.00     0.002 C 
ATOM     12  C   UNL d   1       4.166  -1.704   5.071  0.00  0.00     0.033 C 
ATOM     13  N   UNL d   1       3.164  -2.185   2.912  0.00  0.00    -0.062 NA
BRANCH   4  14
ATOM     14  C   UNL d   1       2.471   0.096   0.091  0.00  0.00     0.147 C 
ATOM     15  C   UNL d   1       0.951   0.083   0.100  0.00  0.00     0.027 C 
ENDBRANCH   4  14
ENDBRANCH   1   3
BRANCH   1  16
ATOM     16  N   UNL d   1       2.113  -2.642  -0.597  0.00  0.00    -0.208 N 
ATOM     17  H   UNL d   1       2.853  -2.201  -1.142  0.00  0.00     0.201 HD
BRANCH  16  18
ATOM     18  S   UNL d   1       1.366  -3.934  -1.472  0.00  0.00     0.276 S 
ATOM     19  O   UNL d   1       2.462  -4.877  -1.700  0.00  0.00    -0.199 OA
ATOM     20  O   UNL d   1       0.151  -4.272  -0.806  0.00  0.00    -0.199 OA
BRANCH  18  21
ATOM     21  C   UNL d   1       1.004  -3.166  -3.032  0.00  0.00     0.084 C 
ATOM     22  C   UNL d   1       0.857  -3.715  -4.307  0.00  0.00     0.028 C 
ATOM     23  C   UNL d   1       0.800  -2.825  -5.504  0.00  0.00     0.041 C 
ATOM     24  C   UNL d   1       0.969  -1.405  -5.363  0.00  0.00     0.102 C 
ATOM     25  C   UNL d   1       0.805  -1.056  -4.068  0.00  0.00     0.103 C 
ATOM     26  O   UNL d   1       1.122  -0.242  -6.157  0.00  0.00    -0.346 OA
ATOM     27  C   UNL d   1       0.883  -1.825  -2.952  0.00  0.00     0.065 C 
ATOM     28  O   UNL d   1       0.166   0.098  -3.784  0.00  0.00    -0.346 OA
ATOM     29  C   UNL d   1       1.176   1.051  -3.845  0.00  0.00     0.202 C 
ATOM     30  C   UNL d   1       1.362   1.172  -5.352  0.00  0.00     0.202 C 
ENDBRANCH  18  21
ENDBRANCH  16  18
ENDBRANCH   1  16
TORSDOF 5
