REMARK  10 active torsions:
REMARK  status: ('A' for Active; 'I' for Inactive)
REMARK    1  A    between atoms: C_2  and  C_3 
REMARK    2  A    between atoms: C_2  and  C_17 
REMARK    3  A    between atoms: C_3  and  O_4 
REMARK    4  A    between atoms: O_4  and  C_5 
REMARK    5  A    between atoms: C_5  and  C_7 
REMARK    6  A    between atoms: C_12  and  N_13 
REMARK    7  A    between atoms: N_13  and  C_14 
REMARK    8  A    between atoms: C_14  and  C_15 
REMARK    9  A    between atoms: C_15  and  O_16 
REMARK   10  A    between atoms: C_25  and  C_26 
ROOT
ATOM      1  O   UNL d   1       1.094   0.151   0.308  0.00  0.00    -0.290 OA
ATOM      2  C   UNL d   1       2.307  -0.042   0.374  0.00  0.00     0.182 C 
ENDROOT
BRANCH   2   3
ATOM      3  C   UNL d   1       2.981  -1.422  -0.043  0.00  0.00     0.262 C 
BRANCH   3   4
ATOM      4  O   UNL d   1       2.224  -2.632  -0.130  0.00  0.00    -0.310 OA
BRANCH   4   5
ATOM      5  C   UNL d   1       2.780  -3.609  -0.930  0.00  0.00     0.296 C 
ATOM      6  O   UNL d   1       3.942  -3.692  -1.229  0.00  0.00    -0.259 OA
BRANCH   5   7
ATOM      7  C   UNL d   1       1.711  -4.541  -1.419  0.00  0.00     0.065 A 
ATOM      8  C   UNL d   1       1.898  -5.886  -1.041  0.00  0.00     0.020 A 
ATOM      9  C   UNL d   1       1.057  -6.888  -1.529  0.00  0.00     0.001 A 
ATOM     10  C   UNL d   1      -0.018  -6.549  -2.340  0.00  0.00     0.002 A 
ATOM     11  C   UNL d   1      -0.217  -5.218  -2.712  0.00  0.00     0.030 A 
ATOM     12  C   UNL d   1       0.636  -4.178  -2.283  0.00  0.00     0.044 A 
BRANCH  12  13
ATOM     13  N   UNL d   1       0.407  -2.933  -2.920  0.00  0.00    -0.387 N 
ATOM     14  H   UNL d   1      -0.561  -2.791  -3.196  0.00  0.00     0.159 HD
BRANCH  13  15
ATOM     15  C   UNL d   1       1.052  -1.769  -2.375  0.00  0.00     0.146 C 
BRANCH  15  16
ATOM     16  C   UNL d   1       0.663  -0.411  -2.907  0.00  0.00     0.183 C 
BRANCH  16  17
ATOM     17  O   UNL d   1       1.586   0.571  -2.398  0.00  0.00    -0.399 OA
ATOM     18  H   UNL d   1       1.233   0.769  -1.509  0.00  0.00     0.209 HD
ENDBRANCH  16  17
ENDBRANCH  15  16
ENDBRANCH  13  15
ENDBRANCH  12  13
ENDBRANCH   5   7
ENDBRANCH   4   5
ENDBRANCH   3   4
ENDBRANCH   2   3
BRANCH   2  19
ATOM     19  C   UNL d   1       3.154   1.157   0.685  0.00  0.00     0.029 C 
ATOM     20  C   UNL d   1       4.485   1.079   0.474  0.00  0.00     0.003 C 
ATOM     21  C   UNL d   1       5.414   0.073   0.057  0.00  0.00     0.014 C 
ATOM     22  C   UNL d   1       5.010   2.424   0.746  0.00  0.00     0.040 C 
ATOM     23  C   UNL d   1       6.714   0.207   0.307  0.00  0.00     0.001 C 
ATOM     24  C   UNL d   1       7.246   1.472   0.734  0.00  0.00     0.002 C 
ATOM     25  C   UNL d   1       6.480   2.568   0.914  0.00  0.00     0.030 C 
ATOM     26  N   UNL d   1       4.072   3.280   0.846  0.00  0.00    -0.376 N 
ATOM     27  C   UNL d   1       2.705   2.629   0.735  0.00  0.00     0.153 C 
ATOM     28  H   UNL d   1       4.241   4.256   1.094  0.00  0.00     0.160 HD
BRANCH  27  29
ATOM     29  C   UNL d   1       1.722   3.623   1.369  0.00  0.00    -0.031 C 
ATOM     30  C   UNL d   1       1.681   4.895   0.689  0.00  0.00     0.009 C 
ATOM     31  C   UNL d   1       1.049   6.032   1.198  0.00  0.00     0.001 C 
ATOM     32  C   UNL d   1       0.303   5.914   2.354  0.00  0.00     0.000 C 
ATOM     33  C   UNL d   1       0.202   4.662   2.974  0.00  0.00     0.001 C 
ATOM     34  C   UNL d   1       0.907   3.522   2.495  0.00  0.00     0.009 C 
ENDBRANCH  27  29
ENDBRANCH   2  19
TORSDOF 10
