REMARK  3 active torsions:
REMARK  status: ('A' for Active; 'I' for Inactive)
REMARK    1  A    between atoms: N_2  and  C_3 
REMARK    2  A    between atoms: C_8  and  C_9 
REMARK       I    between atoms: C_9  and  N_11 
REMARK    3  A    between atoms: N_11  and  C_12 
ROOT
ATOM      1  C   UNL d   1       1.493   0.394   2.827  0.00  0.00     0.258 C 
ATOM      2  O   UNL d   1       1.093   0.827   3.918  0.00  0.00    -0.267 OA
ATOM      3  N   UNL d   1       0.866  -0.611   2.132  0.00  0.00    -0.323 N 
ATOM      4  H   UNL d   1       1.427  -1.038   1.395  0.00  0.00     0.169 HD
ENDROOT
BRANCH   1   5
ATOM      5  C   UNL d   1       2.747   0.962   2.242  0.00  0.00     0.058 A 
ATOM      6  C   UNL d   1       3.581   1.642   3.160  0.00  0.00     0.019 A 
ATOM      7  C   UNL d   1       4.807   2.179   2.782  0.00  0.00     0.001 A 
ATOM      8  C   UNL d   1       5.213   2.063   1.462  0.00  0.00     0.002 A 
ATOM      9  C   UNL d   1       4.373   1.437   0.522  0.00  0.00     0.030 A 
ATOM     10  C   UNL d   1       3.149   0.818   0.895  0.00  0.00     0.043 A 
BRANCH  10  11
ATOM     11  N   UNL d   1       2.460   0.040  -0.044  0.00  0.00    -0.393 N 
ATOM     12  C   UNL d   1       1.110   0.317  -0.540  0.00  0.00     0.146 C 
ATOM     13  H   UNL d   1       3.070  -0.416  -0.720  0.00  0.00     0.159 HD
ENDBRANCH  10  11
ENDBRANCH   1   5
BRANCH   3  14
ATOM     14  C   UNL d   1      -0.522  -0.892   2.153  0.00  0.00     0.035 C 
ATOM     15  C   UNL d   1      -1.001  -2.003   1.449  0.00  0.00     0.031 C 
ATOM     16  C   UNL d   1      -2.355  -2.350   1.518  0.00  0.00     0.021 C 
ATOM     17  C   UNL d   1      -3.217  -1.593   2.308  0.00  0.00     0.011 C 
ATOM     18 BR   UNL d   1      -4.954  -2.234   2.688  0.00  0.00    -0.051 Br
ATOM     19  C   UNL d   1      -2.782  -0.404   2.881  0.00  0.00     0.021 C 
ATOM     20  C   UNL d   1      -1.440  -0.038   2.770  0.00  0.00     0.031 C 
ENDBRANCH   3  14
TORSDOF 3
