REMARK  9 active torsions:
REMARK  status: ('A' for Active; 'I' for Inactive)
REMARK    1  A    between atoms: C_2  and  C_3 
REMARK       I    between atoms: C_2  and  N_21 
REMARK    2  A    between atoms: C_3  and  N_4 
REMARK    3  A    between atoms: N_4  and  C_5 
REMARK    4  A    between atoms: C_10  and  C_11 
REMARK       I    between atoms: C_11  and  N_13 
REMARK    5  A    between atoms: N_13  and  C_14 
REMARK    6  A    between atoms: N_21  and  C_22 
REMARK    7  A    between atoms: C_25  and  C_26 
REMARK       I    between atoms: C_26  and  N_28 
REMARK    8  A    between atoms: N_28  and  C_29 
REMARK    9  A    between atoms: C_30  and  C_29 
ROOT
ATOM      1  O   UNL d   1      15.220  10.461  -4.829  0.00  0.00    -0.271 OA
ATOM      2  C   UNL d   1      14.900   9.387  -4.313  0.00  0.00     0.239 C 
ATOM      3  N   UNL d   1      15.653   8.252  -4.577  0.00  0.00    -0.326 N 
ATOM      4  H   UNL d   1      16.505   8.436  -5.098  0.00  0.00     0.169 HD
ENDROOT
BRANCH   2   5
ATOM      5  C   UNL d   1      13.760   9.278  -3.284  0.00  0.00     0.223 C 
BRANCH   5   6
ATOM      6  N   UNL d   1      13.057  10.532  -3.025  0.00  0.00    -0.381 N 
ATOM      7  H   UNL d   1      13.358  11.354  -3.543  0.00  0.00     0.160 HD
BRANCH   6   8
ATOM      8  C   UNL d   1      12.076  10.614  -2.054  0.00  0.00     0.029 A 
ATOM      9  C   UNL d   1      12.148   9.860  -0.883  0.00  0.00     0.031 A 
ATOM     10  C   UNL d   1      11.171   9.949   0.107  0.00  0.00     0.027 A 
ATOM     11  C   UNL d   1      10.055  10.765  -0.058  0.00  0.00     0.049 A 
ATOM     12 CL   UNL d   1       8.946  10.755   1.269  0.00  0.00    -0.083 Cl
ATOM     13  C   UNL d   1       9.912  11.504  -1.236  0.00  0.00     0.055 A 
ATOM     14  C   UNL d   1      10.934  11.407  -2.229  0.00  0.00     0.048 A 
BRANCH  13  15
ATOM     15  C   UNL d   1       8.771  12.422  -1.535  0.00  0.00     0.253 C 
ATOM     16  O   UNL d   1       8.766  12.955  -2.645  0.00  0.00    -0.268 OA
ATOM     17  N   UNL d   1       7.810  12.653  -0.565  0.00  0.00    -0.352 N 
ATOM     18  H   UNL d   1       7.843  12.084   0.272  0.00  0.00     0.163 HD
BRANCH  17  19
ATOM     19  C   UNL d   1       6.615  13.499  -0.696  0.00  0.00     0.084 C 
ATOM     20  C   UNL d   1       6.320  14.218   0.640  0.00  0.00     0.025 C 
ATOM     21  C   UNL d   1       5.150  15.201   0.530  0.00  0.00     0.002 C 
ATOM     22  C   UNL d   1       5.352  16.195  -0.609  0.00  0.00     0.000 C 
ATOM     23  C   UNL d   1       5.566  15.465  -1.922  0.00  0.00     0.002 C 
ATOM     24  C   UNL d   1       6.739  14.515  -1.829  0.00  0.00     0.025 C 
ENDBRANCH  17  19
ENDBRANCH  13  15
ENDBRANCH   6   8
ENDBRANCH   5   6
ENDBRANCH   2   5
BRANCH   3  25
ATOM     25  C   UNL d   1      15.393   6.925  -4.184  0.00  0.00     0.034 A 
ATOM     26  C   UNL d   1      16.437   6.060  -3.855  0.00  0.00     0.030 A 
ATOM     27  C   UNL d   1      16.156   4.729  -3.481  0.00  0.00     0.019 A 
ATOM     28  C   UNL d   1      14.831   4.266  -3.376  0.00  0.00     0.032 A 
ATOM     29  C   UNL d   1      13.805   5.125  -3.762  0.00  0.00     0.019 A 
ATOM     30  C   UNL d   1      14.095   6.419  -4.191  0.00  0.00     0.030 A 
BRANCH  28  31
ATOM     31  C   UNL d   1      14.562   2.887  -2.849  0.00  0.00     0.251 C 
ATOM     32  O   UNL d   1      15.509   2.156  -2.555  0.00  0.00    -0.268 OA
ATOM     33  N   UNL d   1      13.245   2.493  -2.686  0.00  0.00    -0.354 N 
ATOM     34  H   UNL d   1      12.496   3.133  -2.889  0.00  0.00     0.162 HD
BRANCH  33  35
ATOM     35  C   UNL d   1      12.915   1.153  -2.216  0.00  0.00     0.155 C 
BRANCH  35  36
ATOM     36  C   UNL d   1      11.417   0.781  -2.110  0.00  0.00     0.139 C 
ATOM     37  C   UNL d   1      10.492   1.430  -3.129  0.00  0.00     0.035 C 
ATOM     38  C   UNL d   1      10.520   0.461  -4.280  0.00  0.00     0.029 C 
ATOM     39  C   UNL d   1      10.619  -0.875  -3.582  0.00  0.00     0.168 C 
ATOM     40  O   UNL d   1      11.281  -0.645  -2.329  0.00  0.00    -0.384 OA
ENDBRANCH  35  36
ENDBRANCH  33  35
ENDBRANCH  28  31
ENDBRANCH   3  25
TORSDOF 9
