@<TRIPOS>MOLECULE
*****
 57 59 0 0 0
SMALL
GASTEIGER

@<TRIPOS>ATOM
      1 C           1.0400   -0.5482   -0.1899 C.3     1  UNL1        0.0820
      2 O           2.4693   -0.6984   -0.2410 O.3     1  UNL1       -0.4644
      3 C           3.0399   -1.0953    0.9353 C.2     1  UNL1        0.3407
      4 O           2.4454   -1.5484    1.8905 O.2     1  UNL1       -0.2449
      5 C           4.5094   -0.8627    0.9859 C.ar    1  UNL1        0.0801
      6 C           5.3320   -1.8536    1.5307 C.ar    1  UNL1       -0.0460
      7 C           6.7135   -1.6556    1.7014 C.ar    1  UNL1       -0.0609
      8 C           7.3178   -0.4836    1.2667 C.ar    1  UNL1       -0.0600
      9 C           6.5112    0.5165    0.7317 C.ar    1  UNL1       -0.0397
     10 C           5.0962    0.3422    0.6379 C.ar    1  UNL1        0.0467
     11 N           4.3650    1.4139    0.1089 N.am    1  UNL1       -0.2961
     12 C           3.0938    1.9422    0.4138 C.2     1  UNL1        0.1374
     13 S           2.4577    1.9757    1.9706 S.2     1  UNL1       -0.0183
     14 N           2.5081    2.6482   -0.6857 N.am    1  UNL1       -0.3079
     15 C           3.2348    3.8053   -1.1389 C.3     1  UNL1        0.0162
     16 C           4.7152    3.8788   -0.9583 C.3     1  UNL1       -0.0139
     17 C           5.3767    5.1318   -1.4134 C.3     1  UNL1        0.0456
     18 O           6.7654    4.9434   -1.1433 O.3     1  UNL1       -0.3950
     19 C           1.0150    2.7304   -0.9215 C.3     1  UNL1        0.0439
     20 C           0.3420    3.9163   -1.6256 C.ar    1  UNL1        0.0347
     21 C          -1.0051    4.0592   -1.5921 C.ar    1  UNL1       -0.0427
     22 C          -1.6381    5.2215   -2.2354 C.ar    1  UNL1        0.0023
     23 C          -2.7856    5.8257   -1.7405 C.ar    1  UNL1       -0.0108
     24 C          -3.3238    6.9326   -2.4028 C.ar    1  UNL1        0.1208
     25 O          -4.5154    7.3811   -1.9006 O.3     1  UNL1       -0.4951
     26 C          -5.1859    8.3666   -2.6790 C.3     1  UNL1        0.0788
     27 C          -2.6518    7.4859   -3.5019 C.ar    1  UNL1       -0.0180
     28 C          -1.4985    6.8828   -4.0092 C.ar    1  UNL1       -0.0343
     29 C          -1.0086    5.7496   -3.3705 C.ar    1  UNL1        0.0494
     30 N           0.2430    5.1895   -3.6935 N.ar    1  UNL1       -0.3218
     31 C           0.9814    4.9385   -2.5447 C.ar    1  UNL1        0.2539
     32 O           1.9455    5.6296   -2.3103 O.2     1  UNL1       -0.2675
     33 H           0.7055   -0.1230   -1.1400 H       1  UNL1        0.0661
     34 H           0.7252    0.1446    0.5986 H       1  UNL1        0.0661
     35 H           0.5376   -1.5040   -0.0527 H       1  UNL1        0.0661
     36 H           4.8844   -2.7902    1.8440 H       1  UNL1        0.0626
     37 H           7.3133   -2.4195    2.1891 H       1  UNL1        0.0618
     38 H           8.3962   -0.3488    1.3584 H       1  UNL1        0.0618
     39 H           7.0060    1.4451    0.4356 H       1  UNL1        0.0636
     40 H           5.0483    2.0739   -0.1740 H       1  UNL1        0.1538
     41 H           2.8047    4.6225   -0.5532 H       1  UNL1        0.0465
     42 H           3.0738    3.8216   -2.2156 H       1  UNL1        0.0465
     43 H           5.1669    3.0708   -1.5494 H       1  UNL1        0.0302
     44 H           4.9364    3.8022    0.1147 H       1  UNL1        0.0302
     45 H           5.0083    5.9918   -0.8530 H       1  UNL1        0.0557
     46 H           5.2282    5.2681   -2.4853 H       1  UNL1        0.0557
     47 H           6.8541    4.7474   -0.1922 H       1  UNL1        0.2094
     48 H           0.4998    2.5598    0.0311 H       1  UNL1        0.0515
     49 H           0.7757    1.8694   -1.5548 H       1  UNL1        0.0515
     50 H          -1.6679    3.3213   -1.1521 H       1  UNL1        0.0629
     51 H          -3.2452    5.4595   -0.8269 H       1  UNL1        0.0661
     52 H          -6.1884    8.5043   -2.2651 H       1  UNL1        0.0660
     53 H          -5.3019    8.0570   -3.7250 H       1  UNL1        0.0660
     54 H          -4.6545    9.3202   -2.6086 H       1  UNL1        0.0660
     55 H          -2.9967    8.4038   -3.9681 H       1  UNL1        0.0655
     56 H          -0.9805    7.3423   -4.8459 H       1  UNL1        0.0639
     57 H           0.7673    5.6517   -4.4232 H       1  UNL1        0.1689
@<TRIPOS>BOND
     1     1     2    1
     2     2     3    1
     3     3     4    2
     4     3     5    1
     5     5     6   ar
     6     6     7   ar
     7     7     8   ar
     8     8     9   ar
     9     9    10   ar
    10     5    10   ar
    11    10    11    1
    12    11    12    1
    13    12    13    2
    14    12    14    1
    15    14    15    1
    16    15    16    1
    17    16    17    1
    18    17    18    1
    19    14    19    1
    20    19    20    1
    21    20    21   ar
    22    21    22   ar
    23    22    23   ar
    24    23    24   ar
    25    24    25    1
    26    25    26    1
    27    24    27   ar
    28    27    28   ar
    29    28    29   ar
    30    22    29   ar
    31    29    30   ar
    32    30    31   ar
    33    20    31   ar
    34    31    32    2
    35     1    33    1
    36     1    34    1
    37     1    35    1
    38     6    36    1
    39     7    37    1
    40     8    38    1
    41     9    39    1
    42    11    40    1
    43    15    41    1
    44    15    42    1
    45    16    43    1
    46    16    44    1
    47    17    45    1
    48    17    46    1
    49    18    47    1
    50    19    48    1
    51    19    49    1
    52    21    50    1
    53    23    51    1
    54    26    52    1
    55    26    53    1
    56    26    54    1
    57    27    55    1
    58    28    56    1
    59    30    57    1
