@<TRIPOS>MOLECULE
*****
 46 49 0 0 0
SMALL
GASTEIGER

@<TRIPOS>ATOM
      1 C           0.9505    0.0831    0.0999 C.3     1  UNL1       -0.0469
      2 C           2.4711    0.0956    0.0910 C.3     1  UNL1        0.0264
      3 N           2.9857   -0.4422    1.3340 N.ar    1  UNL1       -0.2798
      4 C           2.8565   -1.7936    1.6988 C.ar    1  UNL1        0.2141
      5 N           2.3675   -2.7820    0.8530 N.pl3   1  UNL1       -0.2312
      6 N           2.1134   -2.6422   -0.5970 N.3     1  UNL1       -0.1078
      7 S           1.3657   -3.9340   -1.4723 S.O2    1  UNL1        0.0737
      8 O           2.4619   -4.8770   -1.6998 O.2     1  UNL1       -0.1517
      9 O           0.1512   -4.2719   -0.8061 O.2     1  UNL1       -0.1517
     10 C           1.0042   -3.1661   -3.0321 C.ar    1  UNL1        0.1105
     11 C           0.8567   -3.7146   -4.3074 C.ar    1  UNL1       -0.0316
     12 C           0.7998   -2.8246   -5.5038 C.ar    1  UNL1       -0.0144
     13 C           0.9692   -1.4046   -5.3631 C.ar    1  UNL1        0.1622
     14 C           0.8053   -1.0561   -4.0680 C.ar    1  UNL1        0.1639
     15 C           0.8827   -1.8253   -2.9521 C.ar    1  UNL1        0.0101
     16 O           0.1661    0.0979   -3.7844 O.3     1  UNL1       -0.4849
     17 C           1.1757    1.0506   -3.8454 C.3     1  UNL1        0.1237
     18 C           1.3621    1.1720   -5.3517 C.3     1  UNL1        0.1237
     19 O           1.1220   -0.2420   -6.1568 O.3     1  UNL1       -0.4849
     20 N           3.1643   -2.1847    2.9119 N.ar    1  UNL1       -0.2146
     21 C           3.6866   -1.2636    3.8367 C.ar    1  UNL1        0.0798
     22 C           4.1663   -1.7042    5.0711 C.ar    1  UNL1       -0.0354
     23 C           4.9008   -0.8390    5.8942 C.ar    1  UNL1       -0.0597
     24 C           4.9344    0.5272    5.6254 C.ar    1  UNL1       -0.0609
     25 C           4.3467    1.0027    4.4644 C.ar    1  UNL1       -0.0474
     26 C           3.8175    0.0871    3.5487 C.ar    1  UNL1        0.0650
     27 C           3.4383    0.5356    2.2181 C.ar    1  UNL1        0.2630
     28 O           3.5508    1.7291    1.9416 O.2     1  UNL1       -0.2669
     29 H           0.5646    0.3994   -0.8688 H       1  UNL1        0.0247
     30 H           0.5653    0.7663    0.8594 H       1  UNL1        0.0247
     31 H           0.5312   -0.9011    0.3349 H       1  UNL1        0.0247
     32 H           2.8041    1.1253   -0.0749 H       1  UNL1        0.0491
     33 H           2.9280   -0.4350   -0.7406 H       1  UNL1        0.0491
     34 H           2.1779   -3.6953    1.2629 H       1  UNL1        0.1708
     35 H           2.8531   -2.2006   -1.1421 H       1  UNL1        0.1716
     36 H           0.7618   -4.8050   -4.3688 H       1  UNL1        0.0638
     37 H           0.5428   -3.3654   -6.4285 H       1  UNL1        0.0656
     38 H           0.7534   -1.2793   -2.0416 H       1  UNL1        0.0675
     39 H           2.1125    0.8191   -3.2983 H       1  UNL1        0.0731
     40 H           0.6858    1.8336   -3.2625 H       1  UNL1        0.0731
     41 H           2.3510    1.6076   -5.5842 H       1  UNL1        0.0731
     42 H           0.6172    1.9238   -5.6741 H       1  UNL1        0.0731
     43 H           4.0021   -2.7311    5.3858 H       1  UNL1        0.0639
     44 H           5.4561   -1.2345    6.7407 H       1  UNL1        0.0618
     45 H           5.4231    1.2179    6.3066 H       1  UNL1        0.0618
     46 H           4.3469    2.0669    4.2406 H       1  UNL1        0.0626
@<TRIPOS>BOND
     1     1     2    1
     2     2     3    1
     3     3     4   ar
     4     4     5    1
     5     5     6    1
     6     6     7    1
     7     7     8    2
     8     7     9    2
     9     7    10    1
    10    10    11   ar
    11    11    12   ar
    12    12    13   ar
    13    13    14   ar
    14    14    15   ar
    15    10    15   ar
    16    14    16    1
    17    16    17    1
    18    17    18    1
    19    18    19    1
    20    13    19    1
    21     4    20   ar
    22    20    21   ar
    23    21    22   ar
    24    22    23   ar
    25    23    24   ar
    26    24    25   ar
    27    25    26   ar
    28    21    26   ar
    29    26    27   ar
    30     3    27   ar
    31    27    28    2
    32     1    29    1
    33     1    30    1
    34     1    31    1
    35     2    32    1
    36     2    33    1
    37     5    34    1
    38     6    35    1
    39    11    36    1
    40    12    37    1
    41    15    38    1
    42    17    39    1
    43    17    40    1
    44    18    41    1
    45    18    42    1
    46    22    43    1
    47    23    44    1
    48    24    45    1
    49    25    46    1
