@<TRIPOS>MOLECULE
*****
 58 62 0 0 0
SMALL
GASTEIGER

@<TRIPOS>ATOM
      1 O           0.9704   -0.1079   -0.3805 O.2     1  UNL1       -0.2741
      2 C           2.1872   -0.0311   -0.2362 C.2     1  UNL1        0.2313
      3 C           2.8979    0.0582    1.1280 C.3     1  UNL1        0.0761
      4 N           2.0257    0.1371    2.3115 N.3     1  UNL1       -0.2916
      5 C           2.3489   -0.9894    3.2415 C.3     1  UNL1        0.0122
      6 C           3.7378   -0.8782    3.9577 C.3     1  UNL1        0.0123
      7 N           3.9439    0.4392    4.6237 N.3     1  UNL1       -0.2905
      8 C           2.9793    0.5804    5.7325 C.3     1  UNL1        0.0846
      9 C           3.0128    1.9284    6.4329 C.ar    1  UNL1        0.2036
     10 C           2.6847    3.0857    5.8282 C.ar    1  UNL1        0.0715
     11 C           2.8949    4.3505    6.4806 C.ar    1  UNL1        0.2664
     12 O           2.7973    5.4352    5.9461 O.2     1  UNL1       -0.2669
     13 N           3.2198    4.2181    7.8246 N.ar    1  UNL1       -0.2234
     14 C           3.3304    5.2811    8.6885 C.ar    1  UNL1        0.0259
     15 C           3.5919    4.9083    9.9484 C.ar    1  UNL1        0.0001
     16 S           3.7639    3.1726   10.1133 S.2     1  UNL1       -0.0067
     17 C           3.4308    3.0568    8.4140 C.ar    1  UNL1        0.3317
     18 N           3.3767    1.9212    7.7632 N.ar    1  UNL1       -0.1856
     19 C           3.7655    1.4551    3.5599 C.3     1  UNL1        0.0123
     20 C           2.3241    1.4221    2.9550 C.3     1  UNL1        0.0122
     21 N           3.0635    0.0817   -1.3361 N.am    1  UNL1       -0.2843
     22 C           4.4531   -0.1244   -1.1865 C.ar    1  UNL1        0.0371
     23 C           5.5372    0.4658   -1.7579 C.ar    1  UNL1       -0.0368
     24 C           6.9717    0.1705   -1.1317 C.ar    1  UNL1       -0.0145
     25 C           7.0347   -0.6064    0.0878 C.ar    1  UNL1        0.1620
     26 C           6.1868   -1.5127   -0.3001 C.ar    1  UNL1        0.1637
     27 C           4.8269   -1.2335   -0.4751 C.ar    1  UNL1        0.0049
     28 O           6.5270   -2.7984   -0.7718 O.3     1  UNL1       -0.4881
     29 C           6.3550   -3.6714    0.3412 C.3     1  UNL1        0.0928
     30 C           7.6423   -3.8384    0.9819 C.3     1  UNL1        0.0157
     31 C           7.6140   -2.4640    1.8089 C.3     1  UNL1        0.0928
     32 O           7.7712   -1.2550    0.8815 O.3     1  UNL1       -0.4882
     33 H           3.5656    0.9264    1.0422 H       1  UNL1        0.0522
     34 H           3.5209   -0.8090    1.2960 H       1  UNL1        0.0522
     35 H           2.2847   -1.9513    2.7163 H       1  UNL1        0.0439
     36 H           1.5577   -1.0416    3.9985 H       1  UNL1        0.0439
     37 H           4.5493   -1.0204    3.2273 H       1  UNL1        0.0439
     38 H           3.8701   -1.6958    4.6772 H       1  UNL1        0.0439
     39 H           3.2190   -0.2025    6.4671 H       1  UNL1        0.0536
     40 H           1.9406    0.3855    5.4492 H       1  UNL1        0.0536
     41 H           2.3287    3.1816    4.8129 H       1  UNL1        0.0735
     42 H           3.1893    6.2976    8.3350 H       1  UNL1        0.0821
     43 H           3.6872    5.5859   10.7857 H       1  UNL1        0.0710
     44 H           3.5769    1.0618    8.2685 H       1  UNL1        0.4553
     45 H           4.5338    1.2834    2.7932 H       1  UNL1        0.0439
     46 H           4.0385    2.4558    3.9058 H       1  UNL1        0.0439
     47 H           2.1874    2.2560    2.2546 H       1  UNL1        0.0439
     48 H           1.5511    1.5759    3.7146 H       1  UNL1        0.0439
     49 H           2.6242    0.1550   -2.2499 H       1  UNL1        0.1548
     50 H           5.4321    1.1275   -2.6299 H       1  UNL1        0.0637
     51 H           7.6608    0.8191   -1.5857 H       1  UNL1        0.0656
     52 H           4.1084   -1.9804   -0.1752 H       1  UNL1        0.0674
     53 H           5.7521   -4.5279    0.0422 H       1  UNL1        0.0697
     54 H           5.5804   -3.1741    0.9216 H       1  UNL1        0.0697
     55 H           8.5982   -3.8825    1.5285 H       1  UNL1        0.0331
     56 H           8.3197   -3.8012    0.0863 H       1  UNL1        0.0331
     57 H           7.9513   -2.1112    2.8689 H       1  UNL1        0.0697
     58 H           6.4755   -2.7418    2.5243 H       1  UNL1        0.0697
@<TRIPOS>UNITY_ATOM_ATTR
18 1
charge 1
@<TRIPOS>BOND
     1     1     2    2
     2     2     3    1
     3     3     4    1
     4     4     5    1
     5     5     6    1
     6     6     7    1
     7     7     8    1
     8     8     9    1
     9     9    10   ar
    10    10    11   ar
    11    11    12    2
    12    11    13   ar
    13    13    14   ar
    14    14    15   ar
    15    15    16   ar
    16    16    17   ar
    17    13    17   ar
    18    17    18   ar
    19     9    18   ar
    20     7    19    1
    21    19    20    1
    22     4    20    1
    23     2    21   am
    24    21    22    1
    25    22    23   ar
    26    23    24   ar
    27    24    25   ar
    28    25    26   ar
    29    26    27   ar
    30    22    27   ar
    31    26    28    1
    32    28    29    1
    33    29    30    1
    34    30    31    1
    35    31    32    1
    36    25    32    1
    37     3    33    1
    38     3    34    1
    39     5    35    1
    40     5    36    1
    41     6    37    1
    42     6    38    1
    43     8    39    1
    44     8    40    1
    45    10    41    1
    46    14    42    1
    47    15    43    1
    48    18    44    1
    49    19    45    1
    50    19    46    1
    51    20    47    1
    52    20    48    1
    53    21    49    1
    54    23    50    1
    55    24    51    1
    56    27    52    1
    57    29    53    1
    58    29    54    1
    59    30    55    1
    60    30    56    1
    61    31    57    1
    62    31    58    1
