REMARK  7 active torsions:
REMARK  status: ('A' for Active; 'I' for Inactive)
REMARK    1  A    between atoms: O_2  and  C_3 
REMARK    2  A    between atoms: C_6  and  N_7 
REMARK       I    between atoms: N_7  and  C_8 
REMARK       I    between atoms: C_8  and  N_19 
REMARK       I    between atoms: N_9  and  C_10 
REMARK    3  A    between atoms: C_10  and  C_12 
REMARK    4  A    between atoms: N_19  and  C_20 
REMARK    5  A    between atoms: C_20  and  C_21 
REMARK    6  A    between atoms: C_21  and  C_22 
REMARK    7  A    between atoms: C_32  and  O_33 
ROOT
ATOM      1  N   UNL d   1       5.689  -4.046   1.911  0.00  0.00    -0.190 N 
ATOM      2  C   UNL d   1       5.269  -5.396   1.855  0.00  0.00     0.704 C 
ATOM      3  N   UNL d   1       4.198  -5.943   1.347  0.00  0.00    -0.023 NA
ATOM      4  C   UNL d   1       3.050  -5.192   1.315  0.00  0.00     0.293 C 
ATOM      5  O   UNL d   1       2.683  -4.523   2.252  0.00  0.00    -0.265 OA
ATOM      6  N   UNL d   1       6.132  -6.342   2.438  0.00  0.00    -0.224 N 
ATOM      7  H   UNL d   1       6.414  -3.823   2.579  0.00  0.00     0.184 HD
ATOM      8  H   UNL d   1       6.827  -6.045   3.113  0.00  0.00     0.177 HD
ENDROOT
BRANCH   1   9
ATOM      9  C   UNL d   1       5.042  -2.870   1.385  0.00  0.00     0.052 C 
ATOM     10  C   UNL d   1       5.292  -1.563   1.778  0.00  0.00     0.033 C 
ATOM     11  C   UNL d   1       4.404  -0.493   1.395  0.00  0.00     0.042 C 
ATOM     12  C   UNL d   1       3.191  -0.696   0.699  0.00  0.00     0.101 C 
ATOM     13  C   UNL d   1       2.959  -1.995   0.330  0.00  0.00     0.103 C 
ATOM     14  C   UNL d   1       4.029  -2.929   0.445  0.00  0.00     0.069 C 
BRANCH  12  15
ATOM     15  O   UNL d   1       2.603   0.425   0.170  0.00  0.00    -0.353 OA
ATOM     16  C   UNL d   1       1.205   0.690   0.227  0.00  0.00     0.210 C 
ENDBRANCH  12  15
BRANCH  13  17
ATOM     17  O   UNL d   1       1.806  -2.617  -0.026  0.00  0.00    -0.353 OA
ATOM     18  C   UNL d   1       0.693  -1.937  -0.518  0.00  0.00     0.210 C 
ENDBRANCH  13  17
ENDBRANCH   1   9
BRANCH   6  19
ATOM     19  C   UNL d   1       5.675  -7.757   2.534  0.00  0.00     0.142 C 
BRANCH  19  20
ATOM     20  C   UNL d   1       6.634  -8.691   3.256  0.00  0.00     0.057 C 
BRANCH  20  21
ATOM     21  C   UNL d   1       6.314 -10.170   3.270  0.00  0.00    -0.048 A 
ATOM     22  C   UNL d   1       7.186 -11.030   3.800  0.00  0.00    -0.006 A 
ATOM     23  C   UNL d   1       8.456 -10.798   4.387  0.00  0.00     0.014 C 
ATOM     24  C   UNL d   1       6.640 -12.379   3.617  0.00  0.00     0.038 A 
ATOM     25  C   UNL d   1       9.231 -11.851   4.655  0.00  0.00     0.001 C 
ATOM     26  C   UNL d   1       8.730 -13.209   4.510  0.00  0.00     0.002 C 
ATOM     27  C   UNL d   1       7.501 -13.511   4.035  0.00  0.00     0.030 C 
ATOM     28  N   UNL d   1       5.475 -12.338   3.089  0.00  0.00    -0.385 N 
ATOM     29  C   UNL d   1       5.127 -10.921   2.719  0.00  0.00     0.155 A 
ATOM     30  H   UNL d   1       4.903 -13.174   2.960  0.00  0.00     0.160 HD
ENDBRANCH  20  21
ENDBRANCH  19  20
ENDBRANCH   6  19
BRANCH   4  31
ATOM     31  C   UNL d   1       2.049  -5.516   0.239  0.00  0.00     0.035 C 
ATOM     32  C   UNL d   1       1.838  -4.926  -1.035  0.00  0.00     0.019 C 
ATOM     33  C   UNL d   1       0.561  -4.978  -1.624  0.00  0.00     0.025 C 
ATOM     34  C   UNL d   1      -0.424  -5.755  -1.032  0.00  0.00     0.034 C 
ATOM     35 CL   UNL d   1      -1.946  -5.953  -1.799  0.00  0.00    -0.084 Cl
ATOM     36  C   UNL d   1      -0.179  -6.406   0.172  0.00  0.00     0.025 C 
ATOM     37  C   UNL d   1       1.040  -6.268   0.810  0.00  0.00     0.019 C 
ENDBRANCH   4  31
TORSDOF 7
