REMARK  12 active torsions:
REMARK  status: ('A' for Active; 'I' for Inactive)
REMARK    1  A    between atoms: C_2  and  C_3 
REMARK    2  A    between atoms: C_3  and  N_4 
REMARK    3  A    between atoms: N_4  and  C_5 
REMARK    4  A    between atoms: N_4  and  C_27 
REMARK    5  A    between atoms: C_5  and  C_6 
REMARK    6  A    between atoms: N_10  and  C_11 
REMARK    7  A    between atoms: C_17  and  O_18 
REMARK    8  A    between atoms: O_18  and  C_19 
REMARK    9  A    between atoms: C_24  and  O_25 
REMARK   10  A    between atoms: C_28  and  C_27 
REMARK   11  A    between atoms: C_28  and  C_30 
REMARK   12  A    between atoms: C_28  and  O_29 
ROOT
ATOM      1  C   UNL d   1       6.650   0.464   3.139  0.00  0.00     0.047 A 
ATOM      2  C   UNL d   1       5.749   0.958   4.164  0.00  0.00     0.063 A 
ATOM      3  C   UNL d   1       4.705   0.197   4.968  0.00  0.00     0.073 C 
ATOM      4  N   UNL d   1       5.775   2.299   4.235  0.00  0.00    -0.170 NA
ATOM      5  N   UNL d   1       6.654   2.705   3.283  0.00  0.00    -0.210 N 
ATOM      6  C   UNL d   1       7.258   1.626   2.632  0.00  0.00     0.181 A 
ENDROOT
BRANCH   1   7
ATOM      7  C   UNL d   1       6.817  -0.955   2.642  0.00  0.00     0.280 C 
BRANCH   7   8
ATOM      8  N   UNL d   1       6.139  -1.311   1.297  0.00  0.00    -0.065 N 
ATOM      9  H   UNL d   1       6.472  -0.593   0.660  0.00  0.00     0.280 HD
BRANCH   8  10
ATOM     10  C   UNL d   1       4.645  -1.207   1.153  0.00  0.00     0.235 C 
BRANCH  10  11
ATOM     11  C   UNL d   1       3.995  -0.003   1.783  0.00  0.00     0.023 C 
ATOM     12  C   UNL d   1       2.521   0.096   1.530  0.00  0.00     0.007 C 
ENDBRANCH  10  11
ENDBRANCH   8  10
BRANCH   8  13
ATOM     13  C   UNL d   1       6.692  -2.603   0.648  0.00  0.00     0.266 C 
BRANCH  13  14
ATOM     14  C   UNL d   1       6.259  -2.805  -0.852  0.00  0.00     0.143 C 
BRANCH  14  15
ATOM     15  C   UNL d   1       6.906  -4.040  -1.501  0.00  0.00     0.029 C 
ATOM     16  C   UNL d   1       8.426  -4.055  -1.554  0.00  0.00     0.007 C 
ENDBRANCH  14  15
BRANCH  14  17
ATOM     17  O   UNL d   1       4.840  -2.962  -0.967  0.00  0.00    -0.394 OA
ATOM     18  H   UNL d   1       4.543  -3.711  -0.425  0.00  0.00     0.210 HD
ENDBRANCH  14  17
ENDBRANCH  13  14
ENDBRANCH   8  13
ENDBRANCH   7   8
ENDBRANCH   1   7
BRANCH   6  19
ATOM     19  O   UNL d   1       8.134   1.905   1.652  0.00  0.00    -0.288 OA
BRANCH  19  20
ATOM     20  C   UNL d   1       8.709   0.964   0.845  0.00  0.00     0.111 C 
ATOM     21  C   UNL d   1      10.024   0.615   1.141  0.00  0.00     0.040 C 
ATOM     22  C   UNL d   1      10.671  -0.424   0.475  0.00  0.00     0.003 C 
ATOM     23  C   UNL d   1       9.982  -1.140  -0.499  0.00  0.00     0.003 C 
ATOM     24  C   UNL d   1       8.756  -0.671  -0.914  0.00  0.00     0.039 C 
ATOM     25  C   UNL d   1       8.094   0.382  -0.276  0.00  0.00     0.102 C 
BRANCH  25  26
ATOM     26  O   UNL d   1       6.825   0.532  -0.762  0.00  0.00    -0.353 OA
ATOM     27  C   UNL d   1       6.003   1.551  -0.240  0.00  0.00     0.210 C 
ENDBRANCH  25  26
ENDBRANCH  19  20
ENDBRANCH   6  19
BRANCH   5  28
ATOM     28  C   UNL d   1       6.832   4.083   2.932  0.00  0.00     0.061 A 
ATOM     29  C   UNL d   1       7.337   4.980   3.880  0.00  0.00     0.031 A 
ATOM     30  C   UNL d   1       7.643   6.295   3.489  0.00  0.00     0.002 A 
ATOM     31  C   UNL d   1       7.475   6.722   2.173  0.00  0.00     0.000 A 
ATOM     32  C   UNL d   1       6.961   5.837   1.228  0.00  0.00     0.002 A 
ATOM     33  C   UNL d   1       6.634   4.536   1.621  0.00  0.00     0.031 A 
ENDBRANCH   5  28
TORSDOF 12
