@<TRIPOS>MOLECULE
*****
 28 29 0 0 0
SMALL
GASTEIGER

@<TRIPOS>ATOM
      1 O           0.9373   -0.0119   -0.1533 O.2     1  UNL1       -0.2698
      2 C           2.1637   -0.0204   -0.0193 C.2     1  UNL1        0.2485
      3 N           2.8468    0.4543    1.1004 N.am    1  UNL1       -0.2815
      4 C           2.1496    0.9471    2.2373 C.ar    1  UNL1        0.0351
      5 C           1.0580    0.2355    2.7507 C.ar    1  UNL1       -0.0404
      6 C           0.3243    0.7195    3.8365 C.ar    1  UNL1       -0.0586
      7 C           0.6591    1.9422    4.4082 C.ar    1  UNL1       -0.0433
      8 C           1.7550    2.6498    3.9138 C.ar    1  UNL1        0.0427
      9 CL          2.1256    4.1891    4.5977 Cl      1  UNL1       -0.0835
     10 C           2.5279    2.1435    2.8565 C.ar    1  UNL1       -0.0221
     11 C           2.9633   -0.5139   -1.1723 C.ar    1  UNL1        0.0439
     12 C           2.5820   -0.1610   -2.4819 C.ar    1  UNL1       -0.0078
     13 C           3.2478   -0.7252   -3.5714 C.ar    1  UNL1        0.1210
     14 O           2.9357   -0.4049   -4.8615 O.3     1  UNL1       -0.5066
     15 C           4.2620   -1.6578   -3.3817 C.ar    1  UNL1        0.0213
     16 C           4.6215   -2.0082   -2.0833 C.ar    1  UNL1        0.1210
     17 O           5.5932   -2.9363   -1.8449 O.3     1  UNL1       -0.5066
     18 C           3.9908   -1.4397   -0.9763 C.ar    1  UNL1       -0.0078
     19 H           3.8227    0.7067    0.9935 H       1  UNL1        0.1551
     20 H           0.7769   -0.7198    2.3140 H       1  UNL1        0.0636
     21 H          -0.5167    0.1464    4.2179 H       1  UNL1        0.0619
     22 H           0.0609    2.3364    5.2264 H       1  UNL1        0.0632
     23 H           3.3612    2.7317    2.4844 H       1  UNL1        0.0651
     24 H           1.7579    0.5318   -2.6334 H       1  UNL1        0.0662
     25 H           2.2244    0.2573   -4.8726 H       1  UNL1        0.2921
     26 H           4.7438   -2.1013   -4.2484 H       1  UNL1        0.0691
     27 H           5.9224   -3.2741   -2.6956 H       1  UNL1        0.2921
     28 H           4.2659   -1.7699    0.0201 H       1  UNL1        0.0662
@<TRIPOS>BOND
     1     1     2    2
     2     2     3   am
     3     3     4    1
     4     4     5   ar
     5     5     6   ar
     6     6     7   ar
     7     7     8   ar
     8     8     9    1
     9     8    10   ar
    10     4    10   ar
    11     2    11    1
    12    11    12   ar
    13    12    13   ar
    14    13    14    1
    15    13    15   ar
    16    15    16   ar
    17    16    17    1
    18    16    18   ar
    19    11    18   ar
    20     3    19    1
    21     5    20    1
    22     6    21    1
    23     7    22    1
    24    10    23    1
    25    12    24    1
    26    14    25    1
    27    15    26    1
    28    17    27    1
    29    18    28    1
