REMARK  4 active torsions:
REMARK  status: ('A' for Active; 'I' for Inactive)
REMARK       I    between atoms: C_2  and  N_3 
REMARK    1  A    between atoms: C_2  and  C_17 
REMARK    2  A    between atoms: N_3  and  N_4 
REMARK    3  A    between atoms: C_5  and  C_6 
REMARK    4  A    between atoms: C_7  and  O_8 
ROOT
ATOM      1  O   UNL d   1       1.054  -0.185  -0.053  0.00  0.00    -0.266 OA
ATOM      2  C   UNL d   1       2.273  -0.028  -0.023  0.00  0.00     0.274 C 
ATOM      3  N   UNL d   1       2.980   0.928  -0.745  0.00  0.00    -0.243 N 
ATOM      4  H   UNL d   1       3.993   0.852  -0.757  0.00  0.00     0.192 HD
ENDROOT
BRANCH   3   5
ATOM      5  N   UNL d   1       2.362   1.782  -1.631  0.00  0.00    -0.183 NA
ATOM      6  C   UNL d   1       3.079   2.560  -2.400  0.00  0.00     0.153 C 
BRANCH   6   7
ATOM      7  C   UNL d   1       4.554   2.565  -2.559  0.00  0.00     0.027 A 
ATOM      8  C   UNL d   1       5.202   1.327  -2.668  0.00  0.00     0.078 A 
ATOM      9  C   UNL d   1       6.580   1.250  -2.753  0.00  0.00     0.038 A 
ATOM     10  C   UNL d   1       7.329   2.419  -2.821  0.00  0.00     0.015 A 
ATOM     11  C   UNL d   1       6.711   3.677  -2.778  0.00  0.00    -0.025 A 
ATOM     12  C   UNL d   1       7.501   4.835  -2.871  0.00  0.00     0.012 A 
ATOM     13  C   UNL d   1       5.300   3.776  -2.631  0.00  0.00    -0.011 A 
ATOM     14  C   UNL d   1       6.926   6.101  -2.808  0.00  0.00     0.001 A 
ATOM     15  C   UNL d   1       5.552   6.223  -2.639  0.00  0.00     0.001 A 
ATOM     16  C   UNL d   1       4.748   5.080  -2.550  0.00  0.00     0.013 A 
BRANCH   8  17
ATOM     17  O   UNL d   1       4.536   0.130  -2.663  0.00  0.00    -0.360 OA
ATOM     18  H   UNL d   1       3.566   0.288  -2.604  0.00  0.00     0.217 HD
ENDBRANCH   8  17
ENDBRANCH   6   7
ENDBRANCH   3   5
BRANCH   2  19
ATOM     19  C   UNL d   1       3.121  -0.949   0.796  0.00  0.00     0.061 A 
ATOM     20  C   UNL d   1       2.772  -2.306   0.942  0.00  0.00     0.019 A 
ATOM     21  C   UNL d   1       3.573  -3.192   1.670  0.00  0.00     0.002 A 
ATOM     22  C   UNL d   1       4.739  -2.747   2.297  0.00  0.00     0.014 A 
ATOM     23  C   UNL d   1       5.082  -1.385   2.219  0.00  0.00    -0.007 A 
ATOM     24  C   UNL d   1       6.136  -0.618   2.783  0.00  0.00     0.030 A 
ATOM     25  C   UNL d   1       4.277  -0.514   1.476  0.00  0.00     0.058 A 
ATOM     26  C   UNL d   1       5.944   0.691   2.410  0.00  0.00     0.089 A 
ATOM     27  N   UNL d   1       4.828   0.744   1.622  0.00  0.00    -0.364 N 
ATOM     28  H   UNL d   1       4.436   1.591   1.231  0.00  0.00     0.165 HD
ENDBRANCH   2  19
TORSDOF 4
