@<TRIPOS>MOLECULE
*****
 56 59 0 0 0
SMALL
GASTEIGER

@<TRIPOS>ATOM
      1 C           0.9643    0.0268    0.0024 C.3     1  UNL1        0.0125
      2 C           2.4624   -0.0309   -0.0721 C.2     1  UNL1        0.2141
      3 O           3.0011   -0.5119   -1.0679 O.2     1  UNL1       -0.2758
      4 N           3.1301    0.4332    1.0567 N.am    1  UNL1       -0.2857
      5 C           4.5327    0.5251    1.0991 C.ar    1  UNL1        0.0335
      6 C           5.2887    0.2900    2.2580 C.ar    1  UNL1       -0.0387
      7 C           6.6981    0.4613    2.2556 C.ar    1  UNL1       -0.0387
      8 C           7.3367    0.8534    1.0748 C.ar    1  UNL1        0.0335
      9 N           8.7460    0.9930    0.9555 N.am    1  UNL1       -0.2848
     10 C           9.3044    1.3691   -0.3085 C.2     1  UNL1        0.2274
     11 O           8.7452    1.5258   -1.3264 O.2     1  UNL1       -0.2746
     12 C          10.7975    1.3894   -0.3563 C.3     1  UNL1        0.0766
     13 S          11.4757    1.9266   -1.9801 S.3     1  UNL1       -0.0932
     14 C          13.2700    1.8793   -1.8050 C.ar    1  UNL1        0.1379
     15 N          14.0160    2.7377   -2.5414 N.ar    1  UNL1       -0.2355
     16 C          15.4315    2.5151   -2.5876 C.ar    1  UNL1        0.0906
     17 C          16.4204    2.2978   -1.5162 C.ar    1  UNL1       -0.0342
     18 C          17.8131    2.0435   -1.7131 C.ar    1  UNL1       -0.0596
     19 C          18.2535    2.0680   -2.9924 C.ar    1  UNL1       -0.0596
     20 C          17.1948    1.9062   -3.8879 C.ar    1  UNL1       -0.0342
     21 C          15.7759    1.5468   -3.3141 C.ar    1  UNL1        0.0914
     22 N          15.0874    0.4650   -2.4706 N.ar    1  UNL1       -0.2278
     23 C          13.9834    0.7770   -1.4390 C.ar    1  UNL1        0.1541
     24 N          14.0486    0.4254    0.1075 N.pl3   1  UNL1       -0.3131
     25 C          14.1344    1.3417    1.4462 C.3     1  UNL1        0.0136
     26 C          14.3589    0.3164    2.6768 C.3     1  UNL1       -0.0371
     27 C          13.2536   -0.7424    2.8512 C.3     1  UNL1       -0.0502
     28 C          12.9288   -1.3670    1.4999 C.3     1  UNL1       -0.0371
     29 C          12.8274   -0.3319    0.4166 C.3     1  UNL1        0.0136
     30 C           6.5334    1.1065   -0.0301 C.ar    1  UNL1       -0.0387
     31 C           5.1767    0.9324   -0.0423 C.ar    1  UNL1       -0.0387
     32 H           0.5623   -0.4275   -0.9112 H       1  UNL1        0.0323
     33 H           0.6145    1.0599    0.0504 H       1  UNL1        0.0323
     34 H           0.6038   -0.5498    0.8557 H       1  UNL1        0.0323
     35 H           2.6189    0.7012    1.8852 H       1  UNL1        0.1548
     36 H           4.8045   -0.0987    3.1495 H       1  UNL1        0.0637
     37 H           7.2505    0.2980    3.1782 H       1  UNL1        0.0637
     38 H           9.3113    0.7060    1.7467 H       1  UNL1        0.1548
     39 H          10.8855    0.3110   -0.2842 H       1  UNL1        0.0475
     40 H          11.2148    1.9900    0.4506 H       1  UNL1        0.0475
     41 H          16.1000    1.6208   -0.6989 H       1  UNL1        0.0639
     42 H          18.4477    1.7615   -0.8786 H       1  UNL1        0.0618
     43 H          19.3140    2.1867   -3.2242 H       1  UNL1        0.0618
     44 H          17.4310    2.3301   -4.8884 H       1  UNL1        0.0639
     45 H          13.1942    1.8818    1.7097 H       1  UNL1        0.0464
     46 H          14.9333    2.0949    1.4838 H       1  UNL1        0.0464
     47 H          14.4951    0.8088    3.6541 H       1  UNL1        0.0280
     48 H          15.2807   -0.2302    2.4639 H       1  UNL1        0.0280
     49 H          12.3593   -0.3040    3.3285 H       1  UNL1        0.0266
     50 H          13.5600   -1.5505    3.5311 H       1  UNL1        0.0266
     51 H          11.9500   -1.8582    1.5850 H       1  UNL1        0.0280
     52 H          13.6800   -2.0888    1.1994 H       1  UNL1        0.0280
     53 H          12.1531    0.3458    0.9530 H       1  UNL1        0.0464
     54 H          12.3920   -0.7700   -0.4737 H       1  UNL1        0.0464
     55 H           6.8813    1.4686   -0.9795 H       1  UNL1        0.0637
     56 H           4.6701    1.1672   -0.9725 H       1  UNL1        0.0637
@<TRIPOS>BOND
     1     1     2    1
     2     2     3    2
     3     2     4   am
     4     4     5    1
     5     5     6   ar
     6     6     7   ar
     7     7     8   ar
     8     8     9    1
     9     9    10   am
    10    10    11    2
    11    10    12    1
    12    12    13    1
    13    13    14    1
    14    14    15   ar
    15    15    16   ar
    16    16    17   ar
    17    17    18   ar
    18    18    19   ar
    19    19    20   ar
    20    20    21   ar
    21    16    21   ar
    22    21    22   ar
    23    22    23   ar
    24    14    23   ar
    25    23    24    1
    26    24    25    1
    27    25    26    1
    28    26    27    1
    29    27    28    1
    30    28    29    1
    31    24    29    1
    32     8    30   ar
    33    30    31   ar
    34     5    31   ar
    35     1    32    1
    36     1    33    1
    37     1    34    1
    38     4    35    1
    39     6    36    1
    40     7    37    1
    41     9    38    1
    42    12    39    1
    43    12    40    1
    44    17    41    1
    45    18    42    1
    46    19    43    1
    47    20    44    1
    48    25    45    1
    49    25    46    1
    50    26    47    1
    51    26    48    1
    52    27    49    1
    53    27    50    1
    54    28    51    1
    55    28    52    1
    56    29    53    1
    57    29    54    1
    58    30    55    1
    59    31    56    1
