@<TRIPOS>MOLECULE
*****
 46 47 0 0 0
SMALL
GASTEIGER

@<TRIPOS>ATOM
      1 C           1.0079   -0.3350   -0.1804 C.3     1  UNL1        0.0791
      2 O           2.4274   -0.2200   -0.0591 O.3     1  UNL1       -0.4889
      3 C           2.9894    0.9362   -0.5208 C.ar    1  UNL1        0.1972
      4 C           4.1306    0.7843   -1.3445 C.ar    1  UNL1       -0.0129
      5 C           4.8532    1.8954   -1.8442 C.ar    1  UNL1       -0.0542
      6 C           4.4138    3.1955   -1.5823 C.ar    1  UNL1       -0.0320
      7 C           5.0248    4.4234   -2.2808 C.3     1  UNL1        0.0496
      8 C           4.1894    5.7174   -2.1491 C.2     1  UNL1        0.2215
      9 O           2.9875    5.6876   -1.8813 O.2     1  UNL1       -0.2751
     10 N           4.7933    6.9346   -2.4167 N.am    1  UNL1       -0.2849
     11 C           4.0984    8.1377   -2.0630 C.ar    1  UNL1        0.0384
     12 C           3.8798    9.1306   -3.0317 C.ar    1  UNL1       -0.0138
     13 C           3.3538   10.3737   -2.6390 C.ar    1  UNL1        0.1070
     14 S           3.3438   11.7455   -3.7701 S.O2    1  UNL1        0.0560
     15 N           4.9652   11.8372   -4.1717 N.3     1  UNL1       -0.2035
     16 O           2.6159   11.3680   -4.9451 O.2     1  UNL1       -0.1533
     17 O           3.0672   12.9571   -3.0150 O.2     1  UNL1       -0.1533
     18 C           2.9629   10.6074   -1.3221 C.ar    1  UNL1       -0.0321
     19 C           3.1537    9.6213   -0.3529 C.ar    1  UNL1       -0.0439
     20 C           2.8455    9.9417    1.0835 C.3     1  UNL1       -0.0393
     21 C           3.7131    8.3737   -0.7132 C.ar    1  UNL1       -0.0262
     22 C           3.9089    7.3315    0.3661 C.3     1  UNL1       -0.0377
     23 C           3.3527    3.3154   -0.6712 C.ar    1  UNL1        0.0230
     24 C           2.6315    2.2281   -0.1583 C.ar    1  UNL1        0.3144
     25 N           1.5677    2.5763    0.7911 N.pl3   1  UNL1        0.0834
     26 O           0.9735    3.6511    0.6121 O.2     1  UNL1        0.0416
     27 O           1.3393    1.8131    1.7380 O.co2   1  UNL1       -0.5759
     28 H           0.6984   -1.2050    0.4067 H       1  UNL1        0.0660
     29 H           0.7311   -0.4677   -1.2270 H       1  UNL1        0.0660
     30 H           0.4232    0.5005    0.2013 H       1  UNL1        0.0660
     31 H           4.4655   -0.2161   -1.6229 H       1  UNL1        0.0656
     32 H           5.7524    1.7253   -2.4374 H       1  UNL1        0.0622
     33 H           5.0531    4.2155   -3.3581 H       1  UNL1        0.0407
     34 H           6.0561    4.5681   -1.9350 H       1  UNL1        0.0407
     35 H           5.4176    6.9614   -3.2133 H       1  UNL1        0.1548
     36 H           4.0600    8.9358   -4.0860 H       1  UNL1        0.0656
     37 H           5.3012   11.1267   -4.8126 H       1  UNL1        0.1442
     38 H           5.5762   12.2019   -3.4464 H       1  UNL1        0.1442
     39 H           2.5350   11.5686   -1.0383 H       1  UNL1        0.0640
     40 H           2.4627   10.9570    1.2091 H       1  UNL1        0.0278
     41 H           3.7690    9.8694    1.6705 H       1  UNL1        0.0278
     42 H           2.0995    9.2434    1.4746 H       1  UNL1        0.0278
     43 H           3.7298    7.7042    1.3756 H       1  UNL1        0.0278
     44 H           4.9355    6.9582    0.3548 H       1  UNL1        0.0278
     45 H           3.1910    6.5184    0.2561 H       1  UNL1        0.0278
     46 H           3.0334    4.2901   -0.3245 H       1  UNL1        0.0689
@<TRIPOS>UNITY_ATOM_ATTR
25 1
charge 1
27 1
charge -1
@<TRIPOS>BOND
     1     1     2    1
     2     2     3    1
     3     3     4   ar
     4     4     5   ar
     5     5     6   ar
     6     6     7    1
     7     7     8    1
     8     8     9    2
     9     8    10   am
    10    10    11    1
    11    11    12   ar
    12    12    13   ar
    13    13    14    1
    14    14    15    1
    15    14    16    2
    16    14    17    2
    17    13    18   ar
    18    18    19   ar
    19    19    20    1
    20    19    21   ar
    21    11    21   ar
    22    21    22    1
    23     6    23   ar
    24    23    24   ar
    25     3    24   ar
    26    24    25    1
    27    25    26    2
    28    25    27    1
    29     1    28    1
    30     1    29    1
    31     1    30    1
    32     4    31    1
    33     5    32    1
    34     7    33    1
    35     7    34    1
    36    10    35    1
    37    12    36    1
    38    15    37    1
    39    15    38    1
    40    18    39    1
    41    20    40    1
    42    20    41    1
    43    20    42    1
    44    22    43    1
    45    22    44    1
    46    22    45    1
    47    23    46    1
