@<TRIPOS>MOLECULE
*****
 50 53 0 0 0
SMALL
GASTEIGER

@<TRIPOS>ATOM
      1 O           1.5723    1.1617   -0.5923 O.2     1  UNL1        0.0415
      2 N           2.5482    0.4712   -0.2290 N.pl3   1  UNL1        0.0808
      3 O           2.9845   -0.5157   -0.8026 O.co2   1  UNL1       -0.5760
      4 C           3.1631    0.8628    0.9761 C.ar    1  UNL1        0.2869
      5 C           4.3622    1.5481    0.7826 C.ar    1  UNL1        0.0185
      6 C           5.0655    2.0206    1.8698 C.ar    1  UNL1       -0.0342
      7 C           4.5535    1.8914    3.1622 C.ar    1  UNL1        0.0315
      8 N           5.2884    2.4784    4.1794 N.pl3   1  UNL1       -0.3197
      9 C           5.7448    1.7748    5.3720 C.3     1  UNL1        0.0525
     10 C           4.9752    2.3060    6.5983 C.3     1  UNL1       -0.0157
     11 N           5.0868    3.8579    6.7214 N.4     1  UNL1        0.2391
     12 C           4.2257    4.3659    7.8688 C.3     1  UNL1       -0.0081
     13 C           4.4039    5.8650    8.1529 C.3     1  UNL1        0.0841
     14 O           3.5468    6.2716    9.2103 O.3     1  UNL1       -0.3898
     15 C           4.7628    4.5548    5.3744 C.3     1  UNL1       -0.0157
     16 C           5.5537    3.9273    4.2021 C.3     1  UNL1        0.0525
     17 C           3.3074    1.1795    3.3160 C.ar    1  UNL1       -0.0203
     18 C           2.5599    0.6286    2.1971 C.ar    1  UNL1        0.0942
     19 S           1.0029   -0.2703    2.4305 S.3     1  UNL1       -0.0450
     20 C          -0.0260   -0.7742    1.0451 C.ar    1  UNL1        0.1722
     21 N          -1.3273   -0.8196    1.2396 N.ar    1  UNL1       -0.2217
     22 C          -1.8984   -1.2149    0.0557 C.ar    1  UNL1        0.0900
     23 C          -3.2379   -1.1407   -0.3313 C.ar    1  UNL1       -0.0342
     24 C          -3.6441   -1.6777   -1.5545 C.ar    1  UNL1       -0.0596
     25 C          -2.7145   -2.2799   -2.4010 C.ar    1  UNL1       -0.0597
     26 C          -1.3378   -2.2874   -2.0789 C.ar    1  UNL1       -0.0362
     27 C          -0.9616   -1.6861   -0.8468 C.ar    1  UNL1        0.0669
     28 N           0.2214   -1.1790   -0.2816 N.ar    1  UNL1       -0.3326
     29 H           4.7190    1.7233   -0.2287 H       1  UNL1        0.0686
     30 H           6.0344    2.4799    1.6874 H       1  UNL1        0.0638
     31 H           6.8160    1.9904    5.5117 H       1  UNL1        0.0516
     32 H           5.6625    0.6898    5.2624 H       1  UNL1        0.0516
     33 H           5.3791    1.8776    7.5209 H       1  UNL1        0.0830
     34 H           3.9098    2.0763    6.5058 H       1  UNL1        0.0830
     35 H           6.0666    4.0660    6.9577 H       1  UNL1        0.2035
     36 H           4.4957    3.7928    8.7645 H       1  UNL1        0.0837
     37 H           3.1806    4.1405    7.6290 H       1  UNL1        0.0837
     38 H           4.1779    6.4835    7.2807 H       1  UNL1        0.0610
     39 H           5.4327    6.0783    8.4614 H       1  UNL1        0.0610
     40 H           2.6162    6.2266    8.9227 H       1  UNL1        0.2096
     41 H           5.0262    5.6114    5.4793 H       1  UNL1        0.0830
     42 H           3.6848    4.4470    5.2179 H       1  UNL1        0.0830
     43 H           6.6268    4.1028    4.3698 H       1  UNL1        0.0516
     44 H           5.2998    4.4275    3.2605 H       1  UNL1        0.0516
     45 H           2.8970    1.0918    4.3245 H       1  UNL1        0.0649
     46 H          -3.9223   -0.6141    0.3172 H       1  UNL1        0.0639
     47 H          -4.6950   -1.6233   -1.8293 H       1  UNL1        0.0618
     48 H          -3.0747   -2.7059   -3.3411 H       1  UNL1        0.0618
     49 H          -0.6378   -2.7463   -2.7771 H       1  UNL1        0.0639
     50 H           0.7937   -0.6320   -0.9019 H       1  UNL1        0.1679
@<TRIPOS>UNITY_ATOM_ATTR
2 1
charge 1
3 1
charge -1
11 1
charge 1
@<TRIPOS>BOND
     1     1     2    2
     2     2     3    1
     3     2     4    1
     4     4     5   ar
     5     5     6   ar
     6     6     7   ar
     7     7     8    1
     8     8     9    1
     9     9    10    1
    10    10    11    1
    11    11    12    1
    12    12    13    1
    13    13    14    1
    14    11    15    1
    15    15    16    1
    16     8    16    1
    17     7    17   ar
    18    17    18   ar
    19     4    18   ar
    20    18    19    1
    21    19    20    1
    22    20    21   ar
    23    21    22   ar
    24    22    23   ar
    25    23    24   ar
    26    24    25   ar
    27    25    26   ar
    28    26    27   ar
    29    22    27   ar
    30    27    28   ar
    31    20    28   ar
    32     5    29    1
    33     6    30    1
    34     9    31    1
    35     9    32    1
    36    10    33    1
    37    10    34    1
    38    11    35    1
    39    12    36    1
    40    12    37    1
    41    13    38    1
    42    13    39    1
    43    14    40    1
    44    15    41    1
    45    15    42    1
    46    16    43    1
    47    16    44    1
    48    17    45    1
    49    23    46    1
    50    24    47    1
    51    25    48    1
    52    26    49    1
    53    28    50    1
