REMARK  10 active torsions:
REMARK  status: ('A' for Active; 'I' for Inactive)
REMARK    1  A    between atoms: C_2  and  C_3 
REMARK       I    between atoms: C_2  and  N_18 
REMARK    2  A    between atoms: C_3  and  N_4 
REMARK    3  A    between atoms: N_4  and  C_5 
REMARK    4  A    between atoms: C_8  and  O_9 
REMARK    5  A    between atoms: O_9  and  C_10 
REMARK    6  A    between atoms: C_10  and  C_11 
REMARK    7  A    between atoms: N_18  and  C_19 
REMARK    8  A    between atoms: C_23  and  C_24 
REMARK       I    between atoms: C_24  and  N_26 
REMARK    9  A    between atoms: N_26  and  C_27 
REMARK   10  A    between atoms: C_31  and  C_32 
ROOT
ATOM      1  C   UNL d   1       4.356  -1.100   0.511  0.00  0.00     0.035 A 
ATOM      2  C   UNL d   1       5.053  -2.277   0.249  0.00  0.00     0.029 A 
ATOM      3  C   UNL d   1       6.444  -2.307   0.404  0.00  0.00     0.003 A 
ATOM      4  C   UNL d   1       7.138  -1.151   0.776  0.00  0.00     0.017 A 
ATOM      5  C   UNL d   1       6.440   0.021   1.083  0.00  0.00     0.034 A 
ATOM      6  C   UNL d   1       5.054   0.011   0.978  0.00  0.00     0.046 A 
ENDROOT
BRANCH   1   7
ATOM      7  N   UNL d   1       2.955  -1.057   0.402  0.00  0.00    -0.326 N 
ATOM      8  C   UNL d   1       2.169  -0.001  -0.031  0.00  0.00     0.239 C 
ATOM      9  O   UNL d   1       0.942  -0.092   0.036  0.00  0.00    -0.271 OA
ATOM     10  H   UNL d   1       2.434  -1.894   0.638  0.00  0.00     0.169 HD
BRANCH   8  11
ATOM     11  C   UNL d   1       2.873   1.196  -0.691  0.00  0.00     0.223 C 
BRANCH  11  12
ATOM     12  N   UNL d   1       1.977   2.261  -1.105  0.00  0.00    -0.381 N 
ATOM     13  H   UNL d   1       0.977   2.084  -1.081  0.00  0.00     0.160 HD
BRANCH  12  14
ATOM     14  C   UNL d   1       2.485   3.336  -1.814  0.00  0.00     0.028 A 
ATOM     15  C   UNL d   1       2.002   4.626  -1.590  0.00  0.00     0.032 A 
ATOM     16  C   UNL d   1       2.512   5.721  -2.309  0.00  0.00     0.039 A 
ATOM     17  C   UNL d   1       3.558   5.551  -3.219  0.00  0.00     0.069 A 
ATOM     18  C   UNL d   1       4.054   4.271  -3.434  0.00  0.00     0.039 A 
ATOM     19  C   UNL d   1       3.526   3.186  -2.736  0.00  0.00     0.032 A 
BRANCH  17  20
ATOM     20  O   UNL d   1       4.022   6.682  -3.836  0.00  0.00    -0.349 OA
BRANCH  20  21
ATOM     21  C   UNL d   1       5.206   6.527  -4.639  0.00  0.00     0.207 C 
BRANCH  21  22
ATOM     22  C   UNL d   1       5.752   7.884  -5.098  0.00  0.00     0.145 C 
ATOM     23  C   UNL d   1       5.799   8.938  -4.006  0.00  0.00     0.036 C 
ATOM     24  C   UNL d   1       5.724  10.222  -4.789  0.00  0.00     0.029 C 
ATOM     25  C   UNL d   1       4.841   9.852  -5.962  0.00  0.00     0.168 C 
ATOM     26  O   UNL d   1       4.965   8.438  -6.169  0.00  0.00    -0.384 OA
ENDBRANCH  21  22
ENDBRANCH  20  21
ENDBRANCH  17  20
ENDBRANCH  12  14
ENDBRANCH  11  12
ENDBRANCH   8  11
ENDBRANCH   1   7
BRANCH   5  27
ATOM     27  C   UNL d   1       7.177   1.221   1.563  0.00  0.00     0.256 C 
ATOM     28  O   UNL d   1       8.408   1.131   1.640  0.00  0.00    -0.267 OA
ATOM     29  N   UNL d   1       6.450   2.347   1.944  0.00  0.00    -0.323 N 
ATOM     30  H   UNL d   1       5.443   2.340   2.011  0.00  0.00     0.169 HD
BRANCH  29  31
ATOM     31  C   UNL d   1       7.054   3.563   2.312  0.00  0.00     0.035 A 
ATOM     32  C   UNL d   1       6.459   4.402   3.256  0.00  0.00     0.029 A 
ATOM     33  C   UNL d   1       7.031   5.648   3.540  0.00  0.00     0.003 A 
ATOM     34  C   UNL d   1       8.203   6.043   2.892  0.00  0.00     0.016 A 
ATOM     35  C   UNL d   1       8.790   5.213   1.930  0.00  0.00     0.050 A 
ATOM     36  C   UNL d   1       8.211   3.973   1.660  0.00  0.00     0.045 A 
BRANCH  35  37
ATOM     37  C   UNL d   1       9.989   5.650   1.139  0.00  0.00     0.417 C 
ATOM     38  F   UNL d   1       9.751   6.803   0.454  0.00  0.00    -0.166 F 
ATOM     39  F   UNL d   1      11.077   5.888   1.918  0.00  0.00    -0.166 F 
ATOM     40  F   UNL d   1      10.387   4.744   0.201  0.00  0.00    -0.166 F 
ENDBRANCH  35  37
ENDBRANCH  29  31
ENDBRANCH   5  27
TORSDOF 10
