@<TRIPOS>MOLECULE
*****
 56 58 0 0 0
SMALL
GASTEIGER

@<TRIPOS>ATOM
      1 C           1.0420    0.7154    0.4709 C.3     1  UNL1        0.0789
      2 O           2.4427    0.5590    0.2779 O.3     1  UNL1       -0.4933
      3 C           3.1221   -0.4372    0.9125 C.ar    1  UNL1        0.1412
      4 C           4.3683   -0.0596    1.4171 C.ar    1  UNL1       -0.0181
      5 C           5.2109   -0.9589    2.0853 C.ar    1  UNL1       -0.0582
      6 C           4.7823   -2.2505    2.3460 C.ar    1  UNL1       -0.0598
      7 C           3.5518   -2.6535    1.8316 C.ar    1  UNL1       -0.0369
      8 C           2.7553   -1.7643    1.0445 C.ar    1  UNL1        0.0748
      9 N           1.5777   -2.3003    0.5051 N.am    1  UNL1       -0.2939
     10 C           0.8293   -2.0229   -0.6618 C.2     1  UNL1        0.1376
     11 S           1.4850   -1.4552   -2.1007 S.2     1  UNL1       -0.0183
     12 N          -0.5816   -2.2267   -0.4634 N.am    1  UNL1       -0.3058
     13 C          -0.9843   -3.5463   -0.0439 C.3     1  UNL1        0.0373
     14 C          -0.0739   -4.4632    0.7385 C.3     1  UNL1        0.0599
     15 O          -0.6049   -5.7414    0.9941 O.3     1  UNL1       -0.3935
     16 C          -1.6607   -1.4021   -1.1718 C.3     1  UNL1        0.0440
     17 C          -3.0439   -1.9919   -1.5126 C.ar    1  UNL1        0.0347
     18 C          -3.8980   -1.4019   -2.3931 C.ar    1  UNL1       -0.0427
     19 C          -5.2200   -2.0130   -2.6762 C.ar    1  UNL1        0.0025
     20 C          -5.8872   -1.9343   -3.8943 C.ar    1  UNL1       -0.0072
     21 C          -7.1554   -2.5324   -4.0418 C.ar    1  UNL1        0.1622
     22 O          -7.7673   -2.2473   -5.2437 O.3     1  UNL1       -0.4914
     23 C          -9.1411   -2.6142   -5.3737 C.3     1  UNL1        0.0790
     24 C          -7.6940   -3.3251   -3.0002 C.ar    1  UNL1        0.1635
     25 O          -8.8256   -4.0357   -3.2810 O.3     1  UNL1       -0.4914
     26 C          -9.3926   -4.9038   -2.3208 C.3     1  UNL1        0.0790
     27 C          -7.0360   -3.3856   -1.7716 C.ar    1  UNL1        0.0077
     28 C          -5.8194   -2.7216   -1.6261 C.ar    1  UNL1        0.0529
     29 N          -5.0277   -2.8847   -0.4692 N.ar    1  UNL1       -0.3217
     30 C          -3.7244   -3.1402   -0.8258 C.ar    1  UNL1        0.2539
     31 O          -3.2967   -4.2928   -0.6915 O.2     1  UNL1       -0.2675
     32 H           0.6905    1.3951   -0.3126 H       1  UNL1        0.0660
     33 H           0.8028    1.0918    1.4626 H       1  UNL1        0.0660
     34 H           0.4249   -0.1601    0.3610 H       1  UNL1        0.0660
     35 H           4.6837    0.9691    1.2832 H       1  UNL1        0.0655
     36 H           6.2003   -0.6395    2.3987 H       1  UNL1        0.0619
     37 H           5.4083   -2.9343    2.9187 H       1  UNL1        0.0618
     38 H           3.2587   -3.6898    2.0157 H       1  UNL1        0.0637
     39 H           1.4463   -3.1684    0.9635 H       1  UNL1        0.1539
     40 H          -1.1803   -4.0533   -0.9908 H       1  UNL1        0.0487
     41 H          -1.8442   -3.3891    0.6095 H       1  UNL1        0.0487
     42 H           0.1065   -4.0000    1.7161 H       1  UNL1        0.0573
     43 H           0.8350   -4.6270    0.1519 H       1  UNL1        0.0573
     44 H          -1.4217   -5.6035    1.4985 H       1  UNL1        0.2095
     45 H          -1.2358   -0.9953   -2.0949 H       1  UNL1        0.0515
     46 H          -1.8365   -0.5193   -0.5339 H       1  UNL1        0.0515
     47 H          -3.7003   -0.4340   -2.8422 H       1  UNL1        0.0629
     48 H          -5.4237   -1.4343   -4.7411 H       1  UNL1        0.0662
     49 H          -9.5479   -2.1670   -6.2833 H       1  UNL1        0.0660
     50 H          -9.7510   -2.2440   -4.5381 H       1  UNL1        0.0660
     51 H          -9.2263   -3.6991   -5.4956 H       1  UNL1        0.0660
     52 H         -10.2758   -5.3604   -2.7811 H       1  UNL1        0.0660
     53 H          -9.7247   -4.3414   -1.4454 H       1  UNL1        0.0660
     54 H          -8.7006   -5.7077   -2.0565 H       1  UNL1        0.0660
     55 H          -7.4250   -3.9824   -0.9558 H       1  UNL1        0.0676
     56 H          -5.3957   -3.5068    0.2362 H       1  UNL1        0.1689
@<TRIPOS>BOND
     1     1     2    1
     2     2     3    1
     3     3     4   ar
     4     4     5   ar
     5     5     6   ar
     6     6     7   ar
     7     7     8   ar
     8     3     8   ar
     9     8     9    1
    10     9    10    1
    11    10    11    2
    12    10    12    1
    13    12    13    1
    14    13    14    1
    15    14    15    1
    16    12    16    1
    17    16    17    1
    18    17    18   ar
    19    18    19   ar
    20    19    20   ar
    21    20    21   ar
    22    21    22    1
    23    22    23    1
    24    21    24   ar
    25    24    25    1
    26    25    26    1
    27    24    27   ar
    28    27    28   ar
    29    19    28   ar
    30    28    29   ar
    31    29    30   ar
    32    17    30   ar
    33    30    31    2
    34     1    32    1
    35     1    33    1
    36     1    34    1
    37     4    35    1
    38     5    36    1
    39     6    37    1
    40     7    38    1
    41     9    39    1
    42    13    40    1
    43    13    41    1
    44    14    42    1
    45    14    43    1
    46    15    44    1
    47    16    45    1
    48    16    46    1
    49    18    47    1
    50    20    48    1
    51    23    49    1
    52    23    50    1
    53    23    51    1
    54    26    52    1
    55    26    53    1
    56    26    54    1
    57    27    55    1
    58    29    56    1
