@<TRIPOS>MOLECULE
*****
 34 34 0 0 0
SMALL
GASTEIGER

@<TRIPOS>ATOM
      1 C           2.2285   -0.1001   -0.0017 C.3     1  UNL1       -0.0203
      2 C           0.7515    0.0398    0.0002 C.ar    1  UNL1        0.0644
      3 N           0.0030   -1.0696    0.0007 N.ar    1  UNL1       -0.1789
      4 N          -1.2552   -0.6189    0.0005 N.ar    1  UNL1       -0.2842
      5 C          -1.3391    0.7405   -0.0004 C.ar    1  UNL1        0.0272
      6 C          -0.0417    1.2293    0.0006 C.ar    1  UNL1        0.0097
      7 C           0.3345    2.6798    0.0006 C.3     1  UNL1        0.0400
      8 N           1.7596    2.9157    0.0138 N.am    1  UNL1       -0.3111
      9 C           2.2870    4.1790    0.0172 C.2     1  UNL1        0.2133
     10 O           1.5897    5.1896    0.0105 O.2     1  UNL1       -0.2758
     11 C           3.8082    4.1970    0.0142 C.3     1  UNL1        0.0242
     12 C           4.3268    5.6347    0.0001 C.3     1  UNL1       -0.0424
     13 C           5.8574    5.7493   -0.0168 C.3     1  UNL1       -0.0463
     14 C           6.4570    5.0783   -1.2516 C.3     1  UNL1       -0.0627
     15 C           6.2627    7.2254    0.0069 C.3     1  UNL1       -0.0627
     16 H           2.5556   -1.1416    0.0008 H       1  UNL1        0.0293
     17 H           2.6494    0.3772    0.8906 H       1  UNL1        0.0293
     18 H           2.6456    0.3727   -0.8982 H       1  UNL1        0.0293
     19 H          -2.0085   -1.2997    0.0005 H       1  UNL1        0.1882
     20 H          -2.3016    1.2338   -0.0015 H       1  UNL1        0.0827
     21 H          -0.0909    3.1737    0.8820 H       1  UNL1        0.0513
     22 H          -0.0793    3.1711   -0.8881 H       1  UNL1        0.0513
     23 H           2.4103    2.1552   -0.0010 H       1  UNL1        0.1490
     24 H           4.1465    3.6511   -0.8740 H       1  UNL1        0.0358
     25 H           4.1870    3.6689    0.8983 H       1  UNL1        0.0358
     26 H           3.9366    6.1579    0.8831 H       1  UNL1        0.0272
     27 H           3.9134    6.1544   -0.8741 H       1  UNL1        0.0272
     28 H           6.2622    5.2661    0.8815 H       1  UNL1        0.0296
     29 H           6.0614    5.5295   -2.1682 H       1  UNL1        0.0232
     30 H           6.2343    4.0081   -1.2762 H       1  UNL1        0.0232
     31 H           7.5462    5.1798   -1.2610 H       1  UNL1        0.0232
     32 H           5.8802    7.7523   -0.8746 H       1  UNL1        0.0232
     33 H           7.3526    7.3294    0.0151 H       1  UNL1        0.0232
     34 H           5.8697    7.7279    0.8970 H       1  UNL1        0.0232
@<TRIPOS>BOND
     1     1     2    1
     2     2     3   ar
     3     3     4   ar
     4     4     5   ar
     5     5     6   ar
     6     2     6   ar
     7     6     7    1
     8     7     8    1
     9     8     9   am
    10     9    10    2
    11     9    11    1
    12    11    12    1
    13    12    13    1
    14    13    14    1
    15    13    15    1
    16     1    16    1
    17     1    17    1
    18     1    18    1
    19     4    19    1
    20     5    20    1
    21     7    21    1
    22     7    22    1
    23     8    23    1
    24    11    24    1
    25    11    25    1
    26    12    26    1
    27    12    27    1
    28    13    28    1
    29    14    29    1
    30    14    30    1
    31    14    31    1
    32    15    32    1
    33    15    33    1
    34    15    34    1
