REMARK  4 active torsions:
REMARK  status: ('A' for Active; 'I' for Inactive)
REMARK    1  A    between atoms: C_5  and  C_6 
REMARK       I    between atoms: C_6  and  N_8 
REMARK    2  A    between atoms: N_8  and  N_9 
REMARK       I    between atoms: N_9  and  C_10 
REMARK    3  A    between atoms: C_10  and  C_12 
REMARK    4  A    between atoms: C_16  and  O_17 
ROOT
ATOM      1  C   UNL d   1      -2.416  -2.015  -0.059  0.00  0.00     0.272 C 
ATOM      2  O   UNL d   1      -3.502  -1.425  -0.071  0.00  0.00    -0.266 OA
ATOM      3  N   UNL d   1      -2.326  -3.402  -0.084  0.00  0.00    -0.263 N 
ATOM      4  H   UNL d   1      -1.458  -3.931  -0.075  0.00  0.00     0.190 HD
ENDROOT
BRANCH   1   5
ATOM      5  C   UNL d   1      -1.142  -1.209  -0.021  0.00  0.00     0.066 A 
ATOM      6  C   UNL d   1       0.122  -1.820   0.000  0.00  0.00     0.020 A 
ATOM      7  C   UNL d   1       1.302  -1.055   0.018  0.00  0.00     0.008 A 
ATOM      8  C   UNL d   1       1.249   0.341   0.004  0.00  0.00    -0.059 A 
ATOM      9  C   UNL d   1       2.491   1.185  -0.001  0.00  0.00     0.048 C 
ATOM     10  C   UNL d   1      -0.004   0.960  -0.007  0.00  0.00     0.044 A 
ATOM     11  C   UNL d   1      -1.180   0.200  -0.012  0.00  0.00     0.082 A 
BRANCH  11  12
ATOM     12  O   UNL d   1      -2.338   0.936  -0.005  0.00  0.00    -0.360 OA
ATOM     13  H   UNL d   1      -3.098   0.316  -0.001  0.00  0.00     0.217 HD
ENDBRANCH  11  12
ENDBRANCH   1   5
BRANCH   3  14
ATOM     14  N   UNL d   1      -3.493  -4.199  -0.130  0.00  0.00    -0.267 N 
ATOM     15  C   UNL d   1      -3.358  -5.588  -0.139  0.00  0.00     0.240 C 
ATOM     16  O   UNL d   1      -2.236  -6.109  -0.127  0.00  0.00    -0.271 OA
ATOM     17  H   UNL d   1      -4.387  -3.713  -0.139  0.00  0.00     0.190 HD
BRANCH  15  18
ATOM     18  C   UNL d   1      -4.711  -6.375  -0.152  0.00  0.00     0.079 C 
ATOM     19  C   UNL d   1      -4.739  -7.860   0.338  0.00  0.00     0.014 C 
ATOM     20  C   UNL d   1      -6.102  -7.561   0.997  0.00  0.00     0.002 C 
ATOM     21  C   UNL d   1      -5.676  -6.085   1.032  0.00  0.00     0.014 C 
ENDBRANCH  15  18
ENDBRANCH   3  14
TORSDOF 4
