@<TRIPOS>MOLECULE
*****
 65 68 0 0 0
SMALL
GASTEIGER

@<TRIPOS>ATOM
      1 O           1.1162   -0.0665    0.1397 O.2     1  UNL1       -0.2738
      2 C           2.3442   -0.0039    0.0472 C.2     1  UNL1        0.2343
      3 C           3.0489    0.9392   -0.9429 C.3     1  UNL1        0.0861
      4 N           2.1487    1.7960   -1.6999 N.pl3   1  UNL1       -0.3354
      5 C           2.6663    2.6445   -2.6617 C.ar    1  UNL1        0.0275
      6 C           2.2194    3.9611   -2.7927 C.ar    1  UNL1       -0.0401
      7 C           2.7723    4.8170   -3.7670 C.ar    1  UNL1       -0.0479
      8 C           3.8363    4.3926   -4.5827 C.ar    1  UNL1        0.0368
      9 C           4.4991    5.3621   -5.5148 C.2     1  UNL1        0.2444
     10 O           4.0853    6.5213   -5.5815 O.2     1  UNL1       -0.2702
     11 N           5.5896    4.9300   -6.2510 N.am    1  UNL1       -0.3042
     12 C           6.2791    5.8362   -7.1392 C.3     1  UNL1        0.0700
     13 C           7.4347    5.2083   -7.8443 C.ar    1  UNL1        0.1218
     14 C           8.5244    5.7826   -8.4707 C.ar    1  UNL1       -0.0192
     15 C           9.2779    4.7293   -9.0347 C.ar    1  UNL1       -0.0236
     16 C           8.6100    3.5712   -8.7127 C.ar    1  UNL1        0.0921
     17 O           7.4894    3.8470   -7.9857 O.2     1  UNL1       -0.4662
     18 C           4.2782    3.0787   -4.4517 C.ar    1  UNL1       -0.0479
     19 C           3.7071    2.2318   -3.4993 C.ar    1  UNL1       -0.0401
     20 N           3.1289   -0.8814    0.7796 N.am    1  UNL1       -0.2842
     21 C           4.5297   -0.8881    0.9001 C.ar    1  UNL1        0.0341
     22 C           5.2301   -2.0877    1.0031 C.ar    1  UNL1       -0.0404
     23 C           6.6213   -2.0637    1.1617 C.ar    1  UNL1       -0.0593
     24 C           7.3132   -0.8453    1.1610 C.ar    1  UNL1       -0.0495
     25 C           6.6126    0.3633    1.0817 C.ar    1  UNL1        0.0385
     26 C           7.3360    1.6665    1.1299 C.2     1  UNL1        0.2443
     27 O           8.5641    1.6485    1.2348 O.2     1  UNL1       -0.2702
     28 N           6.6050    2.8515    1.0646 N.am    1  UNL1       -0.3085
     29 C           7.2712    4.1383    1.2258 C.3     1  UNL1        0.0234
     30 C           6.3735    5.3449    0.8854 C.3     1  UNL1       -0.0345
     31 C           7.1374    6.6624    1.0803 C.3     1  UNL1       -0.0514
     32 C           7.7139    6.7818    2.4897 C.3     1  UNL1       -0.0529
     33 C           8.5797    5.5764    2.8292 C.3     1  UNL1       -0.0514
     34 C           7.8047    4.2796    2.6575 C.3     1  UNL1       -0.0345
     35 C           5.2264    0.3137    1.0057 C.ar    1  UNL1       -0.0284
     36 H           3.6658    0.3120   -1.5947 H       1  UNL1        0.0557
     37 H           3.6763    1.6399   -0.4023 H       1  UNL1        0.0557
     38 H           1.1499    1.7078   -1.5419 H       1  UNL1        0.1466
     39 H           1.4660    4.3529   -2.1111 H       1  UNL1        0.0636
     40 H           2.3701    5.8240   -3.8743 H       1  UNL1        0.0626
     41 H           5.9470    3.9885   -6.2050 H       1  UNL1        0.1495
     42 H           6.6375    6.6835   -6.5437 H       1  UNL1        0.0543
     43 H           5.5611    6.2159   -7.8730 H       1  UNL1        0.0543
     44 H           8.7304    6.8424   -8.5247 H       1  UNL1        0.0652
     45 H          10.1897    4.8076   -9.6116 H       1  UNL1        0.0649
     46 H           8.7961    2.5268   -8.9260 H       1  UNL1        0.1029
     47 H           5.0621    2.6648   -5.0717 H       1  UNL1        0.0626
     48 H           4.0815    1.2143   -3.4495 H       1  UNL1        0.0636
     49 H           2.6074   -1.6074    1.2592 H       1  UNL1        0.1549
     50 H           4.7225   -3.0464    0.9237 H       1  UNL1        0.0636
     51 H           7.1727   -2.9940    1.2868 H       1  UNL1        0.0618
     52 H           8.3990   -0.8436    1.2495 H       1  UNL1        0.0625
     53 H           5.5983    2.8667    1.0153 H       1  UNL1        0.1493
     54 H           8.1109    4.1331    0.5203 H       1  UNL1        0.0498
     55 H           5.4771    5.3514    1.5205 H       1  UNL1        0.0283
     56 H           6.0192    5.2825   -0.1507 H       1  UNL1        0.0283
     57 H           6.4818    7.5171    0.8793 H       1  UNL1        0.0266
     58 H           7.9583    6.7133    0.3537 H       1  UNL1        0.0266
     59 H           6.8963    6.8638    3.2165 H       1  UNL1        0.0265
     60 H           8.3121    7.6959    2.5747 H       1  UNL1        0.0265
     61 H           8.9450    5.6511    3.8583 H       1  UNL1        0.0266
     62 H           9.4588    5.5598    2.1729 H       1  UNL1        0.0266
     63 H           6.9702    4.2416    3.3705 H       1  UNL1        0.0283
     64 H           8.4639    3.4448    2.9131 H       1  UNL1        0.0283
     65 H           4.6661    1.2252    1.1170 H       1  UNL1        0.0644
@<TRIPOS>BOND
     1     1     2    2
     2     2     3    1
     3     3     4    1
     4     4     5    1
     5     5     6   ar
     6     6     7   ar
     7     7     8   ar
     8     8     9    1
     9     9    10    2
    10     9    11   am
    11    11    12    1
    12    12    13    1
    13    13    14   ar
    14    14    15   ar
    15    15    16   ar
    16    16    17   ar
    17    13    17   ar
    18     8    18   ar
    19    18    19   ar
    20     5    19   ar
    21     2    20   am
    22    20    21    1
    23    21    22   ar
    24    22    23   ar
    25    23    24   ar
    26    24    25   ar
    27    25    26    1
    28    26    27    2
    29    26    28   am
    30    28    29    1
    31    29    30    1
    32    30    31    1
    33    31    32    1
    34    32    33    1
    35    33    34    1
    36    29    34    1
    37    25    35   ar
    38    21    35   ar
    39     3    36    1
    40     3    37    1
    41     4    38    1
    42     6    39    1
    43     7    40    1
    44    11    41    1
    45    12    42    1
    46    12    43    1
    47    14    44    1
    48    15    45    1
    49    16    46    1
    50    18    47    1
    51    19    48    1
    52    20    49    1
    53    22    50    1
    54    23    51    1
    55    24    52    1
    56    28    53    1
    57    29    54    1
    58    30    55    1
    59    30    56    1
    60    31    57    1
    61    31    58    1
    62    32    59    1
    63    32    60    1
    64    33    61    1
    65    33    62    1
    66    34    63    1
    67    34    64    1
    68    35    65    1
