@<TRIPOS>MOLECULE
*****
 34 35 0 0 0
SMALL
GASTEIGER

@<TRIPOS>ATOM
      1 C           0.9759   -0.0177   -0.0361 C.3     1  UNL1       -0.0367
      2 C           2.5093    0.0119   -0.0548 C.3     1  UNL1        0.0787
      3 C           2.9618    1.3246   -0.6863 C.3     1  UNL1       -0.0367
      4 O           3.0040   -0.1021    1.2886 O.3     1  UNL1       -0.2759
      5 N           4.4256   -0.2193    1.3234 N.am    1  UNL1       -0.1779
      6 C           4.9949   -0.2957    2.5794 C.2     1  UNL1        0.3269
      7 O           4.3210   -0.3481    3.6099 O.2     1  UNL1       -0.2504
      8 N           6.3934   -0.2947    2.5600 N.am    1  UNL1       -0.2673
      9 C           7.1648   -0.3608    3.7644 C.ar    1  UNL1        0.0425
     10 C           6.7867   -1.2919    4.7410 C.ar    1  UNL1       -0.0398
     11 C           7.4664   -1.3864    5.9515 C.ar    1  UNL1       -0.0594
     12 C           8.5412   -0.5450    6.2117 C.ar    1  UNL1       -0.0539
     13 C           8.9823    0.3680    5.2458 C.ar    1  UNL1       -0.0161
     14 C          10.0878    1.1880    5.5341 C.ar    1  UNL1       -0.0540
     15 C          10.5490    2.1164    4.6062 C.ar    1  UNL1       -0.0612
     16 C           9.9039    2.2384    3.3823 C.ar    1  UNL1       -0.0611
     17 C           8.7972    1.4330    3.0819 C.ar    1  UNL1       -0.0523
     18 C           8.3069    0.4676    3.9927 C.ar    1  UNL1        0.0034
     19 H           0.5693    0.0705   -1.0511 H       1  UNL1        0.0255
     20 H           0.5686    0.8061    0.5622 H       1  UNL1        0.0255
     21 H           0.5971   -0.9459    0.4032 H       1  UNL1        0.0255
     22 H           2.8630   -0.8452   -0.6401 H       1  UNL1        0.0614
     23 H           2.6170    2.1769   -0.0905 H       1  UNL1        0.0255
     24 H           2.5745    1.4252   -1.7046 H       1  UNL1        0.0255
     25 H           4.0517    1.3912   -0.7322 H       1  UNL1        0.0255
     26 H           4.9467   -0.1155    0.4678 H       1  UNL1        0.1841
     27 H           6.8495    0.0715    1.7401 H       1  UNL1        0.1565
     28 H           5.9567   -1.9701    4.5580 H       1  UNL1        0.0636
     29 H           7.1478   -2.1131    6.6934 H       1  UNL1        0.0618
     30 H           9.0308   -0.6105    7.1819 H       1  UNL1        0.0624
     31 H          10.6012    1.1104    6.4919 H       1  UNL1        0.0624
     32 H          11.4039    2.7452    4.8433 H       1  UNL1        0.0618
     33 H          10.2560    2.9695    2.6592 H       1  UNL1        0.0618
     34 H           8.3106    1.5873    2.1250 H       1  UNL1        0.0624
@<TRIPOS>BOND
     1     1     2    1
     2     2     3    1
     3     2     4    1
     4     4     5    1
     5     5     6   am
     6     6     7    2
     7     6     8   am
     8     8     9    1
     9     9    10   ar
    10    10    11   ar
    11    11    12   ar
    12    12    13   ar
    13    13    14   ar
    14    14    15   ar
    15    15    16   ar
    16    16    17   ar
    17    17    18   ar
    18     9    18   ar
    19    13    18   ar
    20     1    19    1
    21     1    20    1
    22     1    21    1
    23     2    22    1
    24     3    23    1
    25     3    24    1
    26     3    25    1
    27     5    26    1
    28     8    27    1
    29    10    28    1
    30    11    29    1
    31    12    30    1
    32    14    31    1
    33    15    32    1
    34    16    33    1
    35    17    34    1
