REMARK  9 active torsions:
REMARK  status: ('A' for Active; 'I' for Inactive)
REMARK    1  A    between atoms: C_2  and  O_5 
REMARK    2  A    between atoms: O_5  and  C_6 
REMARK       I    between atoms: C_6  and  N_8 
REMARK    3  A    between atoms: N_8  and  C_9 
REMARK    4  A    between atoms: C_9  and  C_10 
REMARK    5  A    between atoms: C_20  and  C_9 
REMARK    6  A    between atoms: C_10  and  C_11 
REMARK    7  A    between atoms: C_23  and  S_24 
REMARK    8  A    between atoms: S_24  and  C_25 
REMARK    9  A    between atoms: C_25  and  C_26 
ROOT
ATOM      1  C   UNL d   1       7.555   2.860   4.557  0.00  0.00     0.135 C 
ENDROOT
BRANCH   1   2
ATOM      2  N   UNL d   1       8.370   3.823   5.359  0.00  0.00    -0.328 N 
ATOM      3  C   UNL d   1       9.165   4.766   4.730  0.00  0.00     0.361 C 
ATOM      4  O   UNL d   1       9.349   4.763   3.544  0.00  0.00    -0.238 OA
ATOM      5  H   UNL d   1       8.097   4.007   6.314  0.00  0.00     0.165 HD
BRANCH   3   6
ATOM      6  O   UNL d   1       9.702   5.736   5.527  0.00  0.00    -0.294 OA
BRANCH   6   7
ATOM      7  C   UNL d   1      10.532   6.719   4.812  0.00  0.00     0.061 C 
ATOM      8  C   UNL d   1      11.050   7.756   5.782  0.00  0.00     0.046 C 
ATOM      9  C   UNL d   1       9.743   7.535   3.831  0.00  0.00     0.046 C 
ATOM     10  C   UNL d   1      11.695   6.081   4.023  0.00  0.00     0.046 C 
ENDBRANCH   6   7
ENDBRANCH   3   6
ENDBRANCH   1   2
BRANCH   1  11
ATOM     11  C   UNL d   1       8.460   1.933   3.627  0.00  0.00     0.066 C 
BRANCH  11  12
ATOM     12  C   UNL d   1       9.169   2.526   2.419  0.00  0.00    -0.048 C 
ATOM     13  C   UNL d   1       8.672   3.249   1.391  0.00  0.00    -0.006 C 
ATOM     14  C   UNL d   1       7.366   3.630   0.955  0.00  0.00     0.014 C 
ATOM     15  C   UNL d   1       9.838   3.981   0.843  0.00  0.00     0.038 C 
ATOM     16  C   UNL d   1       7.186   4.769   0.281  0.00  0.00     0.001 C 
ATOM     17  C   UNL d   1       8.299   5.465  -0.311  0.00  0.00     0.002 C 
ATOM     18  C   UNL d   1       9.578   5.113  -0.086  0.00  0.00     0.030 C 
ATOM     19  N   UNL d   1      10.943   3.558   1.330  0.00  0.00    -0.385 N 
ATOM     20  C   UNL d   1      10.682   2.594   2.422  0.00  0.00     0.155 C 
ATOM     21  H   UNL d   1      11.850   3.921   1.052  0.00  0.00     0.160 HD
ENDBRANCH  11  12
ENDBRANCH   1  11
BRANCH   1  22
ATOM     22  C   UNL d   1       6.390   3.527   3.745  0.00  0.00     0.233 C 
ATOM     23  N   UNL d   1       5.106   3.845   4.331  0.00  0.00    -0.228 NA
ATOM     24  N   UNL d   1       5.059   5.291   4.458  0.00  0.00    -0.222 NA
ATOM     25  H   UNL d   1       4.835   3.274   5.124  0.00  0.00     0.143 HD
ATOM     26  C   UNL d   1       6.364   5.762   3.993  0.00  0.00     0.275 C 
ATOM     27  H   UNL d   1       4.945   5.589   5.424  0.00  0.00     0.144 HD
ATOM     28  O   UNL d   1       6.839   4.752   3.148  0.00  0.00    -0.338 OA
BRANCH  26  29
ATOM     29  S   UNL d   1       6.421   7.467   3.441  0.00  0.00    -0.116 SA
BRANCH  29  30
ATOM     30  C   UNL d   1       7.412   7.600   1.878  0.00  0.00     0.120 C 
BRANCH  30  31
ATOM     31  C   UNL d   1       7.531   9.012   1.335  0.00  0.00    -0.005 C 
ATOM     32  C   UNL d   1       8.756   9.615   0.923  0.00  0.00     0.042 C 
ATOM     33 CL   UNL d   1      10.310   8.838   0.891  0.00  0.00    -0.084 Cl
ATOM     34  C   UNL d   1       8.764  10.861   0.294  0.00  0.00     0.024 C 
ATOM     35  C   UNL d   1       7.570  11.396  -0.153  0.00  0.00     0.003 C 
ATOM     36  C   UNL d   1       6.370  10.857   0.276  0.00  0.00     0.024 C 
ATOM     37  C   UNL d   1       6.343   9.706   1.045  0.00  0.00     0.042 C 
ATOM     38 CL   UNL d   1       4.745   9.164   1.442  0.00  0.00    -0.084 Cl
ENDBRANCH  30  31
ENDBRANCH  29  30
ENDBRANCH  26  29
ENDBRANCH   1  22
TORSDOF 9
