REMARK  8 active torsions:
REMARK  status: ('A' for Active; 'I' for Inactive)
REMARK    1  A    between atoms: C_2  and  O_3 
REMARK    2  A    between atoms: O_3  and  C_4 
REMARK    3  A    between atoms: C_9  and  C_10 
REMARK    4  A    between atoms: C_10  and  N_11 
REMARK    5  A    between atoms: C_14  and  O_15 
REMARK    6  A    between atoms: C_14  and  C_16 
REMARK    7  A    between atoms: C_19  and  O_20 
REMARK    8  A    between atoms: C_23  and  O_24 
ROOT
ATOM      1  N   UNL d   1       2.551   2.101  -2.859  0.00  0.00    -0.067 N 
ATOM      2  C   UNL d   1       2.170   0.600  -3.360  0.00  0.00     0.238 C 
ATOM      3  C   UNL d   1       0.891   0.043  -2.794  0.00  0.00     0.071 C 
ATOM      4  C   UNL d   1       0.946  -0.007  -1.266  0.00  0.00     0.093 C 
ATOM      5  C   UNL d   1       1.024   1.797  -0.974  0.00  0.00     0.071 C 
ATOM      6  C   UNL d   1       2.233   2.588  -1.450  0.00  0.00     0.238 C 
ATOM      7  H   UNL d   1       1.968   2.735  -3.411  0.00  0.00     0.280 HD
ENDROOT
BRANCH   1   8
ATOM      8  C   UNL d   1       4.042   2.395  -3.140  0.00  0.00     0.276 C 
BRANCH   8   9
ATOM      9  C   UNL d   1       5.058   1.486  -2.486  0.00  0.00     0.004 C 
ATOM     10  C   UNL d   1       6.465   1.542  -2.732  0.00  0.00     0.051 C 
ATOM     11  C   UNL d   1       7.340   0.608  -2.149  0.00  0.00     0.105 A 
ATOM     12  C   UNL d   1       6.843  -0.476  -1.527  0.00  0.00     0.107 A 
ATOM     13  O   UNL d   1       8.701   0.553  -2.139  0.00  0.00    -0.323 OA
ATOM     14  C   UNL d   1       5.506  -0.629  -1.458  0.00  0.00     0.077 C 
ATOM     15  O   UNL d   1       7.743  -1.309  -0.959  0.00  0.00    -0.323 OA
ATOM     16  C   UNL d   1       4.654   0.538  -1.569  0.00  0.00     0.079 C 
ATOM     17  C   UNL d   1       8.951  -0.632  -1.315  0.00  0.00     0.352 A 
BRANCH  16  18
ATOM     18  O   UNL d   1       3.317   0.783  -0.907  0.00  0.00    -0.351 OA
BRANCH  18  19
ATOM     19  C   UNL d   1       2.766   0.847   0.777  0.00  0.00     0.171 C 
ATOM     20  C   UNL d   1       1.204   0.537   1.304  0.00  0.00     0.034 C 
ENDBRANCH  18  19
ENDBRANCH  16  18
ENDBRANCH   8   9
ENDBRANCH   1   8
BRANCH   4  21
ATOM     21  O   UNL d   1      -0.457  -0.270  -1.032  0.00  0.00    -0.385 OA
ATOM     22  H   UNL d   1      -0.621  -1.175  -1.352  0.00  0.00     0.211 HD
ENDBRANCH   4  21
BRANCH   4  23
ATOM     23  C   UNL d   1       1.871  -1.434  -0.573  0.00  0.00     0.047 C 
ATOM     24  C   UNL d   1       3.212  -1.361  -0.290  0.00  0.00     0.135 C 
ATOM     25  N   UNL d   1       4.110  -1.702   0.693  0.00  0.00    -0.219 NA
ATOM     26  C   UNL d   1       3.906  -2.723   1.165  0.00  0.00     0.270 C 
ATOM     27  N   UNL d   1       2.656  -3.242   1.050  0.00  0.00    -0.182 NA
ATOM     28  C   UNL d   1       1.621  -2.409   0.400  0.00  0.00     0.178 C 
BRANCH  26  29
ATOM     29  O   UNL d   1       5.136  -3.330   1.091  0.00  0.00    -0.324 OA
ATOM     30  C   UNL d   1       5.218  -4.257   2.089  0.00  0.00     0.213 C 
ENDBRANCH  26  29
BRANCH  28  31
ATOM     31  O   UNL d   1       0.490  -2.585   1.143  0.00  0.00    -0.339 OA
ATOM     32  C   UNL d   1      -0.768  -1.938   1.041  0.00  0.00     0.211 C 
ENDBRANCH  28  31
ENDBRANCH   4  23
TORSDOF 8
