REMARK  13 active torsions:
REMARK  status: ('A' for Active; 'I' for Inactive)
REMARK    1  A    between atoms: C_2  and  C_3 
REMARK    2  A    between atoms: C_3  and  O_4 
REMARK    3  A    between atoms: O_4  and  C_5 
REMARK    4  A    between atoms: C_6  and  C_5 
REMARK    5  A    between atoms: C_6  and  C_8 
REMARK    6  A    between atoms: C_6  and  O_7 
REMARK    7  A    between atoms: N_9  and  C_8 
REMARK    8  A    between atoms: N_9  and  C_28 
REMARK    9  A    between atoms: N_9  and  C_10 
REMARK   10  A    between atoms: C_10  and  C_11 
REMARK   11  A    between atoms: C_15  and  C_16 
REMARK   12  A    between atoms: C_16  and  O_18 
REMARK   13  A    between atoms: O_18  and  C_19 
ROOT
ATOM      1  C   UNL d   1       6.576  -1.480   1.031  0.00  0.00     0.134 C 
ATOM      2  N   UNL d   1       7.085  -0.755   0.071  0.00  0.00    -0.225 NA
ATOM      3  C   UNL d   1       6.556   0.521   0.005  0.00  0.00     0.116 C 
ATOM      4  S   UNL d   1       7.435   1.852  -0.643  0.00  0.00    -0.063 SA
ATOM      5  C   UNL d   1       6.330   3.022  -0.013  0.00  0.00     0.089 C 
ATOM      6  C   UNL d   1       5.181   2.369   0.428  0.00  0.00    -0.020 C 
ATOM      7  C   UNL d   1       3.830   2.965   0.578  0.00  0.00     0.051 C 
ATOM      8  C   UNL d   1       5.419   0.963   0.642  0.00  0.00     0.075 C 
ATOM      9  C   UNL d   1       4.654  -0.050   1.343  0.00  0.00     0.260 C 
ATOM     10  O   UNL d   1       3.468   0.061   1.666  0.00  0.00    -0.267 OA
ATOM     11  N   UNL d   1       5.364  -1.196   1.637  0.00  0.00    -0.309 N 
ATOM     12  H   UNL d   1       4.844  -1.894   2.153  0.00  0.00     0.170 HD
ENDROOT
BRANCH   1  13
ATOM     13  C   UNL d   1       7.407  -2.587   1.716  0.00  0.00     0.313 C 
BRANCH  13  14
ATOM     14  N   UNL d   1       8.955  -2.350   1.853  0.00  0.00    -0.058 N 
ATOM     15  H   UNL d   1       9.281  -2.361   0.871  0.00  0.00     0.281 HD
BRANCH  14  16
ATOM     16  C   UNL d   1       9.700  -3.466   2.612  0.00  0.00     0.188 C 
ATOM     17  C   UNL d   1       9.534  -3.245   4.130  0.00  0.00     0.033 C 
ATOM     18  C   UNL d   1      10.110  -4.356   4.968  0.00  0.00     0.002 C 
ATOM     19  C   UNL d   1       9.550  -5.693   4.530  0.00  0.00     0.000 C 
ATOM     20  C   UNL d   1       9.828  -5.943   3.049  0.00  0.00     0.002 C 
ATOM     21  C   UNL d   1       9.222  -4.849   2.179  0.00  0.00     0.033 C 
ENDBRANCH  14  16
BRANCH  14  22
ATOM     22  C   UNL d   1       9.476  -1.012   2.453  0.00  0.00     0.269 C 
BRANCH  22  23
ATOM     23  C   UNL d   1       8.754   0.189   1.965  0.00  0.00     0.167 C 
BRANCH  23  24
ATOM     24  O   UNL d   1       7.438   0.251   2.535  0.00  0.00    -0.392 OA
ATOM     25  H   UNL d   1       7.299  -0.347   3.281  0.00  0.00     0.210 HD
ENDBRANCH  23  24
BRANCH  23  26
ATOM     26  C   UNL d   1       9.231   1.521   2.370  0.00  0.00     0.201 C 
BRANCH  26  27
ATOM     27  O   UNL d   1      10.594   1.705   2.155  0.00  0.00    -0.385 OA
BRANCH  27  28
ATOM     28  C   UNL d   1      10.774   3.069   2.508  0.00  0.00     0.194 C 
BRANCH  28  29
ATOM     29  C   UNL d   1      12.211   3.336   2.480  0.00  0.00    -0.011 C 
ATOM     30  C   UNL d   1      12.658   4.520   2.900  0.00  0.00     0.009 C 
ENDBRANCH  28  29
ENDBRANCH  27  28
ENDBRANCH  26  27
ENDBRANCH  23  26
ENDBRANCH  22  23
ENDBRANCH  14  22
ENDBRANCH  13  14
ENDBRANCH   1  13
BRANCH   5  31
ATOM     31  C   UNL d   1       6.655   4.437  -0.205  0.00  0.00     0.301 C 
ATOM     32  O   UNL d   1       7.785   4.908  -0.270  0.00  0.00    -0.259 OA
BRANCH  31  33
ATOM     33  O   UNL d   1       5.515   5.166  -0.364  0.00  0.00    -0.312 OA
BRANCH  33  34
ATOM     34  C   UNL d   1       5.630   6.528  -0.824  0.00  0.00     0.124 C 
ATOM     35  C   UNL d   1       6.236   6.564  -2.223  0.00  0.00     0.040 C 
ATOM     36  C   UNL d   1       4.219   7.120  -0.884  0.00  0.00     0.040 C 
ENDBRANCH  33  34
ENDBRANCH  31  33
ENDBRANCH   5  31
TORSDOF 13
