REMARK  7 active torsions:
REMARK  status: ('A' for Active; 'I' for Inactive)
REMARK    1  A    between atoms: C_2  and  O_3 
REMARK    2  A    between atoms: O_3  and  C_4 
REMARK    3  A    between atoms: C_9  and  N_10 
REMARK    4  A    between atoms: C_11  and  N_12 
REMARK    5  A    between atoms: C_13  and  C_14 
REMARK       I    between atoms: C_14  and  N_16 
REMARK    6  A    between atoms: N_16  and  C_17 
REMARK    7  A    between atoms: C_18  and  C_17 
ROOT
ATOM      1  N   UNL d   1      -0.100  -1.493  -1.618  0.00  0.00    -0.277 N 
ATOM      2  C   UNL d   1      -0.927  -1.565  -2.771  0.00  0.00     0.126 C 
ATOM      3  C   UNL d   1      -0.171  -1.149  -3.876  0.00  0.00     0.108 C 
ATOM      4  C   UNL d   1       1.137  -1.192  -3.397  0.00  0.00     0.123 C 
ATOM      5  N   UNL d   1       2.366  -1.227  -3.982  0.00  0.00    -0.242 NA
ATOM      6  C   UNL d   1       3.307  -0.882  -3.085  0.00  0.00     0.086 C 
ATOM      7  C   UNL d   1       3.969  -1.749  -2.195  0.00  0.00     0.034 C 
ATOM      8  C   UNL d   1       4.741  -1.198  -1.152  0.00  0.00     0.002 C 
ATOM      9  C   UNL d   1       5.092   0.135  -1.286  0.00  0.00     0.002 C 
ATOM     10  C   UNL d   1       4.239   0.868  -2.086  0.00  0.00     0.034 C 
ATOM     11  C   UNL d   1       3.048   0.225  -2.367  0.00  0.00     0.088 C 
ATOM     12  N   UNL d   1       1.978   0.020  -1.515  0.00  0.00    -0.226 NA
ATOM     13  C   UNL d   1       1.029  -0.796  -2.068  0.00  0.00     0.167 C 
ENDROOT
BRANCH   3  14
ATOM     14  C   UNL d   1      -0.619  -0.721  -5.210  0.00  0.00     0.258 C 
ATOM     15  O   UNL d   1      -1.773  -0.822  -5.580  0.00  0.00    -0.267 OA
ATOM     16  N   UNL d   1       0.368  -0.103  -5.985  0.00  0.00    -0.354 N 
ATOM     17  H   UNL d   1       1.295   0.002  -5.589  0.00  0.00     0.162 HD
BRANCH  16  18
ATOM     18  C   UNL d   1       0.150   0.358  -7.363  0.00  0.00     0.155 C 
BRANCH  18  19
ATOM     19  C   UNL d   1       1.445   0.867  -8.054  0.00  0.00     0.139 C 
ATOM     20  C   UNL d   1       1.455   0.675  -9.569  0.00  0.00     0.035 C 
ATOM     21  C   UNL d   1       0.913   1.979 -10.095  0.00  0.00     0.029 C 
ATOM     22  C   UNL d   1       1.464   2.975  -9.101  0.00  0.00     0.168 C 
ATOM     23  O   UNL d   1       1.596   2.290  -7.843  0.00  0.00    -0.384 OA
ENDBRANCH  18  19
ENDBRANCH  16  18
ENDBRANCH   3  14
BRANCH   2  24
ATOM     24  N   UNL d   1      -2.242  -1.873  -2.697  0.00  0.00    -0.384 N 
ATOM     25  H   UNL d   1      -2.736  -2.031  -1.822  0.00  0.00     0.157 HD
ATOM     26  H   UNL d   1      -2.849  -1.666  -3.493  0.00  0.00     0.157 HD
ENDBRANCH   2  24
BRANCH   1  27
ATOM     27  C   UNL d   1      -0.427  -1.974  -0.293  0.00  0.00     0.076 A 
ATOM     28  C   UNL d   1      -0.980  -3.273  -0.152  0.00  0.00     0.033 A 
ATOM     29  C   UNL d   1      -1.248  -3.829   1.117  0.00  0.00     0.002 A 
ATOM     30  C   UNL d   1      -0.998  -3.093   2.268  0.00  0.00     0.003 A 
ATOM     31  C   UNL d   1      -0.469  -1.812   2.143  0.00  0.00     0.039 A 
ATOM     32  C   UNL d   1      -0.184  -1.248   0.880  0.00  0.00     0.096 A 
BRANCH  32  33
ATOM     33  O   UNL d   1       0.337   0.005   0.969  0.00  0.00    -0.349 OA
BRANCH  33  34
ATOM     34  C   UNL d   1      -0.301   1.010   0.185  0.00  0.00     0.171 C 
ATOM     35  C   UNL d   1       0.657   2.182   0.146  0.00  0.00     0.034 C 
ENDBRANCH  33  34
ENDBRANCH  32  33
ENDBRANCH   1  27
TORSDOF 7
