@<TRIPOS>MOLECULE
*****
 59 61 0 0 0
SMALL
GASTEIGER

@<TRIPOS>ATOM
      1 C           1.1231    0.0793   -0.1005 C.3     1  UNL1        0.0820
      2 O           2.5584    0.0721   -0.1036 O.3     1  UNL1       -0.4645
      3 C           3.1142    1.0456   -0.8656 C.2     1  UNL1        0.3389
      4 O           2.4994    1.8891   -1.5170 O.2     1  UNL1       -0.2450
      5 C           4.5953    0.9831   -0.8455 C.ar    1  UNL1        0.0590
      6 C           5.3502    2.1625   -0.8693 C.ar    1  UNL1       -0.0475
      7 C           6.7480    2.1107   -1.0298 C.ar    1  UNL1       -0.0563
      8 C           7.4263    0.8769   -1.1008 C.ar    1  UNL1       -0.0302
      9 C           8.9487    0.8484   -1.1387 C.3     1  UNL1        0.0383
     10 N           9.5560   -0.4804   -1.1532 N.am    1  UNL1       -0.2953
     11 C          10.9119   -0.6443   -1.1755 C.2     1  UNL1        0.3003
     12 O          11.6844    0.3047   -1.2196 O.2     1  UNL1       -0.2528
     13 N          11.3067   -1.9637   -1.1403 N.am    1  UNL1       -0.2929
     14 C          12.7267   -2.3353   -1.1072 C.3     1  UNL1        0.0470
     15 C          13.3872   -1.7078    0.1449 C.3     1  UNL1       -0.0424
     16 C          12.9615   -3.8556   -1.1221 C.ar    1  UNL1       -0.0273
     17 C          12.1318   -4.8016   -1.7469 C.ar    1  UNL1       -0.0551
     18 C          12.3569   -6.2026   -1.5984 C.ar    1  UNL1       -0.0401
     19 C          13.4806   -6.6869   -0.9124 C.ar    1  UNL1        0.0348
     20 N          13.7990   -8.0856   -0.8413 N.am    1  UNL1       -0.2692
     21 C          14.9743   -8.5694   -0.2667 C.2     1  UNL1        0.3081
     22 O          15.8292   -7.8570    0.2540 O.2     1  UNL1       -0.2522
     23 N          15.1668   -9.9406   -0.3222 N.am    1  UNL1       -0.2692
     24 C          16.3114  -10.5223    0.3119 C.ar    1  UNL1        0.0348
     25 C          17.0251  -11.5633   -0.2874 C.ar    1  UNL1       -0.0404
     26 C          18.0936  -12.1715    0.3956 C.ar    1  UNL1       -0.0600
     27 C          18.4848  -11.7173    1.6563 C.ar    1  UNL1       -0.0616
     28 C          17.7971  -10.6670    2.2487 C.ar    1  UNL1       -0.0600
     29 C          16.7222  -10.0792    1.5801 C.ar    1  UNL1       -0.0404
     30 C          14.3083   -5.7307   -0.3386 C.ar    1  UNL1       -0.0401
     31 C          14.0822   -4.3688   -0.4683 C.ar    1  UNL1       -0.0551
     32 C           6.6434   -0.2873   -1.0883 C.ar    1  UNL1       -0.0563
     33 C           5.2506   -0.2414   -0.9545 C.ar    1  UNL1       -0.0475
     34 H           0.7708   -0.7030    0.5793 H       1  UNL1        0.0661
     35 H           0.7360   -0.1399   -1.1014 H       1  UNL1        0.0661
     36 H           0.7356    1.0395    0.2574 H       1  UNL1        0.0661
     37 H           4.8524    3.1261   -0.7679 H       1  UNL1        0.0626
     38 H           7.2978    3.0496   -1.1095 H       1  UNL1        0.0621
     39 H           9.3257    1.3657   -0.2454 H       1  UNL1        0.0512
     40 H           9.3179    1.3968   -2.0144 H       1  UNL1        0.0512
     41 H           8.9900   -1.3031   -1.0812 H       1  UNL1        0.1506
     42 H          10.6190   -2.6938   -1.0581 H       1  UNL1        0.1508
     43 H          13.1922   -1.9092   -2.0055 H       1  UNL1        0.0546
     44 H          12.9819   -2.1627    1.0578 H       1  UNL1        0.0251
     45 H          13.2383   -0.6314    0.2221 H       1  UNL1        0.0251
     46 H          14.4742   -1.8336    0.1482 H       1  UNL1        0.0251
     47 H          11.2993   -4.4672   -2.3632 H       1  UNL1        0.0621
     48 H          11.6256   -6.8846   -2.0251 H       1  UNL1        0.0636
     49 H          13.1777   -8.7259   -1.3127 H       1  UNL1        0.1564
     50 H          14.6771  -10.4913   -1.0092 H       1  UNL1        0.1564
     51 H          16.8158  -11.8765   -1.3057 H       1  UNL1        0.0636
     52 H          18.6285  -13.0055   -0.0531 H       1  UNL1        0.0618
     53 H          19.3249  -12.1734    2.1747 H       1  UNL1        0.0618
     54 H          18.0772  -10.3075    3.2353 H       1  UNL1        0.0618
     55 H          16.1936   -9.2719    2.0813 H       1  UNL1        0.0636
     56 H          15.1793   -5.9671    0.2555 H       1  UNL1        0.0636
     57 H          14.8383   -3.7435   -0.0052 H       1  UNL1        0.0621
     58 H           7.0867   -1.2684   -1.2012 H       1  UNL1        0.0621
     59 H           4.6906   -1.1719   -0.9662 H       1  UNL1        0.0626
@<TRIPOS>BOND
     1     1     2    1
     2     2     3    1
     3     3     4    2
     4     3     5    1
     5     5     6   ar
     6     6     7   ar
     7     7     8   ar
     8     8     9    1
     9     9    10    1
    10    10    11   am
    11    11    12    2
    12    11    13   am
    13    13    14    1
    14    14    15    1
    15    14    16    1
    16    16    17   ar
    17    17    18   ar
    18    18    19   ar
    19    19    20    1
    20    20    21   am
    21    21    22    2
    22    21    23   am
    23    23    24    1
    24    24    25   ar
    25    25    26   ar
    26    26    27   ar
    27    27    28   ar
    28    28    29   ar
    29    24    29   ar
    30    19    30   ar
    31    30    31   ar
    32    16    31   ar
    33     8    32   ar
    34    32    33   ar
    35     5    33   ar
    36     1    34    1
    37     1    35    1
    38     1    36    1
    39     6    37    1
    40     7    38    1
    41     9    39    1
    42     9    40    1
    43    10    41    1
    44    13    42    1
    45    14    43    1
    46    15    44    1
    47    15    45    1
    48    15    46    1
    49    17    47    1
    50    18    48    1
    51    20    49    1
    52    23    50    1
    53    25    51    1
    54    26    52    1
    55    27    53    1
    56    28    54    1
    57    29    55    1
    58    30    56    1
    59    31    57    1
    60    32    58    1
    61    33    59    1
