REMARK  7 active torsions:
REMARK  status: ('A' for Active; 'I' for Inactive)
REMARK    1  A    between atoms: C_2  and  C_3 
REMARK    2  A    between atoms: C_3  and  N_4 
REMARK       I    between atoms: N_4  and  C_5 
REMARK    3  A    between atoms: C_5  and  C_7 
REMARK    4  A    between atoms: C_10  and  N_11 
REMARK       I    between atoms: N_11  and  C_12 
REMARK    5  A    between atoms: C_12  and  C_14 
REMARK    6  A    between atoms: C_14  and  N_15 
REMARK       I    between atoms: N_15  and  C_16 
REMARK    7  A    between atoms: C_16  and  C_18 
ROOT
ATOM      1  N   UNL d   1      10.921   1.440  -2.019  0.00  0.00    -0.326 N 
ATOM      2  C   UNL d   1      11.656   0.270  -1.781  0.00  0.00     0.239 C 
ATOM      3  O   UNL d   1      11.181  -0.852  -1.596  0.00  0.00    -0.271 OA
ATOM      4  H   UNL d   1      11.423   2.310  -2.163  0.00  0.00     0.169 HD
ENDROOT
BRANCH   1   5
ATOM      5  C   UNL d   1       9.490   1.502  -2.063  0.00  0.00     0.036 A 
ATOM      6  C   UNL d   1       8.812   2.705  -2.309  0.00  0.00     0.030 A 
ATOM      7  C   UNL d   1       7.393   2.736  -2.337  0.00  0.00     0.021 A 
ATOM      8  C   UNL d   1       6.630   1.573  -2.103  0.00  0.00     0.053 A 
ATOM      9  C   UNL d   1       7.308   0.379  -1.893  0.00  0.00     0.051 A 
ATOM     10  C   UNL d   1       8.706   0.362  -1.867  0.00  0.00     0.054 A 
ATOM     11 CL   UNL d   1       6.528  -1.153  -1.701  0.00  0.00    -0.083 Cl
BRANCH   8  12
ATOM     12  C   UNL d   1       5.140   1.644  -2.133  0.00  0.00     0.253 C 
ATOM     13  N   UNL d   1       4.459   0.963  -1.137  0.00  0.00    -0.357 N 
ATOM     14  H   UNL d   1       4.979   0.384  -0.488  0.00  0.00     0.162 HD
ATOM     15  O   UNL d   1       4.587   2.306  -3.004  0.00  0.00    -0.268 OA
BRANCH  13  16
ATOM     16  C   UNL d   1       3.008   0.888  -1.118  0.00  0.00     0.122 C 
BRANCH  16  17
ATOM     17  C   UNL d   1       2.475   0.057   0.049  0.00  0.00     0.015 C 
ATOM     18  C   UNL d   1       0.952   0.041   0.064  0.00  0.00     0.006 C 
ENDBRANCH  16  17
ENDBRANCH  13  16
ENDBRANCH   8  12
ENDBRANCH   1   5
BRANCH   2  19
ATOM     19  C   UNL d   1      13.181   0.410  -1.739  0.00  0.00     0.226 C 
BRANCH  19  20
ATOM     20  N   UNL d   1      13.771  -0.878  -1.328  0.00  0.00    -0.348 N 
ATOM     21  C   UNL d   1      15.118  -1.189  -1.294  0.00  0.00     0.258 C 
ATOM     22  O   UNL d   1      15.476  -2.255  -1.806  0.00  0.00    -0.267 OA
ATOM     23  H   UNL d   1      13.203  -1.684  -1.585  0.00  0.00     0.163 HD
BRANCH  21  24
ATOM     24  C   UNL d   1      15.997  -0.291  -0.555  0.00  0.00     0.073 A 
ATOM     25  C   UNL d   1      15.666   0.793   0.235  0.00  0.00     0.025 A 
ATOM     26  C   UNL d   1      16.776   1.419   0.841  0.00  0.00     0.015 A 
ATOM     27  C   UNL d   1      17.948   0.750   0.589  0.00  0.00    -0.020 A 
ATOM     28  C   UNL d   1      19.289   1.094   1.137  0.00  0.00     0.056 C 
ATOM     29  S   UNL d   1      17.694  -0.589  -0.451  0.00  0.00    -0.090 SA
ENDBRANCH  21  24
ENDBRANCH  19  20
ENDBRANCH   2  19
TORSDOF 7
