@<TRIPOS>MOLECULE
*****
 72 74 0 0 0
SMALL
GASTEIGER

@<TRIPOS>ATOM
      1 C           1.0049    0.0404   -0.0897 C.3     1  UNL1       -0.0626
      2 C           2.5311    0.0623   -0.0833 C.3     1  UNL1       -0.0436
      3 C           3.0195    1.5105   -0.1727 C.3     1  UNL1       -0.0626
      4 C           3.0639   -0.6423    1.1733 C.3     1  UNL1       -0.0163
      5 C           4.5865   -0.6834    1.1903 C.3     1  UNL1        0.0898
      6 O           5.0223   -1.4084    2.3354 O.3     1  UNL1       -0.4919
      7 C           6.3767   -1.3793    2.5400 C.ar    1  UNL1        0.1212
      8 C           6.9235   -2.5394    3.0902 C.ar    1  UNL1       -0.0199
      9 C           8.2595   -2.5665    3.4688 C.ar    1  UNL1       -0.0576
     10 C           9.0577   -1.4481    3.2334 C.ar    1  UNL1       -0.0494
     11 C           8.5177   -0.2648    2.6812 C.ar    1  UNL1        0.0405
     12 C           9.4178    0.9199    2.5631 C.2     1  UNL1        0.2496
     13 O          10.5612    0.7188    2.9684 O.2     1  UNL1       -0.2698
     14 N           8.9406    2.1643    2.0813 N.am    1  UNL1       -0.2636
     15 C           9.7538    3.2348    1.6707 C.2     1  UNL1        0.1401
     16 S          11.4593    3.1477    1.6801 S.2     1  UNL1       -0.0183
     17 N           9.0586    4.3672    1.1386 N.am    1  UNL1       -0.2988
     18 C           9.7629    5.2342    0.1828 C.3     1  UNL1        0.0301
     19 C           8.8564    5.3889   -1.0199 C.3     1  UNL1        0.0274
     20 N           7.6019    5.9983   -0.6334 N.am    1  UNL1       -0.3123
     21 C           6.9943    5.7444    0.5764 C.2     1  UNL1        0.2341
     22 O           5.8688    6.1996    0.7830 O.2     1  UNL1       -0.2738
     23 C           7.8527    5.0770    1.7176 C.3     1  UNL1        0.1113
     24 C           8.1887    6.2764    2.6860 C.3     1  UNL1        0.0719
     25 C           9.4693    6.1147    3.4495 C.2     1  UNL1        0.3094
     26 O          10.1416    5.0922    3.4365 O.2     1  UNL1       -0.2508
     27 O           9.8630    7.1678    4.1981 O.3     1  UNL1       -0.4646
     28 C          11.1374    6.8573    4.8198 C.3     1  UNL1        0.0928
     29 C          11.4791    7.9703    5.7587 C.3     1  UNL1       -0.0146
     30 C          12.8357    7.8093    6.4575 C.3     1  UNL1       -0.0246
     31 C          13.0761    8.9634    7.4079 C.ar    1  UNL1       -0.0472
     32 C          13.8954    8.8189    8.5320 C.ar    1  UNL1       -0.0586
     33 C          13.9291    9.8296    9.4987 C.ar    1  UNL1       -0.0615
     34 C          13.2314   11.0231    9.3038 C.ar    1  UNL1       -0.0617
     35 C          12.4800   11.2055    8.1549 C.ar    1  UNL1       -0.0615
     36 C          12.4216   10.1914    7.2138 C.ar    1  UNL1       -0.0586
     37 C           7.1720   -0.2443    2.3346 C.ar    1  UNL1       -0.0078
     38 H           0.6169    0.5149   -0.9970 H       1  UNL1        0.0232
     39 H           0.6019    0.5801    0.7741 H       1  UNL1        0.0232
     40 H           0.6272   -0.9864   -0.0571 H       1  UNL1        0.0232
     41 H           2.8883   -0.4819   -0.9672 H       1  UNL1        0.0297
     42 H           2.6944    2.0833    0.7026 H       1  UNL1        0.0232
     43 H           2.6311    1.9993   -1.0706 H       1  UNL1        0.0232
     44 H           4.1100    1.5714   -0.2308 H       1  UNL1        0.0232
     45 H           2.6745   -1.6659    1.2351 H       1  UNL1        0.0300
     46 H           2.7040   -0.1319    2.0771 H       1  UNL1        0.0300
     47 H           4.9461    0.3454    1.2211 H       1  UNL1        0.0696
     48 H           4.9649   -1.1785    0.2892 H       1  UNL1        0.0696
     49 H           6.3041   -3.4223    3.2270 H       1  UNL1        0.0654
     50 H           8.6752   -3.4402    3.9653 H       1  UNL1        0.0619
     51 H          10.1127   -1.5012    3.5065 H       1  UNL1        0.0625
     52 H           7.9810    2.2267    1.7900 H       1  UNL1        0.1568
     53 H          10.7186    4.8282   -0.1387 H       1  UNL1        0.0480
     54 H           9.9552    6.2048    0.6573 H       1  UNL1        0.0480
     55 H           8.6252    4.4026   -1.4386 H       1  UNL1        0.0477
     56 H           9.3266    6.0052   -1.7888 H       1  UNL1        0.0477
     57 H           7.0322    6.4589   -1.3347 H       1  UNL1        0.1488
     58 H           7.2146    4.3435    2.2216 H       1  UNL1        0.0602
     59 H           8.2506    7.2152    2.1151 H       1  UNL1        0.0401
     60 H           7.3670    6.3955    3.4029 H       1  UNL1        0.0401
     61 H          11.9096    6.7872    4.0420 H       1  UNL1        0.0697
     62 H          11.0866    5.9140    5.3802 H       1  UNL1        0.0697
     63 H          10.6778    8.0674    6.5034 H       1  UNL1        0.0301
     64 H          11.4603    8.8767    5.1470 H       1  UNL1        0.0301
     65 H          13.6505    7.7509    5.7262 H       1  UNL1        0.0314
     66 H          12.8335    6.8679    7.0256 H       1  UNL1        0.0314
     67 H          14.4850    7.9169    8.6846 H       1  UNL1        0.0620
     68 H          14.4791    9.6797   10.4235 H       1  UNL1        0.0618
     69 H          13.2744   11.8162   10.0425 H       1  UNL1        0.0618
     70 H          11.9091   12.1129    7.9864 H       1  UNL1        0.0618
     71 H          11.8107   10.3802    6.3383 H       1  UNL1        0.0620
     72 H           6.7379    0.6614    1.9463 H       1  UNL1        0.0662
@<TRIPOS>BOND
     1     1     2    1
     2     2     3    1
     3     2     4    1
     4     4     5    1
     5     5     6    1
     6     6     7    1
     7     7     8   ar
     8     8     9   ar
     9     9    10   ar
    10    10    11   ar
    11    11    12    1
    12    12    13    2
    13    12    14   am
    14    14    15    1
    15    15    16    2
    16    15    17    1
    17    17    18    1
    18    18    19    1
    19    19    20    1
    20    20    21   am
    21    21    22    2
    22    21    23    1
    23    17    23    1
    24    24    25    1
    25    25    26    2
    26    25    27    1
    27    27    28    1
    28    28    29    1
    29    29    30    1
    30    30    31    1
    31    31    32   ar
    32    32    33   ar
    33    33    34   ar
    34    34    35   ar
    35    35    36   ar
    36    31    36   ar
    37    11    37   ar
    38     7    37   ar
    39    23    24    1
    40     1    38    1
    41     1    39    1
    42     1    40    1
    43     2    41    1
    44     3    42    1
    45     3    43    1
    46     3    44    1
    47     4    45    1
    48     4    46    1
    49     5    47    1
    50     5    48    1
    51     8    49    1
    52     9    50    1
    53    10    51    1
    54    14    52    1
    55    18    53    1
    56    18    54    1
    57    19    55    1
    58    19    56    1
    59    20    57    1
    60    23    58    1
    61    24    59    1
    62    24    60    1
    63    28    61    1
    64    28    62    1
    65    29    63    1
    66    29    64    1
    67    30    65    1
    68    30    66    1
    69    32    67    1
    70    33    68    1
    71    34    69    1
    72    35    70    1
    73    36    71    1
    74    37    72    1
