REMARK  10 active torsions:
REMARK  status: ('A' for Active; 'I' for Inactive)
REMARK    1  A    between atoms: C_2  and  C_3 
REMARK       I    between atoms: C_2  and  N_30 
REMARK    2  A    between atoms: C_3  and  S_4 
REMARK    3  A    between atoms: C_5  and  S_4 
REMARK    4  A    between atoms: N_15  and  N_16 
REMARK       I    between atoms: N_16  and  C_17 
REMARK    5  A    between atoms: C_17  and  C_19 
REMARK    6  A    between atoms: C_19  and  C_20 
REMARK    7  A    between atoms: C_20  and  C_21 
REMARK    8  A    between atoms: N_30  and  C_31 
REMARK    9  A    between atoms: C_31  and  C_32 
REMARK   10  A    between atoms: C_32  and  C_33 
ROOT
ATOM      1  C   UNL d   1       2.766  -0.461  -4.145  0.00  0.00     0.274 C 
ATOM      2  N   UNL d   1       3.802   0.563  -4.138  0.00  0.00    -0.358 N 
ATOM      3  C   UNL d   1       4.901   0.422  -4.981  0.00  0.00     0.046 A 
ATOM      4  C   UNL d   1       5.701   1.502  -5.364  0.00  0.00     0.030 A 
ATOM      5  C   UNL d   1       6.839   1.311  -6.173  0.00  0.00     0.002 A 
ATOM      6  C   UNL d   1       7.213   0.036  -6.591  0.00  0.00     0.001 A 
ATOM      7  C   UNL d   1       6.417  -1.039  -6.243  0.00  0.00     0.019 A 
ATOM      8  C   UNL d   1       5.262  -0.831  -5.475  0.00  0.00     0.060 A 
ATOM      9  C   UNL d   1       4.425  -1.984  -5.148  0.00  0.00     0.277 C 
ATOM     10  O   UNL d   1       4.681  -3.032  -5.744  0.00  0.00    -0.266 OA
ATOM     11  N   UNL d   1       3.430  -1.774  -4.189  0.00  0.00    -0.221 N 
ATOM     12  H   UNL d   1       3.592   1.474  -3.759  0.00  0.00     0.162 HD
ENDROOT
BRANCH  11  13
ATOM     13  N   UNL d   1       2.729  -2.904  -3.605  0.00  0.00    -0.262 N 
ATOM     14  C   UNL d   1       3.386  -4.125  -3.463  0.00  0.00     0.236 C 
ATOM     15  O   UNL d   1       4.520  -4.405  -3.836  0.00  0.00    -0.272 OA
ATOM     16  H   UNL d   1       1.985  -2.674  -2.957  0.00  0.00     0.190 HD
BRANCH  14  17
ATOM     17  C   UNL d   1       2.638  -5.187  -2.699  0.00  0.00     0.109 C 
BRANCH  17  18
ATOM     18  C   UNL d   1       3.416  -6.497  -2.908  0.00  0.00     0.046 C 
BRANCH  18  19
ATOM     19  C   UNL d   1       2.905  -7.672  -2.168  0.00  0.00    -0.050 A 
ATOM     20  C   UNL d   1       3.259  -8.934  -2.416  0.00  0.00    -0.006 A 
ATOM     21  C   UNL d   1       4.113  -9.544  -3.378  0.00  0.00     0.014 A 
ATOM     22  C   UNL d   1       2.586  -9.717  -1.370  0.00  0.00     0.038 A 
ATOM     23  C   UNL d   1       4.282 -10.873  -3.321  0.00  0.00     0.001 A 
ATOM     24  C   UNL d   1       3.626 -11.680  -2.301  0.00  0.00     0.002 A 
ATOM     25  C   UNL d   1       2.812 -11.172  -1.354  0.00  0.00     0.030 A 
ATOM     26  N   UNL d   1       1.888  -8.982  -0.589  0.00  0.00    -0.385 N 
ATOM     27  C   UNL d   1       1.993  -7.570  -0.992  0.00  0.00     0.155 A 
ATOM     28  H   UNL d   1       1.354  -9.342   0.197  0.00  0.00     0.160 HD
ENDBRANCH  18  19
ENDBRANCH  17  18
ENDBRANCH  14  17
ENDBRANCH  11  13
BRANCH   1  29
ATOM     29  S   UNL d   1       1.662  -0.205  -5.588  0.00  0.00    -0.112 SA
BRANCH  29  30
ATOM     30  C   UNL d   1      -0.033  -0.074  -4.879  0.00  0.00     0.180 C 
BRANCH  30  31
ATOM     31  C   UNL d   1      -1.071   0.143  -6.013  0.00  0.00     0.227 C 
ATOM     32  O   UNL d   1      -0.788   0.218  -7.207  0.00  0.00    -0.273 OA
ATOM     33  N   UNL d   1      -2.401   0.252  -5.687  0.00  0.00    -0.360 N 
ATOM     34  H   UNL d   1      -3.009   0.380  -6.492  0.00  0.00     0.162 HD
BRANCH  33  35
ATOM     35  C   UNL d   1      -2.975   0.160  -4.368  0.00  0.00     0.127 C 
BRANCH  35  36
ATOM     36  C   UNL d   1      -4.508   0.271  -4.319  0.00  0.00     0.058 C 
BRANCH  36  37
ATOM     37  C   UNL d   1      -5.036   0.203  -2.899  0.00  0.00    -0.057 C 
ATOM     38  C   UNL d   1      -6.180   0.925  -2.534  0.00  0.00     0.007 C 
ATOM     39  C   UNL d   1      -6.556   1.014  -1.191  0.00  0.00     0.001 C 
ATOM     40  C   UNL d   1      -5.870   0.289  -0.219  0.00  0.00     0.000 C 
ATOM     41  C   UNL d   1      -4.830  -0.551  -0.592  0.00  0.00     0.001 C 
ATOM     42  C   UNL d   1      -4.397  -0.568  -1.915  0.00  0.00     0.007 C 
ENDBRANCH  36  37
ENDBRANCH  35  36
ENDBRANCH  33  35
ENDBRANCH  30  31
ENDBRANCH  29  30
ENDBRANCH   1  29
TORSDOF 10
