REMARK  9 active torsions:
REMARK  status: ('A' for Active; 'I' for Inactive)
REMARK    1  A    between atoms: O_2  and  C_3 
REMARK    2  A    between atoms: C_3  and  C_5 
REMARK    3  A    between atoms: C_8  and  N_9 
REMARK    4  A    between atoms: N_9  and  C_10 
REMARK    5  A    between atoms: C_10  and  C_11 
REMARK       I    between atoms: C_11  and  N_13 
REMARK    6  A    between atoms: N_13  and  C_14 
REMARK    7  A    between atoms: C_18  and  C_19 
REMARK       I    between atoms: C_19  and  N_21 
REMARK    8  A    between atoms: N_21  and  C_22 
REMARK    9  A    between atoms: C_26  and  C_27 
ROOT
ATOM      1  C   UNL d   1      13.410   1.089   0.781  0.00  0.00     0.035 A 
ATOM      2  C   UNL d   1      14.274   1.987   1.414  0.00  0.00     0.029 A 
ATOM      3  C   UNL d   1      15.660   1.817   1.303  0.00  0.00     0.003 A 
ATOM      4  C   UNL d   1      16.182   0.741   0.579  0.00  0.00     0.017 A 
ATOM      5  C   UNL d   1      15.326  -0.154  -0.074  0.00  0.00     0.034 A 
ATOM      6  C   UNL d   1      13.947   0.030   0.043  0.00  0.00     0.046 A 
ENDROOT
BRANCH   1   7
ATOM      7  N   UNL d   1      12.005   1.266   0.831  0.00  0.00    -0.326 N 
ATOM      8  C   UNL d   1      11.121   0.186   0.915  0.00  0.00     0.239 C 
ATOM      9  O   UNL d   1      11.482  -0.990   1.010  0.00  0.00    -0.271 OA
ATOM     10  H   UNL d   1      11.659   2.213   0.937  0.00  0.00     0.169 HD
BRANCH   8  11
ATOM     11  C   UNL d   1       9.623   0.542   0.900  0.00  0.00     0.223 C 
BRANCH  11  12
ATOM     12  N   UNL d   1       8.808  -0.657   1.153  0.00  0.00    -0.381 N 
ATOM     13  H   UNL d   1       9.327  -1.536   1.117  0.00  0.00     0.160 HD
BRANCH  12  14
ATOM     14  C   UNL d   1       7.431  -0.694   1.011  0.00  0.00     0.028 A 
ATOM     15  C   UNL d   1       6.736  -1.909   1.115  0.00  0.00     0.030 A 
ATOM     16  C   UNL d   1       5.337  -1.971   0.961  0.00  0.00     0.020 A 
ATOM     17  C   UNL d   1       4.590  -0.801   0.781  0.00  0.00     0.039 A 
ATOM     18  C   UNL d   1       5.262   0.420   0.722  0.00  0.00     0.020 A 
ATOM     19  C   UNL d   1       6.661   0.464   0.844  0.00  0.00     0.030 A 
BRANCH  17  20
ATOM     20  C   UNL d   1       3.106  -0.858   0.815  0.00  0.00     0.292 C 
ATOM     21  O   UNL d   1       2.493  -1.610   1.570  0.00  0.00    -0.259 OA
BRANCH  20  22
ATOM     22  O   UNL d   1       2.545   0.003  -0.070  0.00  0.00    -0.323 OA
ATOM     23  C   UNL d   1       1.108  -0.012  -0.072  0.00  0.00     0.213 C 
ENDBRANCH  20  22
ENDBRANCH  17  20
ENDBRANCH  12  14
ENDBRANCH  11  12
ENDBRANCH   8  11
ENDBRANCH   1   7
BRANCH   5  24
ATOM     24  C   UNL d   1      15.920  -1.243  -0.909  0.00  0.00     0.256 C 
ATOM     25  O   UNL d   1      17.145  -1.337  -0.957  0.00  0.00    -0.267 OA
ATOM     26  N   UNL d   1      15.048  -2.030  -1.653  0.00  0.00    -0.323 N 
ATOM     27  H   UNL d   1      14.077  -1.773  -1.740  0.00  0.00     0.169 HD
BRANCH  26  28
ATOM     28  C   UNL d   1      15.487  -3.037  -2.528  0.00  0.00     0.035 A 
ATOM     29  C   UNL d   1      14.864  -3.184  -3.768  0.00  0.00     0.029 A 
ATOM     30  C   UNL d   1      15.270  -4.198  -4.638  0.00  0.00     0.003 A 
ATOM     31  C   UNL d   1      16.307  -5.055  -4.271  0.00  0.00     0.016 A 
ATOM     32  C   UNL d   1      16.910  -4.939  -3.010  0.00  0.00     0.050 A 
ATOM     33  C   UNL d   1      16.498  -3.916  -2.149  0.00  0.00     0.045 A 
BRANCH  32  34
ATOM     34  C   UNL d   1      17.956  -5.926  -2.572  0.00  0.00     0.417 C 
ATOM     35  F   UNL d   1      17.492  -7.208  -2.609  0.00  0.00    -0.166 F 
ATOM     36  F   UNL d   1      19.061  -5.906  -3.364  0.00  0.00    -0.166 F 
ATOM     37  F   UNL d   1      18.398  -5.732  -1.299  0.00  0.00    -0.166 F 
ENDBRANCH  32  34
ENDBRANCH  26  28
ENDBRANCH   5  24
TORSDOF 9
