@<TRIPOS>MOLECULE
*****
 45 47 0 0 0
SMALL
GASTEIGER

@<TRIPOS>ATOM
      1 C           1.1983   -0.1034    0.4977 C.3     1  UNL1        0.0790
      2 O           2.5869   -0.0917    0.1472 O.3     1  UNL1       -0.4914
      3 C           3.0889   -0.9158   -0.8392 C.ar    1  UNL1        0.1626
      4 C           4.2201   -1.6772   -0.4209 C.ar    1  UNL1        0.0024
      5 C           5.0539   -2.4398   -1.3041 C.ar    1  UNL1        0.1176
      6 C           6.3494   -2.9768   -0.6916 C.2     1  UNL1        0.2549
      7 O           6.5177   -2.8579    0.5157 O.2     1  UNL1       -0.2696
      8 N           7.3428   -3.4560   -1.5241 N.am    1  UNL1       -0.2813
      9 C           8.5292   -4.1440   -1.1706 C.ar    1  UNL1        0.0357
     10 C           9.5482   -4.0341   -2.1162 C.ar    1  UNL1       -0.0398
     11 C          10.7409   -4.7036   -1.9116 C.ar    1  UNL1       -0.0506
     12 C          10.9655   -5.4373   -0.7359 C.ar    1  UNL1        0.0016
     13 C          12.3047   -5.9225   -0.3764 C.ar    1  UNL1       -0.0362
     14 C          13.4813   -5.7554   -1.2637 C.3     1  UNL1       -0.0389
     15 C          12.5481   -6.1979    0.9187 C.ar    1  UNL1        0.0063
     16 C          11.4981   -7.0458    1.5193 C.ar    1  UNL1        0.2494
     17 O          11.8614   -7.9144    2.3265 O.2     1  UNL1       -0.2679
     18 N          10.2105   -6.5767    1.2737 N.ar    1  UNL1       -0.3220
     19 C           9.9244   -5.6607    0.1870 C.ar    1  UNL1        0.0512
     20 C           8.6979   -4.9842   -0.0328 C.ar    1  UNL1       -0.0164
     21 C           4.6236   -2.5244   -2.6348 C.ar    1  UNL1        0.2889
     22 N           5.1368   -3.4777   -3.6293 N.pl3   1  UNL1        0.0805
     23 O           5.8218   -4.4259   -3.2402 O.2     1  UNL1        0.0415
     24 O           4.8436   -3.2968   -4.8184 O.co2   1  UNL1       -0.5760
     25 C           3.5484   -1.7277   -3.0725 C.ar    1  UNL1        0.0616
     26 C           2.7966   -0.9090   -2.2110 C.ar    1  UNL1        0.1680
     27 O           1.9007   -0.1919   -2.9617 O.3     1  UNL1       -0.4912
     28 C           0.9381    0.5336   -2.2510 C.3     1  UNL1        0.0790
     29 H           1.0621    0.2544    1.5222 H       1  UNL1        0.0660
     30 H           0.7287   -1.0822    0.3696 H       1  UNL1        0.0660
     31 H           0.6379    0.6711   -0.0268 H       1  UNL1        0.0660
     32 H           4.4728   -1.6516    0.6429 H       1  UNL1        0.0665
     33 H           7.2100   -3.4210   -2.5273 H       1  UNL1        0.1551
     34 H           9.4606   -3.3874   -2.9906 H       1  UNL1        0.0636
     35 H          11.4941   -4.6029   -2.6835 H       1  UNL1        0.0625
     36 H          13.2917   -5.2062   -2.1838 H       1  UNL1        0.0278
     37 H          13.8514   -6.7470   -1.5349 H       1  UNL1        0.0278
     38 H          14.2563   -5.2029   -0.7257 H       1  UNL1        0.0278
     39 H          12.3933   -5.3770    1.6381 H       1  UNL1        0.0674
     40 H           9.5032   -6.8790    1.9296 H       1  UNL1        0.1689
     41 H           7.8533   -5.1016    0.6381 H       1  UNL1        0.0657
     42 H           3.2724   -1.7170   -4.1300 H       1  UNL1        0.0724
     43 H           0.2377    1.0734   -2.8887 H       1  UNL1        0.0660
     44 H           1.4545    1.2935   -1.6564 H       1  UNL1        0.0660
     45 H           0.3209   -0.1938   -1.7161 H       1  UNL1        0.0660
@<TRIPOS>UNITY_ATOM_ATTR
22 1
charge 1
24 1
charge -1
@<TRIPOS>BOND
     1     1     2    1
     2     2     3    1
     3     3     4   ar
     4     4     5   ar
     5     5     6    1
     6     6     7    2
     7     6     8   am
     8     8     9    1
     9     9    10   ar
    10    10    11   ar
    11    11    12   ar
    12    12    13   ar
    13    13    14    1
    14    13    15   ar
    15    15    16   ar
    16    16    17    2
    17    16    18   ar
    18    18    19   ar
    19    12    19   ar
    20    19    20   ar
    21     9    20   ar
    22     5    21   ar
    23    21    22    1
    24    22    23    2
    25    22    24    1
    26    21    25   ar
    27    25    26   ar
    28     3    26   ar
    29    26    27    1
    30    27    28    1
    31     1    29    1
    32     1    30    1
    33     1    31    1
    34     4    32    1
    35     8    33    1
    36    10    34    1
    37    11    35    1
    38    14    36    1
    39    14    37    1
    40    14    38    1
    41    15    39    1
    42    18    40    1
    43    20    41    1
    44    25    42    1
    45    28    43    1
    46    28    44    1
    47    28    45    1
