@<TRIPOS>MOLECULE
*****
 42 43 0 0 0
SMALL
GASTEIGER

@<TRIPOS>ATOM
      1 C           5.3951    3.6361   -0.1608 C.3     1  UNL1        0.0833
      2 O           5.9812    3.1901   -1.4871 O.3     1  UNL1       -0.4537
      3 C           5.4860    3.0625   -2.7761 C.2     1  UNL1        0.4006
      4 O           4.8742    3.9489   -3.4416 O.2     1  UNL1       -0.2265
      5 N           5.4393    1.7470   -3.2942 N.am    1  UNL1       -0.2695
      6 C           5.4343    0.4718   -2.4805 C.3     1  UNL1        0.1067
      7 C           4.3617    0.1965   -1.1714 C.3     1  UNL1       -0.0005
      8 C           3.2274    1.2226   -0.7001 C.ar    1  UNL1       -0.0451
      9 C           3.0603    2.3338   -1.5054 C.ar    1  UNL1       -0.0585
     10 C           2.6918    3.6734   -1.1973 C.ar    1  UNL1       -0.0615
     11 C           2.2823    3.9126    0.0867 C.ar    1  UNL1       -0.0617
     12 C           2.2793    2.7980    0.9568 C.ar    1  UNL1       -0.0615
     13 C           2.7418    1.4650    0.5784 C.ar    1  UNL1       -0.0585
     14 C           6.9271    0.3053   -2.1369 C.2     1  UNL1        0.2380
     15 O           7.2888    0.0940   -0.9452 O.2     1  UNL1       -0.2734
     16 N           7.8342    0.3943   -3.1964 N.am    1  UNL1       -0.2839
     17 C           9.2409    0.3306   -3.0158 C.ar    1  UNL1        0.0363
     18 C          10.1037    1.1451   -3.7514 C.ar    1  UNL1       -0.0203
     19 C          11.4982    1.0087   -3.6022 C.ar    1  UNL1        0.0647
     20 CL         12.5265    1.9243   -4.6571 Cl      1  UNL1       -0.0815
     21 C          12.0636    0.1301   -2.6568 C.ar    1  UNL1        0.0618
     22 N          13.4588   -0.0643   -2.5713 N.pl3   1  UNL1       -0.3557
     23 C          11.1743   -0.7122   -1.9715 C.ar    1  UNL1        0.0647
     24 CL         11.7629   -1.9560   -0.9200 Cl      1  UNL1       -0.0815
     25 C           9.7893   -0.6015   -2.1332 C.ar    1  UNL1       -0.0203
     26 H           5.8538    3.1562    0.7221 H       1  UNL1        0.0661
     27 H           4.4843    3.1282   -0.0037 H       1  UNL1        0.0661
     28 H           5.1746    4.7047   -0.0064 H       1  UNL1        0.0661
     29 H           5.0976    1.6694   -4.2515 H       1  UNL1        0.1528
     30 H           5.2188   -0.3554   -3.1896 H       1  UNL1        0.0599
     31 H           3.8545   -0.7614   -1.3885 H       1  UNL1        0.0336
     32 H           5.0003   -0.0476   -0.3082 H       1  UNL1        0.0336
     33 H           3.9180    2.2665   -2.0769 H       1  UNL1        0.0620
     34 H           3.2384    4.4972   -1.7045 H       1  UNL1        0.0618
     35 H           2.2863    4.9470    0.4483 H       1  UNL1        0.0618
     36 H           2.1250    3.0171    2.0101 H       1  UNL1        0.0618
     37 H           2.9058    0.7345    1.3630 H       1  UNL1        0.0620
     38 H           7.4914    0.7261   -4.0977 H       1  UNL1        0.1549
     39 H           9.7185    1.9250   -4.4054 H       1  UNL1        0.0651
     40 H          14.0228    0.7295   -2.8658 H       1  UNL1        0.1424
     41 H          13.7747   -0.5065   -1.7098 H       1  UNL1        0.1424
     42 H           9.1406   -1.2833   -1.5912 H       1  UNL1        0.0651
@<TRIPOS>BOND
     1     1     2    1
     2     2     3    1
     3     3     4    2
     4     3     5   am
     5     7     8    1
     6     8     9   ar
     7     9    10   ar
     8    10    11   ar
     9    11    12   ar
    10    12    13   ar
    11     8    13   ar
    12     6    14    1
    13    14    15    2
    14    14    16   am
    15    16    17    1
    16    17    18   ar
    17    18    19   ar
    18    19    20    1
    19    19    21   ar
    20    21    22    1
    21    21    23   ar
    22    23    24    1
    23    23    25   ar
    24    17    25   ar
    25     6     7    1
    26     6     5    1
    27     1    26    1
    28     1    27    1
    29     1    28    1
    30     5    29    1
    31     6    30    1
    32     7    31    1
    33     7    32    1
    34     9    33    1
    35    10    34    1
    36    11    35    1
    37    12    36    1
    38    13    37    1
    39    16    38    1
    40    18    39    1
    41    22    40    1
    42    22    41    1
    43    25    42    1
