REMARK  6 active torsions:
REMARK  status: ('A' for Active; 'I' for Inactive)
REMARK    1  A    between atoms: C_7  and  C_8 
REMARK       I    between atoms: C_8  and  N_10 
REMARK    2  A    between atoms: C_11  and  N_10 
REMARK    3  A    between atoms: C_13  and  C_11 
REMARK    4  A    between atoms: C_13  and  C_15 
REMARK    5  A    between atoms: C_13  and  O_14 
REMARK    6  A    between atoms: C_18  and  O_19 
ROOT
ATOM      1  C   UNL d   1       3.347  -5.786   1.329  0.00  0.00     0.114 C 
ATOM      2  C   UNL d   1       2.868  -4.436   1.527  0.00  0.00     0.035 C 
ENDROOT
BRANCH   1   3
ATOM      3  N   UNL d   1       4.822  -5.832   1.247  0.00  0.00    -0.350 N 
ATOM      4  C   UNL d   1       5.851  -4.895   1.056  0.00  0.00     0.252 C 
ATOM      5  O   UNL d   1       6.979  -5.362   1.090  0.00  0.00    -0.268 OA
ATOM      6  H   UNL d   1       5.203  -6.777   1.311  0.00  0.00     0.163 HD
BRANCH   4   7
ATOM      7  C   UNL d   1       5.699  -3.364   0.845  0.00  0.00     0.033 A 
ATOM      8  C   UNL d   1       6.806  -2.554   0.764  0.00  0.00     0.023 A 
ATOM      9  C   UNL d   1       6.635  -1.139   0.573  0.00  0.00    -0.061 A 
ATOM     10  C   UNL d   1       5.378  -0.481   0.483  0.00  0.00     0.013 A 
ATOM     11  C   UNL d   1       7.848  -0.291   0.456  0.00  0.00     0.048 C 
ATOM     12  C   UNL d   1       4.274  -1.240   0.561  0.00  0.00    -0.061 A 
ATOM     13  C   UNL d   1       2.795  -0.904   0.497  0.00  0.00     0.048 C 
ATOM     14  C   UNL d   1       4.552  -2.588   0.692  0.00  0.00     0.023 A 
ENDBRANCH   4   7
ENDBRANCH   1   3
BRANCH   1  15
ATOM     15  C   UNL d   1       2.624  -6.228   0.012  0.00  0.00     0.173 C 
BRANCH  15  16
ATOM     16  C   UNL d   1       2.569  -7.697  -0.030  0.00  0.00    -0.028 A 
ATOM     17  C   UNL d   1       2.631  -8.345  -1.258  0.00  0.00     0.012 A 
ATOM     18  C   UNL d   1       2.648  -9.727  -1.262  0.00  0.00     0.037 A 
ATOM     19  C   UNL d   1       2.619 -10.420  -0.048  0.00  0.00     0.065 A 
ATOM     20  C   UNL d   1       2.547  -9.775   1.168  0.00  0.00     0.037 A 
ATOM     21  C   UNL d   1       2.485  -8.413   1.171  0.00  0.00     0.012 A 
BRANCH  19  22
ATOM     22  O   UNL d   1       2.648 -11.776   0.013  0.00  0.00    -0.361 OA
ATOM     23  H   UNL d   1       2.689 -12.106  -0.895  0.00  0.00     0.217 HD
ENDBRANCH  19  22
ENDBRANCH  15  16
BRANCH  15  24
ATOM     24  O   UNL d   1       1.278  -5.734  -0.100  0.00  0.00    -0.389 OA
ATOM     25  H   UNL d   1       0.821  -5.933   0.734  0.00  0.00     0.210 HD
ENDBRANCH  15  24
ENDBRANCH   1  15
TORSDOF 6
