REMARK  9 active torsions:
REMARK  status: ('A' for Active; 'I' for Inactive)
REMARK    1  A    between atoms: C_2  and  N_12 
REMARK    2  A    between atoms: C_2  and  C_3 
REMARK    3  A    between atoms: C_3  and  C_4 
REMARK    4  A    between atoms: C_4  and  C_5 
REMARK    5  A    between atoms: C_8  and  O_9 
REMARK       I    between atoms: N_12  and  C_13 
REMARK    6  A    between atoms: C_13  and  C_15 
REMARK       I    between atoms: C_15  and  N_17 
REMARK    7  A    between atoms: N_17  and  C_18 
REMARK    8  A    between atoms: C_22  and  C_23 
REMARK    9  A    between atoms: C_23  and  N_24 
ROOT
ATOM      1  C   UNL d   1       4.915   0.885  -3.061  0.00  0.00     0.313 C 
ATOM      2  O   UNL d   1       4.006   0.903  -3.889  0.00  0.00    -0.262 OA
ATOM      3  N   UNL d   1       6.284   1.124  -3.333  0.00  0.00    -0.319 N 
ATOM      4  H   UNL d   1       6.925   0.893  -2.577  0.00  0.00     0.169 HD
ENDROOT
BRANCH   1   5
ATOM      5  C   UNL d   1       4.515   0.636  -1.557  0.00  0.00     0.310 C 
ATOM      6  N   UNL d   1       3.124   0.617  -1.318  0.00  0.00    -0.349 N 
ATOM      7  H   UNL d   1       2.512   0.802  -2.105  0.00  0.00     0.163 HD
ATOM      8  O   UNL d   1       5.373   0.476  -0.725  0.00  0.00    -0.262 OA
BRANCH   6   9
ATOM      9  C   UNL d   1       2.535   0.051  -0.089  0.00  0.00     0.081 C 
ATOM     10  C   UNL d   1       2.980  -1.404   0.090  0.00  0.00     0.032 C 
BRANCH   9  11
ATOM     11  C   UNL d   1       0.983   0.089  -0.090  0.00  0.00     0.029 C 
BRANCH  11  12
ATOM     12  C   UNL d   1       0.433   0.733   1.191  0.00  0.00     0.040 C 
BRANCH  12  13
ATOM     13  C   UNL d   1      -1.076   0.739   1.208  0.00  0.00    -0.058 A 
ATOM     14  C   UNL d   1      -1.790   1.922   0.967  0.00  0.00     0.010 A 
ATOM     15  C   UNL d   1      -3.189   1.918   0.952  0.00  0.00     0.037 A 
ATOM     16  C   UNL d   1      -3.871   0.726   1.175  0.00  0.00     0.065 A 
ATOM     17  C   UNL d   1      -3.179  -0.452   1.426  0.00  0.00     0.037 A 
ATOM     18  C   UNL d   1      -1.785  -0.447   1.444  0.00  0.00     0.010 A 
BRANCH  16  19
ATOM     19  O   UNL d   1      -5.232   0.655   1.154  0.00  0.00    -0.361 OA
ATOM     20  H   UNL d   1      -5.597   1.534   0.962  0.00  0.00     0.217 HD
ENDBRANCH  16  19
ENDBRANCH  12  13
ENDBRANCH  11  12
ENDBRANCH   9  11
ENDBRANCH   6   9
ENDBRANCH   1   5
BRANCH   3  21
ATOM     21  C   UNL d   1       6.836   1.616  -4.578  0.00  0.00     0.035 C 
ATOM     22  C   UNL d   1       7.988   1.217  -5.189  0.00  0.00     0.029 C 
ATOM     23  C   UNL d   1       8.454   1.926  -6.346  0.00  0.00     0.003 C 
ATOM     24  C   UNL d   1       7.849   3.118  -6.842  0.00  0.00     0.009 C 
ATOM     25  C   UNL d   1       6.771   3.619  -6.152  0.00  0.00    -0.030 C 
ATOM     26  C   UNL d   1       6.310   2.744  -5.173  0.00  0.00     0.038 C 
BRANCH  25  27
ATOM     27  C   UNL d   1       6.051   4.958  -6.319  0.00  0.00     0.273 C 
BRANCH  27  28
ATOM     28  N   UNL d   1       5.032   5.423  -5.163  0.00  0.00    -0.067 N 
ATOM     29  C   UNL d   1       5.670   5.792  -3.804  0.00  0.00     0.235 C 
ATOM     30  C   UNL d   1       5.546   4.554  -2.952  0.00  0.00     0.029 C 
ATOM     31  C   UNL d   1       4.188   3.992  -3.394  0.00  0.00     0.029 C 
ATOM     32  C   UNL d   1       3.876   4.468  -4.832  0.00  0.00     0.235 C 
ATOM     33  H   UNL d   1       4.596   6.276  -5.535  0.00  0.00     0.280 HD
ENDBRANCH  27  28
ENDBRANCH  25  27
ENDBRANCH   3  21
TORSDOF 9
