@<TRIPOS>MOLECULE
*****
 39 39 0 0 0
SMALL
GASTEIGER

@<TRIPOS>ATOM
      1 C           0.9472   -0.0091   -0.0843 C.3     1  UNL1       -0.0653
      2 C           2.4692    0.0048   -0.0844 C.3     1  UNL1       -0.0559
      3 C           3.0160    1.4362   -0.1042 C.3     1  UNL1       -0.0519
      4 C           4.5543    1.4611   -0.1044 C.3     1  UNL1       -0.0373
      5 C           5.1097    2.8945   -0.1238 C.3     1  UNL1        0.0131
      6 N           6.5763    2.9725   -0.1253 N.am    1  UNL1       -0.2982
      7 C           7.2331    4.1901   -0.1473 C.2     1  UNL1        0.3160
      8 O           6.6395    5.2682   -0.1633 O.2     1  UNL1       -0.2513
      9 N           8.6209    4.1137   -0.1606 N.am    1  UNL1       -0.2180
     10 N           9.3821    5.3315   -0.1925 N.am    1  UNL1       -0.2291
     11 C          10.7744    5.3218   -0.1831 C.2     1  UNL1        0.2616
     12 O          11.4376    4.2829   -0.2175 O.2     1  UNL1       -0.2686
     13 C          11.4945    6.6519   -0.1754 C.ar    1  UNL1        0.0568
     14 C          12.6285    6.8216   -1.0051 C.ar    1  UNL1       -0.0418
     15 C          13.3385    8.0416   -1.0461 C.ar    1  UNL1        0.0164
     16 C          12.9299    9.1068   -0.2369 C.ar    1  UNL1        0.2746
     17 N          13.6420   10.3981   -0.2819 N.pl3   1  UNL1        0.0796
     18 O          14.5989   10.5037   -1.0611 O.2     1  UNL1        0.0414
     19 O          13.2344   11.3049    0.4581 O.co2   1  UNL1       -0.5760
     20 C          11.8369    8.9445    0.6222 C.ar    1  UNL1        0.0346
     21 C          11.1325    7.7233    0.6568 C.ar    1  UNL1        0.0595
     22 CL          9.8581    7.6065    1.8156 Cl      1  UNL1       -0.0825
     23 H           0.5732   -1.0380   -0.0700 H       1  UNL1        0.0230
     24 H           0.5514    0.4832   -0.9784 H       1  UNL1        0.0230
     25 H           0.5514    0.5078    0.7959 H       1  UNL1        0.0230
     26 H           2.8320   -0.5468   -0.9596 H       1  UNL1        0.0263
     27 H           2.8319   -0.5225    0.8056 H       1  UNL1        0.0263
     28 H           2.6349    1.9784    0.7702 H       1  UNL1        0.0266
     29 H           2.6350    1.9540   -0.9933 H       1  UNL1        0.0266
     30 H           4.9212    0.9086   -0.9777 H       1  UNL1        0.0280
     31 H           4.9211    0.9326    0.7837 H       1  UNL1        0.0280
     32 H           4.7430    3.4436    0.7516 H       1  UNL1        0.0462
     33 H           4.7429    3.4191   -1.0141 H       1  UNL1        0.0462
     34 H           7.1076    2.1150   -0.1120 H       1  UNL1        0.1503
     35 H           9.1468    3.2466   -0.1267 H       1  UNL1        0.1744
     36 H           8.8271    6.1861   -0.1436 H       1  UNL1        0.1732
     37 H          12.9724    6.0020   -1.6373 H       1  UNL1        0.0628
     38 H          14.1991    8.1446   -1.7091 H       1  UNL1        0.0685
     39 H          11.5277    9.7600    1.2756 H       1  UNL1        0.0700
@<TRIPOS>UNITY_ATOM_ATTR
17 1
charge 1
19 1
charge -1
@<TRIPOS>BOND
     1     1     2    1
     2     2     3    1
     3     3     4    1
     4     4     5    1
     5     5     6    1
     6     6     7   am
     7     7     8    2
     8     7     9   am
     9     9    10    1
    10    10    11   am
    11    11    12    2
    12    11    13    1
    13    13    14   ar
    14    14    15   ar
    15    15    16   ar
    16    16    17    1
    17    17    18    2
    18    17    19    1
    19    16    20   ar
    20    20    21   ar
    21    13    21   ar
    22    21    22    1
    23     1    23    1
    24     1    24    1
    25     1    25    1
    26     2    26    1
    27     2    27    1
    28     3    28    1
    29     3    29    1
    30     4    30    1
    31     4    31    1
    32     5    32    1
    33     5    33    1
    34     6    34    1
    35     9    35    1
    36    10    36    1
    37    14    37    1
    38    15    38    1
    39    20    39    1
