REMARK  13 active torsions:
REMARK  status: ('A' for Active; 'I' for Inactive)
REMARK    1  A    between atoms: C_2  and  O_3 
REMARK    2  A    between atoms: O_3  and  C_4 
REMARK    3  A    between atoms: C_6  and  C_7 
REMARK    4  A    between atoms: C_9  and  N_10 
REMARK    5  A    between atoms: C_13  and  C_14 
REMARK    6  A    between atoms: C_24  and  O_25 
REMARK    7  A    between atoms: O_25  and  C_26 
REMARK    8  A    between atoms: C_26  and  C_27 
REMARK    9  A    between atoms: C_27  and  O_28 
REMARK   10  A    between atoms: O_28  and  C_29 
REMARK   11  A    between atoms: C_29  and  C_30 
REMARK   12  A    between atoms: C_30  and  O_31 
REMARK   13  A    between atoms: O_31  and  C_32 
ROOT
ATOM      1  C   UNL d   1       4.257   0.963  -1.228  0.00  0.00     0.102 C 
ATOM      2  C   UNL d   1       4.832   2.208  -1.554  0.00  0.00     0.051 C 
ATOM      3  C   UNL d   1       6.204   2.293  -1.816  0.00  0.00    -0.032 C 
ATOM      4  C   UNL d   1       7.011   1.227  -1.504  0.00  0.00     0.014 C 
ATOM      5  C   UNL d   1       6.478  -0.024  -1.401  0.00  0.00     0.040 C 
ATOM      6  C   UNL d   1       5.112  -0.186  -1.249  0.00  0.00     0.102 C 
ENDROOT
BRANCH   3   7
ATOM      7  C   UNL d   1       6.809   3.419  -2.503  0.00  0.00     0.032 C 
ATOM      8  C   UNL d   1       8.013   3.489  -3.119  0.00  0.00     0.082 C 
ATOM      9  C   UNL d   1       8.165   4.806  -3.733  0.00  0.00     0.162 C 
ATOM     10  C   UNL d   1       9.224   2.509  -3.380  0.00  0.00     0.283 C 
ATOM     11  N   UNL d   1       9.405   5.088  -4.153  0.00  0.00    -0.189 N 
ATOM     12  N   UNL d   1       9.587   6.410  -4.201  0.00  0.00    -0.161 NA
ATOM     13  C   UNL d   1      10.448   4.254  -4.306  0.00  0.00     0.201 C 
ATOM     14  C   UNL d   1      10.420   6.661  -5.139  0.00  0.00     0.102 C 
ATOM     15  S   UNL d   1      11.620   5.276  -5.255  0.00  0.00    -0.033 SA
ATOM     16  N   UNL d   1      10.469   3.032  -3.853  0.00  0.00    -0.182 NA
ATOM     17  O   UNL d   1       9.044   1.295  -3.333  0.00  0.00    -0.265 OA
BRANCH   9  18
ATOM     18  N   UNL d   1       7.338   5.800  -3.874  0.00  0.00    -0.281 NA
ATOM     19  H   UNL d   1       6.443   5.775  -3.433  0.00  0.00     0.188 HD
ENDBRANCH   9  18
BRANCH  14  20
ATOM     20  C   UNL d   1      10.303   8.081  -5.746  0.00  0.00     0.038 C 
ATOM     21  C   UNL d   1      10.504   7.947  -7.234  0.00  0.00     0.016 C 
ATOM     22  C   UNL d   1       9.025   9.044  -5.622  0.00  0.00     0.016 C 
ENDBRANCH  14  20
ENDBRANCH   3   7
BRANCH   1  23
ATOM     23  O   UNL d   1       2.876   1.043  -1.140  0.00  0.00    -0.349 OA
BRANCH  23  24
ATOM     24  C   UNL d   1       2.248   0.579   0.052  0.00  0.00     0.171 C 
ATOM     25  C   UNL d   1       0.748   0.453  -0.007  0.00  0.00     0.034 C 
ENDBRANCH  23  24
ENDBRANCH   1  23
BRANCH   6  26
ATOM     26  O   UNL d   1       4.901  -1.550  -1.126  0.00  0.00    -0.346 OA
BRANCH  26  27
ATOM     27  C   UNL d   1       3.664  -1.771  -0.556  0.00  0.00     0.201 C 
BRANCH  27  28
ATOM     28  C   UNL d   1       3.188  -3.122  -0.130  0.00  0.00     0.194 C 
BRANCH  28  29
ATOM     29  O   UNL d   1       1.790  -3.017   0.237  0.00  0.00    -0.387 OA
BRANCH  29  30
ATOM     30  C   UNL d   1       1.345  -4.299   0.671  0.00  0.00     0.194 C 
BRANCH  30  31
ATOM     31  C   UNL d   1      -0.130  -4.347   1.061  0.00  0.00     0.201 C 
BRANCH  31  32
ATOM     32  O   UNL d   1      -0.385  -5.675   1.537  0.00  0.00    -0.349 OA
BRANCH  32  33
ATOM     33  C   UNL d   1      -1.686  -5.990   1.809  0.00  0.00     0.068 A 
ATOM     34  C   UNL d   1      -1.894  -6.884   2.863  0.00  0.00     0.037 A 
ATOM     35  C   UNL d   1      -3.174  -7.375   3.132  0.00  0.00     0.003 A 
ATOM     36  C   UNL d   1      -4.262  -6.923   2.389  0.00  0.00     0.000 A 
ATOM     37  C   UNL d   1      -4.060  -6.022   1.344  0.00  0.00     0.003 A 
ATOM     38  C   UNL d   1      -2.773  -5.568   1.045  0.00  0.00     0.037 A 
ENDBRANCH  32  33
ENDBRANCH  31  32
ENDBRANCH  30  31
ENDBRANCH  29  30
ENDBRANCH  28  29
ENDBRANCH  27  28
ENDBRANCH  26  27
ENDBRANCH   6  26
TORSDOF 13
