@<TRIPOS>MOLECULE
*****
 67 70 0 0 0
SMALL
GASTEIGER

@<TRIPOS>ATOM
      1 C           6.8562   -2.8329    0.6575 C.3     1  UNL1       -0.0650
      2 C           6.5540   -1.7790   -0.4003 C.3     1  UNL1       -0.0512
      3 C           5.0857   -1.3306   -0.3007 C.3     1  UNL1       -0.0171
      4 C           4.8643   -0.8169    1.1348 C.3     1  UNL1       -0.0603
      5 C           4.5698   -0.3029   -1.3684 C.3     1  UNL1        0.1022
      6 N           3.0716   -0.2851   -1.3493 N.am    1  UNL1       -0.2996
      7 C           2.3727    0.2552   -0.2992 C.2     1  UNL1        0.2498
      8 O           2.9689    0.8896    0.5777 O.2     1  UNL1       -0.2700
      9 C           0.8922    0.1180   -0.2034 C.ar    1  UNL1        0.1000
     10 C           0.1238   -0.8451   -0.7402 C.ar    1  UNL1        0.0209
     11 N          -1.2699   -1.0068   -0.6028 N.ar    1  UNL1       -0.3459
     12 C          -2.0392   -2.0814   -1.2816 C.3     1  UNL1        0.0205
     13 C          -1.1763   -3.0030   -2.1494 C.3     1  UNL1       -0.0471
     14 C          -1.9812   -0.1216    0.2739 C.ar    1  UNL1        0.0565
     15 C          -3.3618   -0.1810    0.6068 C.ar    1  UNL1        0.0081
     16 C          -3.8640    0.6709    1.6115 C.ar    1  UNL1        0.1682
     17 C          -3.0827    1.6365    2.1895 C.ar    1  UNL1        0.1670
     18 C          -1.7942    1.8210    1.8115 C.ar    1  UNL1       -0.0033
     19 C          -1.2433    0.9097    0.9065 C.ar    1  UNL1        0.0496
     20 C           0.1902    1.0672    0.6810 C.ar    1  UNL1        0.2016
     21 O           0.7665    1.9925    1.2511 O.2     1  UNL1       -0.2864
     22 O          -3.6854    2.3607    3.1605 O.3     1  UNL1       -0.4526
     23 C          -4.9767    1.7443    3.1753 C.3     1  UNL1        0.2332
     24 O          -5.1133    0.6913    2.1736 O.3     1  UNL1       -0.4525
     25 C           5.0407   -0.6307   -2.8281 C.2     1  UNL1        0.2336
     26 O           4.2411   -0.9122   -3.7228 O.2     1  UNL1       -0.2738
     27 N           6.4076   -0.5869   -3.0770 N.am    1  UNL1       -0.3137
     28 C           6.9686   -1.0212   -4.3455 C.3     1  UNL1        0.0133
     29 C           8.4984   -1.0477   -4.3407 C.3     1  UNL1       -0.0192
     30 C           9.0472   -1.4213   -5.7159 C.3     1  UNL1        0.0296
     31 N          10.5187   -1.4397   -5.7207 N.ar    1  UNL1       -0.2957
     32 C          11.3233   -2.5753   -5.7315 C.ar    1  UNL1        0.0732
     33 C          12.6197   -2.1433   -5.7420 C.ar    1  UNL1        0.1870
     34 N          12.5675   -0.7698   -5.7428 N.ar    1  UNL1       -0.2011
     35 C          11.3003   -0.3464   -5.7390 C.ar    1  UNL1        0.2463
     36 H           7.8628   -3.2309    0.5486 H       1  UNL1        0.0230
     37 H           6.1248   -3.6439    0.5743 H       1  UNL1        0.0230
     38 H           6.8086   -2.4319    1.6709 H       1  UNL1        0.0230
     39 H           6.7513   -2.2569   -1.3641 H       1  UNL1        0.0266
     40 H           7.2319   -0.9230   -0.2905 H       1  UNL1        0.0266
     41 H           4.4758   -2.2337   -0.4348 H       1  UNL1        0.0321
     42 H           5.2858    0.1885    1.2544 H       1  UNL1        0.0233
     43 H           5.2779   -1.4299    1.9293 H       1  UNL1        0.0233
     44 H           3.8123   -0.8633    1.3993 H       1  UNL1        0.0233
     45 H           4.9164    0.7141   -1.1363 H       1  UNL1        0.0597
     46 H           2.5917   -0.5289   -2.2097 H       1  UNL1        0.1498
     47 H           0.6142   -1.6122   -1.3289 H       1  UNL1        0.0818
     48 H          -2.7995   -1.6295   -1.9307 H       1  UNL1        0.0489
     49 H          -2.5508   -2.7059   -0.5389 H       1  UNL1        0.0489
     50 H          -0.6519   -2.4354   -2.9275 H       1  UNL1        0.0247
     51 H          -1.7808   -3.7633   -2.6518 H       1  UNL1        0.0247
     52 H          -0.4288   -3.5282   -1.5426 H       1  UNL1        0.0247
     53 H          -4.0391   -0.8739    0.1180 H       1  UNL1        0.0676
     54 H          -1.2111    2.6263    2.2428 H       1  UNL1        0.0663
     55 H          -5.7164    2.5323    2.9935 H       1  UNL1        0.1166
     56 H          -5.1508    1.3404    4.1824 H       1  UNL1        0.1166
     57 H           7.0358   -0.3391   -2.3235 H       1  UNL1        0.1487
     58 H           6.6013   -0.3350   -5.1150 H       1  UNL1        0.0462
     59 H           6.5774   -2.0206   -4.5723 H       1  UNL1        0.0462
     60 H           8.8670   -1.7628   -3.5938 H       1  UNL1        0.0297
     61 H           8.8908   -0.0679   -4.0428 H       1  UNL1        0.0297
     62 H           8.7210   -0.7015   -6.4756 H       1  UNL1        0.0494
     63 H           8.6883   -2.4113   -6.0209 H       1  UNL1        0.0494
     64 H          10.8665   -3.5506   -5.7287 H       1  UNL1        0.0871
     65 H          13.5780   -2.6329   -5.7490 H       1  UNL1        0.1392
     66 H          13.3762   -0.1514   -5.7494 H       1  UNL1        0.4538
     67 H          10.9702    0.6863   -5.7412 H       1  UNL1        0.1600
@<TRIPOS>UNITY_ATOM_ATTR
34 1
charge 1
@<TRIPOS>BOND
     1     1     2    1
     2     6     7   am
     3     7     8    2
     4     7     9    1
     5     9    10   ar
     6    10    11   ar
     7    11    12    1
     8    12    13    1
     9    11    14   ar
    10    14    15   ar
    11    15    16   ar
    12    16    17   ar
    13    17    18   ar
    14    18    19   ar
    15    14    19   ar
    16    19    20   ar
    17     9    20   ar
    18    20    21    2
    19    17    22    1
    20    22    23    1
    21    23    24    1
    22    16    24    1
    23     5    25    1
    24    25    26    2
    25    25    27   am
    26    27    28    1
    27    28    29    1
    28    29    30    1
    29    30    31    1
    30    31    32   ar
    31    32    33   ar
    32    33    34   ar
    33    34    35   ar
    34    31    35   ar
    35     5     6    1
    36     5     3    1
    37     3     4    1
    38     3     2    1
    39     1    36    1
    40     1    37    1
    41     1    38    1
    42     2    39    1
    43     2    40    1
    44     3    41    1
    45     4    42    1
    46     4    43    1
    47     4    44    1
    48     5    45    1
    49     6    46    1
    50    10    47    1
    51    12    48    1
    52    12    49    1
    53    13    50    1
    54    13    51    1
    55    13    52    1
    56    15    53    1
    57    18    54    1
    58    23    55    1
    59    23    56    1
    60    27    57    1
    61    28    58    1
    62    28    59    1
    63    29    60    1
    64    29    61    1
    65    30    62    1
    66    30    63    1
    67    32    64    1
    68    33    65    1
    69    34    66    1
    70    35    67    1
