REMARK  6 active torsions:
REMARK  status: ('A' for Active; 'I' for Inactive)
REMARK    1  A    between atoms: O_2  and  C_3 
REMARK    2  A    between atoms: C_5  and  O_6 
REMARK    3  A    between atoms: C_9  and  C_10 
REMARK       I    between atoms: C_10  and  N_12 
REMARK       I    between atoms: N_12  and  C_13 
REMARK       I    between atoms: C_13  and  N_14 
REMARK       I    between atoms: C_13  and  N_22 
REMARK    4  A    between atoms: N_14  and  C_15 
REMARK    5  A    between atoms: C_15  and  C_16 
REMARK    6  A    between atoms: N_22  and  C_23 
ROOT
ATOM      1  C   UNL d   1       2.926   3.279  -3.591  0.00  0.00     0.294 C 
ATOM      2  O   UNL d   1       3.598   3.682  -4.545  0.00  0.00    -0.265 OA
ATOM      3  N   UNL d   1       1.824   3.903  -3.068  0.00  0.00    -0.023 NA
ATOM      4  C   UNL d   1       1.383   4.988  -3.626  0.00  0.00     0.704 C 
ATOM      5  N   UNL d   1       0.203   5.523  -3.212  0.00  0.00    -0.220 N 
ATOM      6  N   UNL d   1       1.949   5.627  -4.702  0.00  0.00    -0.190 N 
ATOM      7  H   UNL d   1      -0.089   6.323  -3.744  0.00  0.00     0.178 HD
ATOM      8  H   UNL d   1       2.782   5.163  -5.073  0.00  0.00     0.184 HD
ENDROOT
BRANCH   5   9
ATOM      9  C   UNL d   1      -0.495   5.255  -1.972  0.00  0.00     0.178 C 
BRANCH   9  10
ATOM     10  C   UNL d   1      -1.552   6.301  -1.656  0.00  0.00    -0.022 A 
ATOM     11  C   UNL d   1      -2.117   7.151  -2.617  0.00  0.00     0.012 A 
ATOM     12  C   UNL d   1      -3.058   8.111  -2.256  0.00  0.00     0.020 A 
ATOM     13  C   UNL d   1      -3.460   8.167  -0.937  0.00  0.00     0.116 A 
ATOM     14  N   UNL d   1      -2.983   7.345   0.020  0.00  0.00    -0.273 NA
ATOM     15  C   UNL d   1      -2.045   6.438  -0.357  0.00  0.00     0.124 A 
ENDBRANCH   9  10
ENDBRANCH   5   9
BRANCH   6  16
ATOM     16  C   UNL d   1       1.692   6.873  -5.305  0.00  0.00     0.055 A 
ATOM     17  C   UNL d   1       1.693   6.914  -6.716  0.00  0.00     0.037 A 
ATOM     18  C   UNL d   1       1.455   8.106  -7.412  0.00  0.00    -0.060 A 
ATOM     19  C   UNL d   1       1.679   8.214  -8.891  0.00  0.00     0.048 C 
ATOM     20  C   UNL d   1       1.087   9.243  -6.697  0.00  0.00     0.007 A 
ATOM     21  C   UNL d   1       1.095   9.225  -5.306  0.00  0.00     0.009 A 
ATOM     22  C   UNL d   1       1.434   8.063  -4.594  0.00  0.00    -0.035 A 
ATOM     23  C   UNL d   1       1.578   8.187  -3.100  0.00  0.00     0.050 C 
ENDBRANCH   6  16
BRANCH   1  24
ATOM     24  C   UNL d   1       3.300   1.999  -2.941  0.00  0.00     0.040 A 
ATOM     25  C   UNL d   1       4.420   1.316  -3.415  0.00  0.00     0.054 A 
ATOM     26  C   UNL d   1       4.880   0.181  -2.755  0.00  0.00     0.071 A 
ATOM     27  C   UNL d   1       4.132  -0.339  -1.691  0.00  0.00     0.073 A 
ATOM     28  C   UNL d   1       2.987   0.326  -1.230  0.00  0.00     0.071 A 
ATOM     29  C   UNL d   1       2.588   1.510  -1.843  0.00  0.00     0.054 A 
BRANCH  26  30
ATOM     30  O   UNL d   1       6.059  -0.452  -3.056  0.00  0.00    -0.356 OA
ATOM     31  C   UNL d   1       6.898   0.218  -4.003  0.00  0.00     0.210 C 
ENDBRANCH  26  30
BRANCH  28  32
ATOM     32  O   UNL d   1       2.386  -0.177  -0.107  0.00  0.00    -0.356 OA
ATOM     33  C   UNL d   1       0.963  -0.071  -0.080  0.00  0.00     0.210 C 
ENDBRANCH  28  32
ENDBRANCH   1  24
TORSDOF 6
