@<TRIPOS>MOLECULE
*****
 58 60 0 0 0
SMALL
GASTEIGER

@<TRIPOS>ATOM
      1 C           1.0848    0.0550    0.0361 C.3     1  UNL1       -0.0306
      2 C           2.6068    0.0497    0.0123 C.3     1  UNL1        0.0900
      3 O           3.0839   -0.1791   -1.3300 O.3     1  UNL1       -0.4614
      4 C           4.4418   -0.2696   -1.4337 C.2     1  UNL1        0.3392
      5 O           5.2371   -0.1676   -0.5129 O.2     1  UNL1       -0.2450
      6 C           4.8772   -0.4980   -2.8398 C.ar    1  UNL1        0.0592
      7 C           5.9677   -1.3247   -3.1534 C.ar    1  UNL1       -0.0445
      8 C           6.4691   -1.4098   -4.4861 C.ar    1  UNL1       -0.0224
      9 C           5.8517   -0.7127   -5.5449 C.ar    1  UNL1        0.0998
     10 N           6.2714   -0.8325   -6.9084 N.pl3   1  UNL1       -0.2450
     11 C           5.6513   -0.2830   -8.0455 C.2     1  UNL1        0.3844
     12 N           4.6462    0.5439   -7.9240 N.am    1  UNL1        0.0006
     13 C           3.9018    1.1948   -8.8647 C.2     1  UNL1        0.3406
     14 O           4.0518    1.3471  -10.0833 O.2     1  UNL1       -0.2484
     15 C           2.7749    2.0046   -8.4626 C.ar    1  UNL1        0.0564
     16 C           1.6865    2.0141   -9.3477 C.ar    1  UNL1       -0.0478
     17 C           0.7768    3.0465   -9.2977 C.ar    1  UNL1       -0.0578
     18 C           0.8932    4.0126   -8.2941 C.ar    1  UNL1       -0.0475
     19 C          -0.2341    4.9821   -8.1212 C.3     1  UNL1       -0.0395
     20 C           2.0109    4.0165   -7.4271 C.ar    1  UNL1       -0.0468
     21 C           2.2545    5.0977   -6.4197 C.3     1  UNL1       -0.0394
     22 C           2.9668    3.0059   -7.5247 C.ar    1  UNL1       -0.0449
     23 N           6.2228   -0.7302   -9.2255 N.pl3   1  UNL1       -0.2729
     24 C           5.7871   -0.1691  -10.4819 C.3     1  UNL1        0.0912
     25 C           6.3941   -0.5796  -11.7607 C.ar    1  UNL1        0.0040
     26 C           6.8733    0.3860  -12.6569 C.ar    1  UNL1       -0.0527
     27 C           7.3304   -0.0215  -13.8940 C.ar    1  UNL1       -0.0432
     28 C           7.2427   -1.3709  -14.1940 C.ar    1  UNL1        0.0276
     29 N           6.6948   -2.3085  -13.3855 N.ar    1  UNL1       -0.2629
     30 C           6.2603   -1.8844  -12.1897 C.ar    1  UNL1        0.0337
     31 C           4.7966    0.1283   -5.1640 C.ar    1  UNL1       -0.0224
     32 C           4.3000    0.2341   -3.8606 C.ar    1  UNL1       -0.0445
     33 H           0.7103    0.2280    1.0517 H       1  UNL1        0.0262
     34 H           0.6843   -0.8995   -0.3201 H       1  UNL1        0.0262
     35 H           0.6842    0.8374   -0.6163 H       1  UNL1        0.0262
     36 H           2.9698   -0.7436    0.6758 H       1  UNL1        0.0695
     37 H           2.9729    1.0188    0.3709 H       1  UNL1        0.0695
     38 H           6.4346   -1.9054   -2.3579 H       1  UNL1        0.0627
     39 H           7.3568   -2.0201   -4.6498 H       1  UNL1        0.0652
     40 H           6.9883   -1.5291   -7.0599 H       1  UNL1        0.2646
     41 H           1.6204    1.2699  -10.1407 H       1  UNL1        0.0626
     42 H          -0.0025    3.0989  -10.0536 H       1  UNL1        0.0620
     43 H          -1.0262    4.8097   -8.8563 H       1  UNL1        0.0278
     44 H           0.1127    6.0120   -8.2244 H       1  UNL1        0.0278
     45 H          -0.6682    4.8219   -7.1291 H       1  UNL1        0.0278
     46 H           1.4494    5.8327   -6.3952 H       1  UNL1        0.0278
     47 H           3.1820    5.6283   -6.6615 H       1  UNL1        0.0278
     48 H           2.3350    4.6510   -5.4252 H       1  UNL1        0.0278
     49 H           3.8849    3.0383   -6.9416 H       1  UNL1        0.0628
     50 H           7.0515   -1.3037   -9.2566 H       1  UNL1        0.2580
     51 H           5.9813    0.9071  -10.4190 H       1  UNL1        0.0707
     52 H           4.7403   -0.4737  -10.6101 H       1  UNL1        0.0707
     53 H           6.8565    1.4479  -12.4053 H       1  UNL1        0.0622
     54 H           7.7389    0.6910  -14.6001 H       1  UNL1        0.0633
     55 H           7.6212   -1.7525  -15.1341 H       1  UNL1        0.0829
     56 H           5.7416   -2.6139  -11.5721 H       1  UNL1        0.0833
     57 H           4.3087    0.7722   -5.8751 H       1  UNL1        0.0652
     58 H           3.4813    0.9228   -3.6767 H       1  UNL1        0.0627
@<TRIPOS>BOND
     1     1     2    1
     2     2     3    1
     3     3     4    1
     4     4     5    2
     5     4     6    1
     6     6     7   ar
     7     7     8   ar
     8     8     9   ar
     9     9    10    1
    10    10    11    1
    11    11    12    2
    12    12    13    1
    13    13    14    2
    14    13    15    1
    15    15    16   ar
    16    16    17   ar
    17    17    18   ar
    18    18    19    1
    19    18    20   ar
    20    20    21    1
    21    20    22   ar
    22    15    22   ar
    23    11    23    1
    24    23    24    1
    25    24    25    1
    26    25    26   ar
    27    26    27   ar
    28    27    28   ar
    29    28    29   ar
    30    29    30   ar
    31    25    30   ar
    32     9    31   ar
    33    31    32   ar
    34     6    32   ar
    35     1    33    1
    36     1    34    1
    37     1    35    1
    38     2    36    1
    39     2    37    1
    40     7    38    1
    41     8    39    1
    42    10    40    1
    43    16    41    1
    44    17    42    1
    45    19    43    1
    46    19    44    1
    47    19    45    1
    48    21    46    1
    49    21    47    1
    50    21    48    1
    51    22    49    1
    52    23    50    1
    53    24    51    1
    54    24    52    1
    55    26    53    1
    56    27    54    1
    57    28    55    1
    58    30    56    1
    59    31    57    1
    60    32    58    1
