@<TRIPOS>MOLECULE
*****
 51 53 0 0 0
SMALL
GASTEIGER

@<TRIPOS>ATOM
      1 C           1.8685    1.4731   -0.0144 C.3     1  UNL1       -0.0394
      2 C           0.5891    0.6748    0.0035 C.ar    1  UNL1       -0.0458
      3 C          -0.6118    1.3987    0.0227 C.ar    1  UNL1       -0.0585
      4 C          -1.8209    0.7364    0.0164 C.ar    1  UNL1       -0.0597
      5 C          -1.8413   -0.6508   -0.0164 C.ar    1  UNL1       -0.0402
      6 C          -0.6749   -1.4313   -0.0152 C.ar    1  UNL1        0.0366
      7 N          -0.7729   -2.8587   -0.0267 N.am    1  UNL1       -0.2840
      8 C          -1.9628   -3.5846   -0.0372 C.2     1  UNL1        0.2343
      9 O          -3.1024   -3.1133   -0.0315 O.2     1  UNL1       -0.2738
     10 C          -1.8179   -5.1145   -0.0461 C.3     1  UNL1        0.0861
     11 N          -3.1554   -5.6932   -0.1838 N.pl3   1  UNL1       -0.3354
     12 C          -3.4732   -7.0218   -0.0660 C.ar    1  UNL1        0.0275
     13 C          -4.4977   -7.5544   -0.8549 C.ar    1  UNL1       -0.0401
     14 C          -4.8470   -8.9116   -0.7787 C.ar    1  UNL1       -0.0479
     15 C          -4.1357   -9.7891    0.0499 C.ar    1  UNL1        0.0368
     16 C          -4.4607  -11.2594   -0.0118 C.2     1  UNL1        0.2444
     17 O          -5.3500  -11.6687   -0.7587 O.2     1  UNL1       -0.2702
     18 N          -3.7090  -12.1119    0.7617 N.am    1  UNL1       -0.3042
     19 C          -3.8880  -13.5592    0.7610 C.3     1  UNL1        0.0700
     20 C          -2.9388  -14.1851    1.7347 C.ar    1  UNL1        0.1218
     21 C          -1.9659  -13.6770    2.5760 C.ar    1  UNL1       -0.0192
     22 C          -1.4225  -14.7638    3.2927 C.ar    1  UNL1       -0.0236
     23 C          -2.0771  -15.8823    2.8384 C.ar    1  UNL1        0.0921
     24 O          -2.9973  -15.5460    1.8916 O.2     1  UNL1       -0.4662
     25 C          -3.1217   -9.2524    0.8540 C.ar    1  UNL1       -0.0479
     26 C          -2.7925   -7.8899    0.7828 C.ar    1  UNL1       -0.0401
     27 C           0.5735   -0.7562    0.0001 C.ar    1  UNL1       -0.0263
     28 C           1.9031   -1.4718    0.0218 C.3     1  UNL1       -0.0377
     29 H           1.6654    2.5512   -0.0260 H       1  UNL1        0.0278
     30 H           2.4470    1.2472   -0.9149 H       1  UNL1        0.0278
     31 H           2.4634    1.2650    0.8789 H       1  UNL1        0.0278
     32 H          -0.6168    2.4858    0.0396 H       1  UNL1        0.0620
     33 H          -2.7613    1.2791    0.0325 H       1  UNL1        0.0618
     34 H          -2.8325   -1.0812   -0.0412 H       1  UNL1        0.0636
     35 H           0.0895   -3.3845   -0.0273 H       1  UNL1        0.1549
     36 H          -1.3249   -5.4218    0.8801 H       1  UNL1        0.0557
     37 H          -1.2220   -5.4115   -0.9139 H       1  UNL1        0.0557
     38 H          -3.9184   -5.0101   -0.1576 H       1  UNL1        0.1466
     39 H          -5.0073   -6.9178   -1.5775 H       1  UNL1        0.0636
     40 H          -5.6724   -9.2778   -1.3866 H       1  UNL1        0.0626
     41 H          -2.9695  -11.7397    1.3265 H       1  UNL1        0.1495
     42 H          -3.7146  -13.9335   -0.2543 H       1  UNL1        0.0543
     43 H          -4.9252  -13.7772    1.0373 H       1  UNL1        0.0543
     44 H          -1.6872  -12.6404    2.6774 H       1  UNL1        0.0652
     45 H          -0.6512  -14.7264    4.0488 H       1  UNL1        0.0649
     46 H          -2.0055  -16.9333    3.0859 H       1  UNL1        0.1029
     47 H          -2.5592   -9.8523    1.5572 H       1  UNL1        0.0626
     48 H          -2.0099   -7.5103    1.4326 H       1  UNL1        0.0636
     49 H           1.8191   -2.5585    0.0312 H       1  UNL1        0.0278
     50 H           2.4638   -1.1944    0.9218 H       1  UNL1        0.0278
     51 H           2.4923   -1.2072   -0.8630 H       1  UNL1        0.0278
@<TRIPOS>BOND
     1     1     2    1
     2     2     3   ar
     3     3     4   ar
     4     4     5   ar
     5     5     6   ar
     6     6     7    1
     7     7     8   am
     8     8     9    2
     9     8    10    1
    10    10    11    1
    11    11    12    1
    12    12    13   ar
    13    13    14   ar
    14    14    15   ar
    15    15    16    1
    16    16    17    2
    17    16    18   am
    18    18    19    1
    19    19    20    1
    20    20    21   ar
    21    21    22   ar
    22    22    23   ar
    23    23    24   ar
    24    20    24   ar
    25    15    25   ar
    26    25    26   ar
    27    12    26   ar
    28     6    27   ar
    29     2    27   ar
    30    27    28    1
    31     1    29    1
    32     1    30    1
    33     1    31    1
    34     3    32    1
    35     4    33    1
    36     5    34    1
    37     7    35    1
    38    10    36    1
    39    10    37    1
    40    11    38    1
    41    13    39    1
    42    14    40    1
    43    18    41    1
    44    19    42    1
    45    19    43    1
    46    21    44    1
    47    22    45    1
    48    23    46    1
    49    25    47    1
    50    26    48    1
    51    28    49    1
    52    28    50    1
    53    28    51    1
