@<TRIPOS>MOLECULE
*****
 88 90 0 0 0
SMALL
GASTEIGER

@<TRIPOS>ATOM
      1 C           6.6409   -0.3434   -1.4138 C.3     1  UNL1       -0.0653
      2 C           7.2073   -1.1413   -0.2867 C.3     1  UNL1       -0.0559
      3 C           7.0348   -0.7294    1.1544 C.3     1  UNL1       -0.0533
      4 C           7.3144   -1.7168    2.2071 C.3     1  UNL1       -0.0524
      5 C           7.1762   -1.4984    3.6932 C.3     1  UNL1       -0.0415
      6 C           8.1483   -2.4976    4.3796 C.3     1  UNL1        0.0438
      7 C           7.8415   -3.9435    3.8360 C.3     1  UNL1        0.0370
      8 C           7.9860   -4.1792    2.3057 C.2     1  UNL1        0.2364
      9 O           8.9717   -3.7752    1.6219 O.2     1  UNL1       -0.2737
     10 N           6.8700   -4.7307    1.7178 N.am    1  UNL1       -0.1942
     11 O           6.8377   -4.5518    0.3019 O.3     1  UNL1       -0.2752
     12 C           6.2657   -5.6848   -0.3380 C.3     1  UNL1        0.0983
     13 C           6.1106   -5.4444   -1.8185 C.ar    1  UNL1       -0.0197
     14 C           6.2226   -6.5217   -2.7054 C.ar    1  UNL1       -0.0563
     15 C           6.2042   -6.3055   -4.0831 C.ar    1  UNL1       -0.0614
     16 C           5.9662   -5.0288   -4.5890 C.ar    1  UNL1       -0.0617
     17 C           5.7879   -3.9586   -3.7182 C.ar    1  UNL1       -0.0614
     18 C           5.8561   -4.1691   -2.3417 C.ar    1  UNL1       -0.0563
     19 C           8.0659   -2.3338    5.9099 C.2     1  UNL1        0.2172
     20 O           7.6598   -3.2324    6.6163 O.2     1  UNL1       -0.2755
     21 N           8.3938   -1.1256    6.5086 N.am    1  UNL1       -0.3035
     22 C           9.1073    0.1158    6.0392 C.3     1  UNL1        0.1019
     23 C           8.9627    0.5501    4.5400 C.2     1  UNL1        0.2365
     24 O           9.5136   -0.1572    3.6719 O.2     1  UNL1       -0.2735
     25 N           8.5325    1.8345    4.2290 N.am    1  UNL1       -0.2947
     26 C           9.5862    2.6885    3.7766 C.3     1  UNL1        0.0152
     27 C           8.8911    4.0111    3.7431 C.3     1  UNL1       -0.0354
     28 C           7.6820    3.7114    2.9463 C.3     1  UNL1       -0.0307
     29 C           7.3452    2.3086    3.4311 C.3     1  UNL1        0.0494
     30 C           7.0688    1.7466    2.0881 C.3     1  UNL1        0.0666
     31 O           5.9840    2.4018    1.3437 O.3     1  UNL1       -0.3734
     32 C           5.8531    1.7112    0.0785 C.3     1  UNL1        0.0728
     33 C           4.9003    2.0405   -1.1174 C.ar    1  UNL1       -0.0219
     34 C           3.7755    2.6653   -0.6566 C.ar    1  UNL1       -0.0564
     35 C           2.6280    2.6592   -1.4346 C.ar    1  UNL1       -0.0614
     36 C           2.5704    2.1052   -2.7234 C.ar    1  UNL1       -0.0617
     37 C           3.6559    1.4481   -3.2442 C.ar    1  UNL1       -0.0614
     38 C           4.8120    1.4410   -2.4614 C.ar    1  UNL1       -0.0564
     39 C          10.6578   -0.0264    6.2086 C.3     1  UNL1       -0.0197
     40 C          11.4176    1.1178    5.5418 C.3     1  UNL1       -0.0605
     41 C          11.1193   -0.0265    7.6479 C.3     1  UNL1       -0.0605
     42 H           6.9182   -0.6901   -2.4020 H       1  UNL1        0.0230
     43 H           7.0277    0.6726   -1.5391 H       1  UNL1        0.0230
     44 H           5.5495   -0.4087   -1.3022 H       1  UNL1        0.0230
     45 H           8.2724   -1.1378   -0.4897 H       1  UNL1        0.0263
     46 H           6.7284   -2.0983   -0.3740 H       1  UNL1        0.0263
     47 H           6.0226   -0.4478    1.4437 H       1  UNL1        0.0265
     48 H           7.8824   -0.0667    1.2907 H       1  UNL1        0.0265
     49 H           8.3880   -1.8353    2.0605 H       1  UNL1        0.0265
     50 H           6.6025   -2.4892    1.9745 H       1  UNL1        0.0265
     51 H           6.1726   -1.5114    4.1294 H       1  UNL1        0.0273
     52 H           7.3831   -0.4680    3.8513 H       1  UNL1        0.0273
     53 H           9.2087   -2.3443    4.1442 H       1  UNL1        0.0399
     54 H           8.5197   -4.6683    4.2822 H       1  UNL1        0.0366
     55 H           6.8112   -4.1771    4.1307 H       1  UNL1        0.0366
     56 H           6.6097   -5.6433    2.0680 H       1  UNL1        0.1825
     57 H           5.2879   -5.9058    0.1014 H       1  UNL1        0.0634
     58 H           6.9559   -6.5182   -0.1731 H       1  UNL1        0.0634
     59 H           6.3500   -7.5329   -2.3264 H       1  UNL1        0.0621
     60 H           6.3956   -7.1314   -4.7621 H       1  UNL1        0.0618
     61 H           5.9184   -4.8698   -5.6621 H       1  UNL1        0.0618
     62 H           5.6209   -2.9567   -4.1048 H       1  UNL1        0.0618
     63 H           5.7255   -3.3228   -1.6769 H       1  UNL1        0.0621
     64 H           8.3705   -1.2482    7.5215 H       1  UNL1        0.1495
     65 H           8.7194    0.9206    6.6882 H       1  UNL1        0.0597
     66 H          10.0147    2.2936    2.8391 H       1  UNL1        0.0465
     67 H          10.3578    2.8122    4.5022 H       1  UNL1        0.0465
     68 H           9.5307    4.7752    3.3243 H       1  UNL1        0.0281
     69 H           8.5603    4.2414    4.7587 H       1  UNL1        0.0281
     70 H           8.0118    3.7448    1.8877 H       1  UNL1        0.0284
     71 H           6.8121    4.3556    3.0229 H       1  UNL1        0.0284
     72 H           6.4406    2.1650    4.0286 H       1  UNL1        0.0523
     73 H           6.7149    0.8176    2.4557 H       1  UNL1        0.0578
     74 H           8.0054    1.7235    1.4878 H       1  UNL1        0.0578
     75 H           5.3708    0.7904    0.3987 H       1  UNL1        0.0610
     76 H           6.8942    1.6433   -0.2019 H       1  UNL1        0.0610
     77 H           3.7857    3.0300    0.3662 H       1  UNL1        0.0621
     78 H           1.7320    3.0484   -0.9788 H       1  UNL1        0.0618
     79 H           1.6600    2.1692   -3.3043 H       1  UNL1        0.0618
     80 H           3.5942    0.8950   -4.1890 H       1  UNL1        0.0618
     81 H           5.5462    0.8063   -2.9644 H       1  UNL1        0.0621
     82 H          10.9714   -0.9567    5.7235 H       1  UNL1        0.0318
     83 H          11.0571    2.0537    5.9863 H       1  UNL1        0.0233
     84 H          11.2843    1.0749    4.4588 H       1  UNL1        0.0233
     85 H          12.4988    1.1104    5.6435 H       1  UNL1        0.0233
     86 H          10.7727    0.8755    8.1634 H       1  UNL1        0.0233
     87 H          12.2161   -0.0247    7.6670 H       1  UNL1        0.0233
     88 H          10.7625   -0.9120    8.1700 H       1  UNL1        0.0233
@<TRIPOS>BOND
     1     1     2    1
     2     2     3    1
     3     3     4    1
     4     4     5    1
     5     7     8    1
     6     8     9    2
     7     8    10   am
     8    10    11    1
     9    11    12    1
    10    12    13    1
    11    13    14   ar
    12    14    15   ar
    13    15    16   ar
    14    16    17   ar
    15    17    18   ar
    16    13    18   ar
    17     6    19    1
    18    19    20    2
    19    19    21   am
    20    23    24    2
    21    23    25   am
    22    25    26    1
    23    26    27    1
    24    27    28    1
    25    28    29    1
    26    25    29    1
    27    29    30    1
    28    30    31    1
    29    31    32    1
    30    32    33    1
    31    33    34   ar
    32    34    35   ar
    33    35    36   ar
    34    36    37   ar
    35    37    38   ar
    36    33    38   ar
    37    22    39    1
    38    39    40    1
    39    39    41    1
    40    22    23    1
    41    22    21    1
    42     6     7    1
    43     6     5    1
    44     1    42    1
    45     1    43    1
    46     1    44    1
    47     2    45    1
    48     2    46    1
    49     3    47    1
    50     3    48    1
    51     4    49    1
    52     4    50    1
    53     5    51    1
    54     5    52    1
    55     6    53    1
    56     7    54    1
    57     7    55    1
    58    10    56    1
    59    12    57    1
    60    12    58    1
    61    14    59    1
    62    15    60    1
    63    16    61    1
    64    17    62    1
    65    18    63    1
    66    21    64    1
    67    22    65    1
    68    26    66    1
    69    26    67    1
    70    27    68    1
    71    27    69    1
    72    28    70    1
    73    28    71    1
    74    29    72    1
    75    30    73    1
    76    30    74    1
    77    32    75    1
    78    32    76    1
    79    34    77    1
    80    35    78    1
    81    36    79    1
    82    37    80    1
    83    38    81    1
    84    39    82    1
    85    40    83    1
    86    40    84    1
    87    40    85    1
    88    41    86    1
    89    41    87    1
    90    41    88    1
