REMARK  15 active torsions:
REMARK  status: ('A' for Active; 'I' for Inactive)
REMARK    1  A    between atoms: C_2  and  N_3 
REMARK       I    between atoms: N_3  and  C_4 
REMARK    2  A    between atoms: N_3  and  C_33 
REMARK    3  A    between atoms: C_4  and  C_6 
REMARK    4  A    between atoms: C_9  and  N_10 
REMARK    5  A    between atoms: N_10  and  C_11 
REMARK    6  A    between atoms: C_11  and  N_13 
REMARK       I    between atoms: N_13  and  C_14 
REMARK    7  A    between atoms: C_14  and  C_16 
REMARK    8  A    between atoms: C_16  and  C_17 
REMARK    9  A    between atoms: C_17  and  C_18 
REMARK   10  A    between atoms: C_18  and  C_19 
REMARK   11  A    between atoms: C_19  and  O_21 
REMARK   12  A    between atoms: O_21  and  C_22 
REMARK   13  A    between atoms: C_22  and  C_23 
REMARK   14  A    between atoms: C_23  and  C_24 
REMARK   15  A    between atoms: C_24  and  C_25 
ROOT
ATOM      1  C   UNL d   1      -4.167  -0.954  -0.625  0.00  0.00     0.178 C 
ATOM      2  S   UNL d   1      -3.191  -0.742  -1.995  0.00  0.00    -0.040 SA
ENDROOT
BRANCH   1   3
ATOM      3  N   UNL d   1      -3.672  -1.224   0.694  0.00  0.00    -0.333 N 
ATOM      4  H   UNL d   1      -4.302  -1.133   1.485  0.00  0.00     0.168 HD
BRANCH   3   5
ATOM      5  C   UNL d   1      -2.277  -1.510   1.066  0.00  0.00     0.034 C 
ATOM      6  C   UNL d   1      -1.800  -1.520   2.387  0.00  0.00     0.030 C 
ATOM      7  C   UNL d   1      -0.388  -1.588   2.654  0.00  0.00     0.019 C 
ATOM      8  C   UNL d   1       0.540  -1.800   1.619  0.00  0.00     0.032 C 
ATOM      9  C   UNL d   1       0.040  -2.094   0.382  0.00  0.00     0.019 C 
ATOM     10  C   UNL d   1      -1.300  -1.825   0.120  0.00  0.00     0.030 C 
BRANCH   8  11
ATOM     11  C   UNL d   1       2.015  -1.785   1.771  0.00  0.00     0.258 C 
ATOM     12  N   UNL d   1       2.859  -0.959   0.958  0.00  0.00    -0.314 N 
ATOM     13  O   UNL d   1       2.423  -2.550   2.648  0.00  0.00    -0.267 OA
BRANCH  12  14
ATOM     14  C   UNL d   1       2.479   0.141   0.007  0.00  0.00     0.128 C 
ATOM     15  C   UNL d   1       1.030   0.540  -0.158  0.00  0.00     0.027 C 
ENDBRANCH  12  14
BRANCH  12  16
ATOM     16  C   UNL d   1       4.299  -1.125   1.119  0.00  0.00     0.037 A 
ATOM     17  C   UNL d   1       4.871  -2.397   1.262  0.00  0.00     0.029 A 
ATOM     18  C   UNL d   1       6.226  -2.553   1.583  0.00  0.00     0.002 A 
ATOM     19  C   UNL d   1       7.054  -1.440   1.692  0.00  0.00     0.000 A 
ATOM     20  C   UNL d   1       6.522  -0.172   1.491  0.00  0.00     0.002 A 
ATOM     21  C   UNL d   1       5.161  -0.017   1.198  0.00  0.00     0.029 A 
ENDBRANCH  12  16
ENDBRANCH   8  11
ENDBRANCH   3   5
ENDBRANCH   1   3
BRANCH   1  22
ATOM     22  N   UNL d   1      -5.581  -0.829  -0.752  0.00  0.00    -0.304 N 
ATOM     23  C   UNL d   1      -6.220  -0.646  -1.998  0.00  0.00     0.223 C 
ATOM     24  O   UNL d   1      -5.636  -0.671  -3.083  0.00  0.00    -0.273 OA
ATOM     25  H   UNL d   1      -6.158  -0.830   0.076  0.00  0.00     0.171 HD
BRANCH  23  26
ATOM     26  C   UNL d   1      -7.721  -0.434  -2.090  0.00  0.00     0.103 C 
BRANCH  26  27
ATOM     27  C   UNL d   1      -8.061  -0.266  -3.607  0.00  0.00     0.019 C 
BRANCH  27  28
ATOM     28  C   UNL d   1      -9.532  -0.052  -3.936  0.00  0.00     0.111 C 
BRANCH  28  29
ATOM     29  C   UNL d   1      -9.746   0.097  -5.433  0.00  0.00     0.258 C 
ATOM     30  O   UNL d   1      -8.846   0.051  -6.284  0.00  0.00    -0.265 OA
BRANCH  29  31
ATOM     31  O   UNL d   1     -11.061   0.290  -5.736  0.00  0.00    -0.321 OA
BRANCH  31  32
ATOM     32  C   UNL d   1     -11.315   0.439  -7.148  0.00  0.00     0.179 C 
BRANCH  32  33
ATOM     33  C   UNL d   1     -12.805   0.652  -7.395  0.00  0.00     0.031 C 
BRANCH  33  34
ATOM     34  C   UNL d   1     -13.113   0.818  -8.890  0.00  0.00     0.041 C 
BRANCH  34  35
ATOM     35  C   UNL d   1     -14.593   1.014  -9.106  0.00  0.00    -0.058 A 
ATOM     36  C   UNL d   1     -15.147   2.300  -9.155  0.00  0.00     0.007 A 
ATOM     37  C   UNL d   1     -16.533   2.467  -9.172  0.00  0.00     0.001 A 
ATOM     38  C   UNL d   1     -17.371   1.355  -9.221  0.00  0.00     0.000 A 
ATOM     39  C   UNL d   1     -16.827   0.072  -9.217  0.00  0.00     0.001 A 
ATOM     40  C   UNL d   1     -15.445  -0.098  -9.152  0.00  0.00     0.007 A 
ENDBRANCH  34  35
ENDBRANCH  33  34
ENDBRANCH  32  33
ENDBRANCH  31  32
ENDBRANCH  29  31
ENDBRANCH  28  29
ENDBRANCH  27  28
ENDBRANCH  26  27
ENDBRANCH  23  26
ENDBRANCH   1  22
TORSDOF 15
