REMARK  5 active torsions:
REMARK  status: ('A' for Active; 'I' for Inactive)
REMARK    1  A    between atoms: C_4  and  N_5 
REMARK       I    between atoms: N_5  and  C_6 
REMARK       I    between atoms: C_6  and  N_8 
REMARK    2  A    between atoms: N_8  and  C_9 
REMARK    3  A    between atoms: C_16  and  C_17 
REMARK       I    between atoms: C_17  and  N_19 
REMARK    4  A    between atoms: N_22  and  C_23 
REMARK    5  A    between atoms: C_23  and  C_24 
ROOT
ATOM      1  C   UNL d   1      -2.421   0.010   0.073  0.00  0.00     0.072 C 
ATOM      2  C   UNL d   1      -0.980   0.039   0.005  0.00  0.00     0.056 A 
ATOM      3  N   UNL d   1      -0.443   1.301  -0.013  0.00  0.00    -0.228 NA
ATOM      4  C   UNL d   1       0.855   1.207  -0.014  0.00  0.00     0.175 A 
ATOM      5  S   UNL d   1       1.461  -0.404  -0.032  0.00  0.00    -0.044 SA
ATOM      6  C   UNL d   1      -0.133  -1.061  -0.020  0.00  0.00     0.100 A 
ENDROOT
BRANCH   6   7
ATOM      7  C   UNL d   1      -0.361  -2.538   0.072  0.00  0.00     0.262 C 
ATOM      8  O   UNL d   1       0.524  -3.349   0.215  0.00  0.00    -0.267 OA
ATOM      9  N   UNL d   1      -1.707  -2.973   0.110  0.00  0.00    -0.344 N 
ATOM     10  C   UNL d   1      -2.200  -3.965   1.078  0.00  0.00     0.156 C 
ATOM     11  C   UNL d   1      -2.643  -2.761  -0.976  0.00  0.00     0.156 C 
ATOM     12  C   UNL d   1      -3.579  -3.473   1.623  0.00  0.00     0.292 C 
ATOM     13  N   UNL d   1      -4.615  -3.220   0.571  0.00  0.00     0.095 N 
ATOM     14  C   UNL d   1      -4.037  -2.296  -0.407  0.00  0.00     0.292 C 
BRANCH  13  15
ATOM     15  C   UNL d   1      -5.067  -4.453  -0.073  0.00  0.00     0.311 C 
BRANCH  15  16
ATOM     16  C   UNL d   1      -5.952  -4.239  -1.275  0.00  0.00    -0.031 C 
ATOM     17  C   UNL d   1      -7.323  -4.396  -1.289  0.00  0.00     0.008 C 
ATOM     18  C   UNL d   1      -8.020  -3.969  -2.441  0.00  0.00     0.019 C 
ATOM     19  C   UNL d   1      -7.306  -3.460  -3.554  0.00  0.00     0.157 C 
ATOM     20  C   UNL d   1      -6.018  -3.858  -3.699  0.00  0.00     0.158 C 
ATOM     21  O   UNL d   1      -7.183  -2.036  -3.854  0.00  0.00    -0.345 OA
ATOM     22  C   UNL d   1      -5.339  -3.962  -2.507  0.00  0.00     0.027 C 
ATOM     23  O   UNL d   1      -5.363  -3.241  -4.741  0.00  0.00    -0.345 OA
ATOM     24  C   UNL d   1      -5.815  -1.935  -4.407  0.00  0.00     0.341 C 
ENDBRANCH  15  16
ENDBRANCH  13  15
ENDBRANCH   6   7
BRANCH   4  25
ATOM     25  N   UNL d   1       1.619   2.358   0.001  0.00  0.00    -0.287 N 
ATOM     26  C   UNL d   1       2.988   2.345   0.016  0.00  0.00     0.326 C 
ATOM     27  O   UNL d   1       3.643   1.318   0.026  0.00  0.00    -0.247 OA
ATOM     28  N   UNL d   1       3.594   3.599   0.036  0.00  0.00    -0.309 N 
ATOM     29  H   UNL d   1       3.074   4.425   0.296  0.00  0.00     0.170 HD
ATOM     30  H   UNL d   1       1.081   3.212   0.003  0.00  0.00     0.172 HD
BRANCH  28  31
ATOM     31  C   UNL d   1       5.014   3.691  -0.015  0.00  0.00     0.036 A 
ATOM     32  C   UNL d   1       5.718   4.621   0.755  0.00  0.00     0.029 A 
ATOM     33  C   UNL d   1       7.117   4.704   0.646  0.00  0.00     0.002 A 
ATOM     34  C   UNL d   1       7.818   3.841  -0.199  0.00  0.00     0.000 A 
ATOM     35  C   UNL d   1       7.122   2.915  -0.963  0.00  0.00     0.002 A 
ATOM     36  C   UNL d   1       5.734   2.848  -0.872  0.00  0.00     0.029 A 
ENDBRANCH  28  31
ENDBRANCH   4  25
TORSDOF 5
