@<TRIPOS>MOLECULE
*****
 39 39 0 0 0
SMALL
GASTEIGER

@<TRIPOS>ATOM
      1 C           0.9365    0.0813    0.0315 C.3     1  UNL1       -0.0626
      2 C           2.4669    0.0631    0.0063 C.3     1  UNL1       -0.0453
      3 C           2.9490   -1.3888    0.0813 C.3     1  UNL1       -0.0626
      4 C           3.0000    0.7901   -1.2555 C.3     1  UNL1       -0.0351
      5 C           4.5316    0.8290   -1.2939 C.3     1  UNL1        0.0109
      6 N           5.1330    1.5022   -2.4543 N.am    1  UNL1       -0.3254
      7 C           6.5098    1.5832   -2.6481 C.2     1  UNL1        0.1468
      8 S           7.6444    0.9677   -1.5622 S.2     1  UNL1       -0.0174
      9 N           6.8963    2.2302   -3.8191 N.am    1  UNL1       -0.2456
     10 N           8.2885    2.3710   -4.1279 N.am    1  UNL1       -0.2311
     11 C           8.7135    3.0721   -5.2416 C.2     1  UNL1        0.2603
     12 O           7.9423    3.5983   -6.0461 O.2     1  UNL1       -0.2687
     13 C          10.1965    3.1647   -5.4681 C.ar    1  UNL1        0.0446
     14 C          10.7490    4.3422   -6.0049 C.ar    1  UNL1       -0.0492
     15 C          12.0997    4.3999   -6.3857 C.ar    1  UNL1       -0.0546
     16 C          12.9308    3.2980   -6.1891 C.ar    1  UNL1        0.0156
     17 C          12.3872    2.1246   -5.6499 C.ar    1  UNL1        0.2739
     18 N          13.2370    0.9314   -5.5228 N.pl3   1  UNL1        0.0796
     19 O          14.4241    1.0254   -5.8652 O.2     1  UNL1        0.0414
     20 O          12.7096   -0.1012   -5.0872 O.co2   1  UNL1       -0.5760
     21 C          11.0269    2.0508   -5.2861 C.ar    1  UNL1        0.0277
     22 H           0.5544   -0.4130    0.9324 H       1  UNL1        0.0232
     23 H           0.5239   -0.4423   -0.8376 H       1  UNL1        0.0232
     24 H           0.5544    1.1068    0.0263 H       1  UNL1        0.0232
     25 H           2.8257    0.5916    0.8999 H       1  UNL1        0.0296
     26 H           2.6225   -1.9510   -0.7999 H       1  UNL1        0.0232
     27 H           2.5557   -1.8900    0.9719 H       1  UNL1        0.0232
     28 H           4.0388   -1.4523    0.1424 H       1  UNL1        0.0232
     29 H           2.6072    1.8145   -1.2728 H       1  UNL1        0.0283
     30 H           2.6172    0.2902   -2.1533 H       1  UNL1        0.0283
     31 H           4.9211   -0.1929   -1.2991 H       1  UNL1        0.0462
     32 H           4.8959    1.3292   -0.3889 H       1  UNL1        0.0462
     33 H           4.5058    1.8556   -3.1651 H       1  UNL1        0.1478
     34 H           6.2468    2.6095   -4.5054 H       1  UNL1        0.1718
     35 H           8.9264    2.0148   -3.4176 H       1  UNL1        0.1731
     36 H          10.1264    5.2252   -6.1449 H       1  UNL1        0.0625
     37 H          12.4989    5.2950   -6.8623 H       1  UNL1        0.0620
     38 H          13.9813    3.3626   -6.4742 H       1  UNL1        0.0685
     39 H          10.6098    1.1173   -4.9175 H       1  UNL1        0.0693
@<TRIPOS>UNITY_ATOM_ATTR
18 1
charge 1
20 1
charge -1
@<TRIPOS>BOND
     1     1     2    1
     2     2     3    1
     3     2     4    1
     4     4     5    1
     5     5     6    1
     6     6     7    1
     7     7     8    2
     8     7     9    1
     9     9    10    1
    10    10    11   am
    11    11    12    2
    12    11    13    1
    13    13    14   ar
    14    14    15   ar
    15    15    16   ar
    16    16    17   ar
    17    17    18    1
    18    18    19    2
    19    18    20    1
    20    17    21   ar
    21    13    21   ar
    22     1    22    1
    23     1    23    1
    24     1    24    1
    25     2    25    1
    26     3    26    1
    27     3    27    1
    28     3    28    1
    29     4    29    1
    30     4    30    1
    31     5    31    1
    32     5    32    1
    33     6    33    1
    34     9    34    1
    35    10    35    1
    36    14    36    1
    37    15    37    1
    38    16    38    1
    39    21    39    1
