@<TRIPOS>MOLECULE
*****
 69 72 0 0 0
SMALL
GASTEIGER

@<TRIPOS>ATOM
      1 C           0.9536   -0.0552    0.0432 C.3     1  UNL1       -0.0652
      2 C           2.4771   -0.0342    0.0293 C.3     1  UNL1       -0.0528
      3 C           3.0298    1.1765   -0.7415 C.3     1  UNL1       -0.0188
      4 C           4.5680    1.1990   -0.7486 C.3     1  UNL1        0.0928
      5 O           5.0909    2.3784   -1.4118 O.3     1  UNL1       -0.4612
      6 C           6.4678    2.4194   -1.4786 C.2     1  UNL1        0.3392
      7 O           7.2097    1.5362   -1.1222 O.2     1  UNL1       -0.2450
      8 C           6.9817    3.7354   -2.0094 C.ar    1  UNL1        0.0591
      9 C           8.1576    3.8062   -2.7769 C.ar    1  UNL1       -0.0460
     10 C           8.6651    5.0596   -3.2319 C.ar    1  UNL1       -0.0386
     11 C           7.9390    6.2560   -3.0401 C.ar    1  UNL1        0.0445
     12 N           8.3364    7.5048   -3.6534 N.pl3   1  UNL1       -0.2644
     13 N           7.3795    8.5125   -3.9486 N.pl3   1  UNL1       -0.2359
     14 C           7.5707    9.6427   -4.7445 C.ar    1  UNL1        0.2154
     15 N           7.4402   10.8064   -4.1582 N.ar    1  UNL1       -0.2195
     16 C           7.5793   11.9669   -4.8835 C.ar    1  UNL1        0.0504
     17 C           7.5056   13.2541   -4.0928 C.3     1  UNL1       -0.0218
     18 C           7.8114   12.0159   -6.2061 C.ar    1  UNL1        0.0425
     19 C           7.9306   13.3252   -6.9581 C.3     1  UNL1        0.0044
     20 C           8.0645   13.2529   -8.4544 C.ar    1  UNL1       -0.0428
     21 C           9.2467   13.6540   -9.0853 C.ar    1  UNL1       -0.0583
     22 C           9.3739   13.5137  -10.4644 C.ar    1  UNL1       -0.0615
     23 C           8.3786   12.8641  -11.1961 C.ar    1  UNL1       -0.0617
     24 C           7.2119   12.4350  -10.5701 C.ar    1  UNL1       -0.0615
     25 C           7.0296   12.6838   -9.2158 C.ar    1  UNL1       -0.0583
     26 C           7.9590   10.7053   -6.8741 C.ar    1  UNL1        0.2593
     27 O           8.2479   10.6034   -8.0643 O.2     1  UNL1       -0.2672
     28 N           7.7657    9.5644   -6.1162 N.ar    1  UNL1       -0.2752
     29 C           7.7298    8.3927   -6.9886 C.3     1  UNL1        0.0543
     30 C           7.3361    7.0728   -6.4364 C.ar    1  UNL1       -0.0275
     31 C           8.2281    5.9979   -6.4880 C.ar    1  UNL1       -0.0555
     32 C           7.7972    4.7488   -6.0578 C.ar    1  UNL1       -0.0431
     33 C           6.5186    4.6073   -5.5028 C.ar    1  UNL1        0.0410
     34 CL          5.9360    3.0643   -5.0189 Cl      1  UNL1       -0.0835
     35 C           5.7263    5.7229   -5.2594 C.ar    1  UNL1       -0.0431
     36 C           6.0905    6.9371   -5.8071 C.ar    1  UNL1       -0.0555
     37 C           6.7694    6.1558   -2.2734 C.ar    1  UNL1       -0.0386
     38 C           6.2980    4.9240   -1.7691 C.ar    1  UNL1       -0.0460
     39 H           0.5846   -0.9244    0.5994 H       1  UNL1        0.0230
     40 H           0.5530   -0.1124   -0.9738 H       1  UNL1        0.0230
     41 H           0.5533    0.8441    0.5218 H       1  UNL1        0.0230
     42 H           2.8392   -0.9662   -0.4212 H       1  UNL1        0.0264
     43 H           2.8382   -0.0171    1.0649 H       1  UNL1        0.0264
     44 H           2.6474    2.1017   -0.2939 H       1  UNL1        0.0298
     45 H           2.6528    1.1585   -1.7715 H       1  UNL1        0.0298
     46 H           4.9349    0.2946   -1.2483 H       1  UNL1        0.0697
     47 H           4.9216    1.2096    0.2883 H       1  UNL1        0.0697
     48 H           8.5956    2.8823   -3.1642 H       1  UNL1        0.0626
     49 H           9.5322    5.0425   -3.8941 H       1  UNL1        0.0637
     50 H           8.9283    7.3010   -4.4624 H       1  UNL1        0.1700
     51 H           6.7369    8.7116   -3.1887 H       1  UNL1        0.1729
     52 H           7.3610   13.0708   -3.0255 H       1  UNL1        0.0293
     53 H           6.6784   13.8848   -4.4390 H       1  UNL1        0.0293
     54 H           8.4383   13.8227   -4.2008 H       1  UNL1        0.0293
     55 H           8.7822   13.8874   -6.5515 H       1  UNL1        0.0364
     56 H           7.0432   13.9448   -6.7650 H       1  UNL1        0.0364
     57 H          10.0834   14.0383   -8.5060 H       1  UNL1        0.0620
     58 H          10.2634   13.8831  -10.9649 H       1  UNL1        0.0618
     59 H           8.5246   12.6669  -12.2530 H       1  UNL1        0.0618
     60 H           6.4621   11.8714  -11.1167 H       1  UNL1        0.0618
     61 H           6.1452   12.2899   -8.7188 H       1  UNL1        0.0620
     62 H           8.7013    8.3234   -7.4984 H       1  UNL1        0.0543
     63 H           6.9996    8.5867   -7.7938 H       1  UNL1        0.0543
     64 H           9.2665    6.1560   -6.7828 H       1  UNL1        0.0621
     65 H           8.5076    3.9264   -6.0255 H       1  UNL1        0.0632
     66 H           4.8995    5.6844   -4.5550 H       1  UNL1        0.0632
     67 H           5.4899    7.8216   -5.5980 H       1  UNL1        0.0621
     68 H           6.1305    7.0201   -2.1441 H       1  UNL1        0.0637
     69 H           5.3494    4.9015   -1.2421 H       1  UNL1        0.0626
@<TRIPOS>BOND
     1     1     2    1
     2     2     3    1
     3     3     4    1
     4     4     5    1
     5     5     6    1
     6     6     7    2
     7     6     8    1
     8     8     9   ar
     9     9    10   ar
    10    10    11   ar
    11    11    12    1
    12    12    13    1
    13    13    14    1
    14    14    15   ar
    15    15    16   ar
    16    16    17    1
    17    16    18   ar
    18    18    19    1
    19    19    20    1
    20    20    21   ar
    21    21    22   ar
    22    22    23   ar
    23    23    24   ar
    24    24    25   ar
    25    20    25   ar
    26    18    26   ar
    27    26    27    2
    28    26    28   ar
    29    14    28   ar
    30    28    29    1
    31    29    30    1
    32    30    31   ar
    33    31    32   ar
    34    32    33   ar
    35    33    34    1
    36    33    35   ar
    37    35    36   ar
    38    30    36   ar
    39    11    37   ar
    40    37    38   ar
    41     8    38   ar
    42     1    39    1
    43     1    40    1
    44     1    41    1
    45     2    42    1
    46     2    43    1
    47     3    44    1
    48     3    45    1
    49     4    46    1
    50     4    47    1
    51     9    48    1
    52    10    49    1
    53    12    50    1
    54    13    51    1
    55    17    52    1
    56    17    53    1
    57    17    54    1
    58    19    55    1
    59    19    56    1
    60    21    57    1
    61    22    58    1
    62    23    59    1
    63    24    60    1
    64    25    61    1
    65    29    62    1
    66    29    63    1
    67    31    64    1
    68    32    65    1
    69    35    66    1
    70    36    67    1
    71    37    68    1
    72    38    69    1
