@<TRIPOS>MOLECULE
*****
 38 40 0 0 0
SMALL
GASTEIGER

@<TRIPOS>ATOM
      1 N           1.0054    0.0294    0.1146 N.am    1  UNL1       -0.3240
      2 C           2.3565   -0.1786    0.1698 C.2     1  UNL1        0.2623
      3 O           2.8897   -1.1375   -0.3795 O.2     1  UNL1       -0.2687
      4 C           3.0773    0.7951    0.9764 C.ar    1  UNL1        0.1557
      5 N           2.6240    1.0290    2.2643 N.ar    1  UNL1       -0.2181
      6 C           3.4722    1.7455    2.9586 C.ar    1  UNL1        0.1648
      7 N           3.2696    2.0478    4.2707 N.pl3   1  UNL1       -0.2937
      8 C           2.2717    1.4196    5.0583 C.ar    1  UNL1        0.0328
      9 C           1.3931    2.1902    5.8326 C.ar    1  UNL1       -0.0405
     10 C           0.4015    1.5835    6.6182 C.ar    1  UNL1       -0.0600
     11 C           0.2601    0.1974    6.6245 C.ar    1  UNL1       -0.0616
     12 C           1.1282   -0.5838    5.8679 C.ar    1  UNL1       -0.0600
     13 C           2.1296    0.0231    5.0999 C.ar    1  UNL1       -0.0405
     14 S           4.8298    2.3032    2.0179 S.2     1  UNL1       -0.0364
     15 C           4.2168    1.5009    0.6214 C.ar    1  UNL1        0.1059
     16 N           4.9175    1.6545   -0.5814 N.am    1  UNL1       -0.2740
     17 C           4.3144    1.3168   -1.7887 C.2     1  UNL1        0.2514
     18 O           3.1058    1.1057   -1.9168 O.2     1  UNL1       -0.2697
     19 C           5.0832    1.2872   -3.0554 C.ar    1  UNL1        0.0721
     20 C           4.3341    1.4018   -4.2460 C.ar    1  UNL1       -0.0468
     21 C           4.9319    1.2677   -5.4972 C.ar    1  UNL1       -0.0609
     22 C           6.3030    1.0558   -5.5784 C.ar    1  UNL1       -0.0590
     23 C           7.0587    0.9325   -4.4071 C.ar    1  UNL1       -0.0257
     24 C           6.4468    1.0379   -3.1511 C.ar    1  UNL1        0.1355
     25 F           7.1976    0.8658   -2.0542 F       1  UNL1       -0.2047
     26 H           0.4747   -0.5351   -0.5283 H       1  UNL1        0.1453
     27 H           0.5639    0.7621    0.6523 H       1  UNL1        0.1453
     28 H           3.9649    2.5520    4.8057 H       1  UNL1        0.1541
     29 H           1.4361    3.2751    5.7915 H       1  UNL1        0.0636
     30 H          -0.2700    2.1935    7.2177 H       1  UNL1        0.0618
     31 H          -0.5275   -0.2724    7.2093 H       1  UNL1        0.0618
     32 H           1.0270   -1.6663    5.8687 H       1  UNL1        0.0618
     33 H           2.7959   -0.6100    4.5189 H       1  UNL1        0.0636
     34 H           5.8177    2.1201   -0.5714 H       1  UNL1        0.1557
     35 H           3.2582    1.5715   -4.1979 H       1  UNL1        0.0626
     36 H           4.3191    1.3110   -6.3953 H       1  UNL1        0.0618
     37 H           6.7761    0.9745   -6.5544 H       1  UNL1        0.0618
     38 H           8.1241    0.7307   -4.4737 H       1  UNL1        0.0646
@<TRIPOS>BOND
     1     1     2   am
     2     2     3    2
     3     2     4    1
     4     4     5   ar
     5     5     6   ar
     6     6     7    1
     7     7     8    1
     8     8     9   ar
     9     9    10   ar
    10    10    11   ar
    11    11    12   ar
    12    12    13   ar
    13     8    13   ar
    14     6    14   ar
    15    14    15   ar
    16     4    15   ar
    17    15    16    1
    18    16    17   am
    19    17    18    2
    20    17    19    1
    21    19    20   ar
    22    20    21   ar
    23    21    22   ar
    24    22    23   ar
    25    23    24   ar
    26    19    24   ar
    27    24    25    1
    28     1    26    1
    29     1    27    1
    30     7    28    1
    31     9    29    1
    32    10    30    1
    33    11    31    1
    34    12    32    1
    35    13    33    1
    36    16    34    1
    37    20    35    1
    38    21    36    1
    39    22    37    1
    40    23    38    1
