REMARK  11 active torsions:
REMARK  status: ('A' for Active; 'I' for Inactive)
REMARK    1  A    between atoms: O_2  and  C_3 
REMARK    2  A    between atoms: C_6  and  C_7 
REMARK    3  A    between atoms: C_7  and  C_8 
REMARK    4  A    between atoms: C_8  and  C_9 
REMARK       I    between atoms: C_9  and  N_11 
REMARK    5  A    between atoms: N_11  and  C_12 
REMARK    6  A    between atoms: C_17  and  C_18 
REMARK    7  A    between atoms: C_18  and  O_20 
REMARK    8  A    between atoms: O_20  and  C_21 
REMARK    9  A    between atoms: C_21  and  C_22 
REMARK       I    between atoms: C_22  and  N_24 
REMARK   10  A    between atoms: N_24  and  N_25 
REMARK       I    between atoms: N_25  and  C_26 
REMARK   11  A    between atoms: C_26  and  C_28 
ROOT
ATOM      1  C   UNL d   1       5.573   9.545   0.615  0.00  0.00     0.051 A 
ATOM      2  C   UNL d   1       5.739  10.444   1.693  0.00  0.00     0.030 A 
ATOM      3  C   UNL d   1       6.287  11.712   1.491  0.00  0.00     0.002 A 
ATOM      4  C   UNL d   1       6.698  12.080   0.216  0.00  0.00     0.001 A 
ATOM      5  C   UNL d   1       6.518  11.195  -0.864  0.00  0.00     0.020 A 
ATOM      6  C   UNL d   1       5.939   9.915  -0.697  0.00  0.00     0.066 A 
ENDROOT
BRANCH   6   7
ATOM      7  C   UNL d   1       5.740   9.065  -1.951  0.00  0.00     0.296 C 
ATOM      8  O   UNL d   1       6.292   9.355  -3.007  0.00  0.00    -0.259 OA
BRANCH   7   9
ATOM      9  O   UNL d   1       4.888   7.996  -1.823  0.00  0.00    -0.308 OA
BRANCH   9  10
ATOM     10  C   UNL d   1       4.909   6.963  -2.859  0.00  0.00     0.283 C 
BRANCH  10  11
ATOM     11  C   UNL d   1       3.994   5.706  -2.562  0.00  0.00     0.260 C 
ATOM     12  O   UNL d   1       3.121   5.735  -1.688  0.00  0.00    -0.269 OA
ATOM     13  N   UNL d   1       4.229   4.519  -3.270  0.00  0.00    -0.265 N 
ATOM     14  H   UNL d   1       4.623   4.508  -4.209  0.00  0.00     0.190 HD
BRANCH  13  15
ATOM     15  N   UNL d   1       3.418   3.339  -2.939  0.00  0.00    -0.263 N 
ATOM     16  C   UNL d   1       3.430   2.209  -3.769  0.00  0.00     0.277 C 
ATOM     17  O   UNL d   1       4.004   2.275  -4.868  0.00  0.00    -0.265 OA
ATOM     18  H   UNL d   1       3.166   3.255  -1.954  0.00  0.00     0.190 HD
BRANCH  16  19
ATOM     19  C   UNL d   1       2.726   0.998  -3.312  0.00  0.00     0.074 C 
ATOM     20  C   UNL d   1       1.566   0.878  -2.569  0.00  0.00     0.025 C 
ATOM     21  C   UNL d   1       1.132  -0.483  -2.411  0.00  0.00     0.009 C 
ATOM     22  C   UNL d   1       2.095  -1.379  -2.808  0.00  0.00     0.050 C 
ATOM     23  S   UNL d   1       3.319  -0.583  -3.709  0.00  0.00    -0.097 SA
ENDBRANCH  16  19
ENDBRANCH  13  15
ENDBRANCH  10  11
ENDBRANCH   9  10
ENDBRANCH   7   9
ENDBRANCH   6   7
BRANCH   1  24
ATOM     24  N   UNL d   1       5.050   8.279   0.931  0.00  0.00    -0.326 N 
ATOM     25  C   UNL d   1       5.678   7.123   0.497  0.00  0.00     0.222 C 
ATOM     26  O   UNL d   1       6.782   7.097  -0.041  0.00  0.00    -0.273 OA
ATOM     27  H   UNL d   1       4.275   8.229   1.580  0.00  0.00     0.169 HD
BRANCH  25  28
ATOM     28  C   UNL d   1       4.870   5.879   0.712  0.00  0.00     0.108 C 
BRANCH  28  29
ATOM     29  C   UNL d   1       5.507   4.680  -0.022  0.00  0.00     0.048 C 
BRANCH  29  30
ATOM     30  C   UNL d   1       4.699   3.406   0.052  0.00  0.00    -0.058 A 
ATOM     31  C   UNL d   1       5.114   2.247  -0.618  0.00  0.00     0.010 A 
ATOM     32  C   UNL d   1       4.324   1.086  -0.556  0.00  0.00     0.037 A 
ATOM     33  C   UNL d   1       3.117   1.071   0.163  0.00  0.00     0.068 A 
ATOM     34  C   UNL d   1       2.687   2.237   0.766  0.00  0.00     0.037 A 
ATOM     35  C   UNL d   1       3.469   3.378   0.718  0.00  0.00     0.010 A 
BRANCH  33  36
ATOM     36  O   UNL d   1       2.402  -0.093   0.230  0.00  0.00    -0.356 OA
ATOM     37  C   UNL d   1       0.997   0.024   0.505  0.00  0.00     0.210 C 
ENDBRANCH  33  36
ENDBRANCH  29  30
ENDBRANCH  28  29
ENDBRANCH  25  28
ENDBRANCH   1  24
TORSDOF 11
