REMARK  8 active torsions:
REMARK  status: ('A' for Active; 'I' for Inactive)
REMARK    1  A    between atoms: C_2  and  C_3 
REMARK       I    between atoms: C_2  and  N_19 
REMARK    2  A    between atoms: C_3  and  C_4 
REMARK    3  A    between atoms: C_5  and  C_4 
REMARK    4  A    between atoms: C_8  and  C_9 
REMARK       I    between atoms: C_9  and  N_11 
REMARK    5  A    between atoms: N_11  and  C_12 
REMARK    6  A    between atoms: N_19  and  C_20 
REMARK    7  A    between atoms: C_20  and  C_21 
REMARK    8  A    between atoms: C_21  and  C_22 
ROOT
ATOM      1  C   UNL d   1       0.748  -0.882  -4.359  0.00  0.00     0.105 C 
ENDROOT
BRANCH   1   2
ATOM      2  C   UNL d   1       0.227  -0.281  -5.649  0.00  0.00     0.217 C 
ATOM      3  O   UNL d   1       0.835  -0.275  -6.720  0.00  0.00    -0.274 OA
ATOM      4  N   UNL d   1      -1.014   0.277  -5.595  0.00  0.00    -0.361 N 
ATOM      5  H   UNL d   1      -1.315   0.675  -6.482  0.00  0.00     0.162 HD
BRANCH   4   6
ATOM      6  C   UNL d   1      -1.834   0.330  -4.415  0.00  0.00     0.127 C 
BRANCH   6   7
ATOM      7  C   UNL d   1      -3.156   0.991  -4.697  0.00  0.00     0.056 C 
BRANCH   7   8
ATOM      8  C   UNL d   1      -4.093   1.057  -3.540  0.00  0.00    -0.048 A 
ATOM      9  C   UNL d   1      -5.254   1.699  -3.649  0.00  0.00    -0.004 A 
ATOM     10  C   UNL d   1      -5.817   2.424  -4.731  0.00  0.00     0.037 C 
ATOM     11  C   UNL d   1      -5.887   1.618  -2.331  0.00  0.00     0.038 A 
ATOM     12  C   UNL d   1      -6.889   3.183  -4.482  0.00  0.00     0.035 C 
ATOM     13 CL   UNL d   1      -7.415   4.311  -5.667  0.00  0.00    -0.084 Cl
ATOM     14  C   UNL d   1      -7.571   3.120  -3.195  0.00  0.00     0.026 C 
ATOM     15  C   UNL d   1      -7.141   2.376  -2.150  0.00  0.00     0.031 C 
ATOM     16  N   UNL d   1      -5.205   0.900  -1.521  0.00  0.00    -0.385 N 
ATOM     17  C   UNL d   1      -3.908   0.514  -2.150  0.00  0.00     0.155 A 
ATOM     18  H   UNL d   1      -5.535   0.656  -0.587  0.00  0.00     0.160 HD
ENDBRANCH   7   8
ENDBRANCH   6   7
ENDBRANCH   4   6
ENDBRANCH   1   2
BRANCH   1  19
ATOM     19  C   UNL d   1       2.144  -1.435  -4.544  0.00  0.00     0.041 C 
BRANCH  19  20
ATOM     20  C   UNL d   1       2.718  -2.047  -3.255  0.00  0.00     0.135 C 
ATOM     21  N   UNL d   1       2.629  -3.518  -3.263  0.00  0.00    -0.245 NA
ATOM     22  N   UNL d   1       3.893  -4.117  -3.756  0.00  0.00    -0.237 NA
ATOM     23  H   UNL d   1       1.814  -3.833  -3.792  0.00  0.00     0.142 HD
ATOM     24  C   UNL d   1       4.902  -3.080  -4.075  0.00  0.00     0.226 C 
ATOM     25  H   UNL d   1       3.760  -4.766  -4.529  0.00  0.00     0.142 HD
ATOM     26  S   UNL d   1       4.465  -1.656  -3.048  0.00  0.00    -0.117 SA
BRANCH  24  27
ATOM     27  C   UNL d   1       4.866  -2.702  -5.583  0.00  0.00     0.251 C 
ATOM     28  O   UNL d   1       4.536  -1.580  -5.970  0.00  0.00    -0.270 OA
ATOM     29  N   UNL d   1       5.198  -3.714  -6.479  0.00  0.00    -0.325 N 
ATOM     30  H   UNL d   1       5.367  -4.657  -6.153  0.00  0.00     0.169 HD
BRANCH  29  31
ATOM     31  C   UNL d   1       5.205  -3.489  -7.878  0.00  0.00     0.034 A 
ATOM     32  C   UNL d   1       4.817  -4.507  -8.749  0.00  0.00     0.029 A 
ATOM     33  C   UNL d   1       4.859  -4.294 -10.133  0.00  0.00     0.002 A 
ATOM     34  C   UNL d   1       5.256  -3.058 -10.648  0.00  0.00     0.000 A 
ATOM     35  C   UNL d   1       5.642  -2.042  -9.783  0.00  0.00     0.002 A 
ATOM     36  C   UNL d   1       5.619  -2.260  -8.409  0.00  0.00     0.029 A 
ENDBRANCH  29  31
ENDBRANCH  24  27
ENDBRANCH  19  20
ENDBRANCH   1  19
TORSDOF 8
