REMARK  6 active torsions:
REMARK  status: ('A' for Active; 'I' for Inactive)
REMARK    1  A    between atoms: C_4  and  O_5 
REMARK    2  A    between atoms: C_6  and  C_7 
REMARK    3  A    between atoms: C_12  and  C_13 
REMARK    4  A    between atoms: N_20  and  C_21 
REMARK    5  A    between atoms: C_21  and  C_22 
REMARK    6  A    between atoms: C_22  and  O_23 
ROOT
ATOM      1  C   UNL d   1       6.598   0.037  -0.646  0.00  0.00     0.074 A 
ATOM      2  N   UNL d   1       7.640   0.679  -0.011  0.00  0.00    -0.276 N 
ATOM      3  N   UNL d   1       8.859   0.476  -0.597  0.00  0.00    -0.168 NA
ATOM      4  C   UNL d   1       8.548  -0.272  -1.658  0.00  0.00     0.155 A 
ATOM      5  C   UNL d   1       7.185  -0.536  -1.739  0.00  0.00     0.035 A 
ATOM      6  C   UNL d   1       6.880  -1.387  -2.897  0.00  0.00     0.162 C 
ATOM      7  N   UNL d   1       8.231  -1.811  -3.291  0.00  0.00    -0.331 N 
ATOM      8  C   UNL d   1       9.235  -0.993  -2.723  0.00  0.00     0.275 C 
ATOM      9  O   UNL d   1      10.411  -0.914  -3.060  0.00  0.00    -0.266 OA
ATOM     10  H   UNL d   1       7.580   1.236   0.836  0.00  0.00     0.189 HD
ENDROOT
BRANCH   1  11
ATOM     11  C   UNL d   1       5.208   0.062  -0.235  0.00  0.00     0.028 C 
ATOM     12  C   UNL d   1       4.501   1.263  -0.129  0.00  0.00     0.078 C 
ATOM     13  C   UNL d   1       3.121   1.255   0.074  0.00  0.00     0.045 C 
ATOM     14  C   UNL d   1       2.416   0.036   0.063  0.00  0.00    -0.038 C 
ATOM     15  C   UNL d   1       0.913   0.033   0.067  0.00  0.00     0.050 C 
ATOM     16  C   UNL d   1       3.137  -1.165  -0.001  0.00  0.00     0.041 C 
ATOM     17  C   UNL d   1       4.527  -1.150  -0.083  0.00  0.00     0.041 C 
ATOM     18 CL   UNL d   1       2.347  -2.701  -0.047  0.00  0.00    -0.084 Cl
BRANCH  12  19
ATOM     19  O   UNL d   1       5.184   2.441  -0.268  0.00  0.00    -0.360 OA
ATOM     20  H   UNL d   1       4.561   3.182  -0.341  0.00  0.00     0.217 HD
ENDBRANCH  12  19
ENDBRANCH   1  11
BRANCH   6  21
ATOM     21  C   UNL d   1       6.222  -0.507  -3.933  0.00  0.00     0.008 C 
ATOM     22  C   UNL d   1       6.825   0.616  -4.536  0.00  0.00     0.012 C 
ATOM     23  C   UNL d   1       6.068   1.485  -5.329  0.00  0.00     0.001 C 
ATOM     24  C   UNL d   1       4.752   1.166  -5.653  0.00  0.00     0.003 C 
ATOM     25  C   UNL d   1       4.202  -0.030  -5.205  0.00  0.00     0.043 C 
ATOM     26  C   UNL d   1       4.916  -0.820  -4.311  0.00  0.00     0.125 C 
ATOM     27  F   UNL d   1       4.326  -1.910  -3.803  0.00  0.00    -0.205 F 
ENDBRANCH   6  21
BRANCH   7  28
ATOM     28  C   UNL d   1       8.465  -3.043  -4.048  0.00  0.00     0.153 C 
BRANCH  28  29
ATOM     29  C   UNL d   1       7.196  -3.841  -4.410  0.00  0.00     0.184 C 
BRANCH  29  30
ATOM     30  O   UNL d   1       7.491  -5.048  -5.099  0.00  0.00    -0.399 OA
ATOM     31  H   UNL d   1       7.873  -4.817  -5.962  0.00  0.00     0.209 HD
ENDBRANCH  29  30
ENDBRANCH  28  29
ENDBRANCH   7  28
TORSDOF 6
