REMARK  11 active torsions:
REMARK  status: ('A' for Active; 'I' for Inactive)
REMARK    1  A    between atoms: N_1  and  C_2 
REMARK    2  A    between atoms: C_4  and  C_5 
REMARK    3  A    between atoms: C_5  and  N_6 
REMARK    4  A    between atoms: C_7  and  C_8 
REMARK    5  A    between atoms: C_11  and  O_12 
REMARK    6  A    between atoms: O_12  and  C_13 
REMARK    7  A    between atoms: C_23  and  C_24 
REMARK    8  A    between atoms: C_33  and  N_34 
REMARK    9  A    between atoms: N_34  and  C_35 
REMARK   10  A    between atoms: C_35  and  C_36 
REMARK   11  A    between atoms: C_36  and  O_37 
ROOT
ATOM      1  N   UNL d   1       3.204  -2.470   0.160  0.00  0.00    -0.340 N 
ATOM      2  C   UNL d   1       3.965  -1.844   1.149  0.00  0.00     0.045 A 
ATOM      3  C   UNL d   1       5.270  -1.832   0.690  0.00  0.00     0.033 A 
ATOM      4  C   UNL d   1       5.316  -2.545  -0.528  0.00  0.00     0.033 A 
ATOM      5  C   UNL d   1       4.026  -2.916  -0.861  0.00  0.00     0.047 A 
ENDROOT
BRANCH   1   6
ATOM      6  C   UNL d   1       1.741  -2.517   0.125  0.00  0.00     0.186 C 
BRANCH   6   7
ATOM      7  C   UNL d   1       1.089  -1.160   0.018  0.00  0.00     0.029 C 
ATOM      8  N   UNL d   1      -0.245  -1.107   0.036  0.00  0.00    -0.343 N 
ATOM      9  C   UNL d   1      -0.975   0.018   0.016  0.00  0.00     0.126 C 
ATOM     10  H   UNL d   1      -0.782  -1.971   0.057  0.00  0.00     0.167 HD
ATOM     11  C   UNL d   1      -0.301   1.277   0.027  0.00  0.00     0.072 C 
ATOM     12  C   UNL d   1       1.090   1.252  -0.058  0.00  0.00     0.035 C 
ATOM     13  C   UNL d   1       1.775   0.052  -0.113  0.00  0.00     0.029 C 
BRANCH   9  14
ATOM     14  N   UNL d   1      -2.326  -0.180   0.025  0.00  0.00    -0.384 N 
ATOM     15  H   UNL d   1      -2.793  -1.075  -0.029  0.00  0.00     0.157 HD
ATOM     16  H   UNL d   1      -2.961   0.598  -0.043  0.00  0.00     0.157 HD
ENDBRANCH   9  14
BRANCH  11  17
ATOM     17  N   UNL d   1      -0.883   2.539   0.042  0.00  0.00    -0.385 N 
ATOM     18  H   UNL d   1      -0.275   3.352   0.135  0.00  0.00     0.159 HD
BRANCH  17  19
ATOM     19  C   UNL d   1      -2.305   2.764   0.135  0.00  0.00     0.146 C 
BRANCH  19  20
ATOM     20  C   UNL d   1      -2.725   4.221   0.202  0.00  0.00     0.183 C 
BRANCH  20  21
ATOM     21  O   UNL d   1      -4.149   4.268   0.265  0.00  0.00    -0.399 OA
ATOM     22  H   UNL d   1      -4.505   3.916  -0.571  0.00  0.00     0.209 HD
ENDBRANCH  20  21
ENDBRANCH  19  20
ENDBRANCH  17  19
ENDBRANCH  11  17
ENDBRANCH   6   7
ENDBRANCH   1   6
BRANCH   2  23
ATOM     23  C   UNL d   1       3.381  -1.131   2.292  0.00  0.00    -0.009 A 
ATOM     24  C   UNL d   1       2.456  -1.761   3.129  0.00  0.00     0.016 A 
ATOM     25  C   UNL d   1       1.685  -1.015   4.024  0.00  0.00     0.038 A 
ATOM     26  C   UNL d   1       1.902   0.358   4.167  0.00  0.00     0.076 A 
ATOM     27  C   UNL d   1       2.862   0.983   3.365  0.00  0.00     0.038 A 
ATOM     28  C   UNL d   1       3.598   0.244   2.437  0.00  0.00     0.016 A 
BRANCH  26  29
ATOM     29  O   UNL d   1       1.146   0.983   5.140  0.00  0.00    -0.308 OA
BRANCH  29  30
ATOM     30  C   UNL d   1       1.414   2.293   5.408  0.00  0.00     0.111 A 
ATOM     31  C   UNL d   1       1.106   3.310   4.530  0.00  0.00     0.156 A 
ATOM     32  N   UNL d   1       1.418   4.604   4.741  0.00  0.00    -0.251 NA
ATOM     33  C   UNL d   1       2.016   4.868   5.915  0.00  0.00     0.232 A 
ATOM     34  N   UNL d   1       2.314   3.969   6.869  0.00  0.00    -0.251 NA
ATOM     35  C   UNL d   1       1.994   2.686   6.593  0.00  0.00     0.156 A 
ENDBRANCH  29  30
ENDBRANCH  26  29
ENDBRANCH   2  23
BRANCH   5  36
ATOM     36  C   UNL d   1       3.564  -3.603  -2.072  0.00  0.00     0.013 A 
ATOM     37  C   UNL d   1       3.952  -4.936  -2.272  0.00  0.00     0.015 A 
ATOM     38  C   UNL d   1       3.544  -5.625  -3.416  0.00  0.00     0.001 A 
ATOM     39  C   UNL d   1       2.680  -5.022  -4.328  0.00  0.00     0.002 A 
ATOM     40  C   UNL d   1       2.279  -3.706  -4.139  0.00  0.00     0.025 A 
ATOM     41  C   UNL d   1       2.758  -2.984  -3.047  0.00  0.00     0.046 A 
ATOM     42 CL   UNL d   1       2.315  -1.317  -2.999  0.00  0.00    -0.083 Cl
ENDBRANCH   5  36
TORSDOF 11
