@<TRIPOS>MOLECULE
*****
 57 59 0 0 0
SMALL
GASTEIGER

@<TRIPOS>ATOM
      1 C           1.1275    0.0485   -0.5931 C.3     1  UNL1        0.0790
      2 O           2.4515    0.0266   -0.0606 O.3     1  UNL1       -0.4915
      3 C           2.9198    0.9491    0.8504 C.ar    1  UNL1        0.1615
      4 C           4.1448    1.5208    0.4575 C.ar    1  UNL1       -0.0156
      5 C           4.9424    2.2382    1.3679 C.ar    1  UNL1       -0.0459
      6 C           4.5160    2.4873    2.6878 C.ar    1  UNL1        0.0408
      7 C           5.3595    3.3518    3.5651 C.2     1  UNL1        0.2496
      8 O           6.3818    3.7633    2.9940 O.2     1  UNL1       -0.2698
      9 N           4.9946    3.7120    4.8888 N.am    1  UNL1       -0.2636
     10 C           5.7840    4.5022    5.7692 C.2     1  UNL1        0.1411
     11 S           7.3480    5.0172    5.3694 S.2     1  UNL1       -0.0182
     12 N           5.1871    4.7871    7.0294 N.am    1  UNL1       -0.2966
     13 C           5.7315    5.7353    7.9843 C.ar    1  UNL1        0.0327
     14 C           5.7804    5.5059    9.3637 C.ar    1  UNL1       -0.0388
     15 C           6.3199    6.4951   10.2418 C.ar    1  UNL1       -0.0389
     16 C           6.8486    7.7162    9.7828 C.ar    1  UNL1        0.0299
     17 N           7.4228    8.6401   10.6334 N.pl3   1  UNL1       -0.3269
     18 C           8.6101    8.3133   11.4387 C.3     1  UNL1        0.0280
     19 C           9.7910    9.2564   11.0909 C.3     1  UNL1        0.0304
     20 N           9.4010   10.6698   11.2028 N.am    1  UNL1       -0.2987
     21 C           9.9950   11.6460   11.9849 C.2     1  UNL1        0.2126
     22 C          11.2030   11.3103   12.8385 C.3     1  UNL1        0.0124
     23 O           9.5638   12.8028   12.0194 O.2     1  UNL1       -0.2759
     24 C           8.2268   10.9977   10.3689 C.3     1  UNL1        0.0304
     25 C           7.0299   10.0624   10.6677 C.3     1  UNL1        0.0280
     26 C           6.7609    7.9343    8.4119 C.ar    1  UNL1       -0.0389
     27 C           6.2013    6.9776    7.5458 C.ar    1  UNL1       -0.0388
     28 C           3.3112    1.9353    3.0790 C.ar    1  UNL1       -0.0042
     29 C           2.5143    1.1710    2.1897 C.ar    1  UNL1        0.1622
     30 O           1.4295    0.7240    2.9054 O.3     1  UNL1       -0.4914
     31 C           0.4609    0.0568    2.1563 C.3     1  UNL1        0.0790
     32 H           1.0913   -0.5619   -1.4999 H       1  UNL1        0.0660
     33 H           0.7531    1.0564   -0.7844 H       1  UNL1        0.0660
     34 H           0.4151   -0.5130    0.0080 H       1  UNL1        0.0660
     35 H           4.5162    1.3938   -0.5609 H       1  UNL1        0.0655
     36 H           5.9225    2.5912    1.0354 H       1  UNL1        0.0626
     37 H           4.1064    3.3783    5.2352 H       1  UNL1        0.1568
     38 H           4.4387    4.2015    7.3820 H       1  UNL1        0.1538
     39 H           5.4761    4.5551    9.7960 H       1  UNL1        0.0637
     40 H           6.2927    6.3170   11.3164 H       1  UNL1        0.0637
     41 H           8.9289    7.2741   11.3124 H       1  UNL1        0.0479
     42 H           8.3502    8.4626   12.4938 H       1  UNL1        0.0479
     43 H          10.1065    9.1058   10.0511 H       1  UNL1        0.0480
     44 H          10.6407    9.0090   11.7220 H       1  UNL1        0.0480
     45 H          11.5466   10.2830   12.7776 H       1  UNL1        0.0323
     46 H          10.9635   11.5118   13.8879 H       1  UNL1        0.0323
     47 H          12.0406   11.9500   12.5411 H       1  UNL1        0.0323
     48 H           8.5368   10.8703    9.3246 H       1  UNL1        0.0480
     49 H           7.9239   12.0423   10.4967 H       1  UNL1        0.0480
     50 H           6.1920   10.2777    9.9963 H       1  UNL1        0.0479
     51 H           6.6831   10.2707   11.6886 H       1  UNL1        0.0479
     52 H           7.1534    8.8438    7.9676 H       1  UNL1        0.0637
     53 H           6.1475    7.2375    6.4933 H       1  UNL1        0.0637
     54 H           2.9563    2.0421    4.0966 H       1  UNL1        0.0663
     55 H          -0.4006   -0.2598    2.7423 H       1  UNL1        0.0660
     56 H           0.9234   -0.8606    1.7811 H       1  UNL1        0.0660
     57 H           0.0659    0.7697    1.4250 H       1  UNL1        0.0660
@<TRIPOS>BOND
     1     1     2    1
     2     2     3    1
     3     3     4   ar
     4     4     5   ar
     5     5     6   ar
     6     6     7    1
     7     7     8    2
     8     7     9   am
     9     9    10    1
    10    10    11    2
    11    10    12    1
    12    12    13    1
    13    13    14   ar
    14    14    15   ar
    15    15    16   ar
    16    16    17    1
    17    17    18    1
    18    18    19    1
    19    19    20    1
    20    20    21   am
    21    21    22    1
    22    21    23    2
    23    20    24    1
    24    24    25    1
    25    17    25    1
    26    16    26   ar
    27    26    27   ar
    28    13    27   ar
    29     6    28   ar
    30    28    29   ar
    31     3    29   ar
    32    29    30    1
    33    30    31    1
    34     1    32    1
    35     1    33    1
    36     1    34    1
    37     4    35    1
    38     5    36    1
    39     9    37    1
    40    12    38    1
    41    14    39    1
    42    15    40    1
    43    18    41    1
    44    18    42    1
    45    19    43    1
    46    19    44    1
    47    22    45    1
    48    22    46    1
    49    22    47    1
    50    24    48    1
    51    24    49    1
    52    25    50    1
    53    25    51    1
    54    26    52    1
    55    27    53    1
    56    28    54    1
    57    31    55    1
    58    31    56    1
    59    31    57    1
