REMARK  5 active torsions:
REMARK  status: ('A' for Active; 'I' for Inactive)
REMARK    1  A    between atoms: C_2  and  C_5 
REMARK    2  A    between atoms: C_7  and  C_8 
REMARK       I    between atoms: C_8  and  N_10 
REMARK    3  A    between atoms: N_10  and  N_11 
REMARK    4  A    between atoms: C_13  and  C_14 
REMARK    5  A    between atoms: C_18  and  O_19 
ROOT
ATOM      1  C   UNL d   1       2.994   0.791  -1.177  0.00  0.00    -0.016 A 
ATOM      2  C   UNL d   1       3.615   0.178  -2.284  0.00  0.00     0.027 A 
ATOM      3  C   UNL d   1       3.945   0.908  -3.433  0.00  0.00     0.034 A 
ATOM      4  C   UNL d   1       3.681   2.286  -3.439  0.00  0.00     0.027 A 
ATOM      5  C   UNL d   1       3.079   2.959  -2.341  0.00  0.00    -0.016 A 
ATOM      6  C   UNL d   1       2.716   2.169  -1.245  0.00  0.00     0.079 A 
ENDROOT
BRANCH   3   7
ATOM      7  C   UNL d   1       4.557   0.173  -4.595  0.00  0.00     0.265 C 
ATOM      8  O   UNL d   1       4.768  -1.044  -4.527  0.00  0.00    -0.266 OA
ATOM      9  N   UNL d   1       4.882   0.907  -5.733  0.00  0.00    -0.290 N 
ATOM     10  H   UNL d   1       4.636   1.885  -5.831  0.00  0.00     0.183 HD
BRANCH   9  11
ATOM     11  N   UNL d   1       5.391   0.248  -6.877  0.00  0.00    -0.247 NA
ATOM     12  H   UNL d   1       5.498  -0.746  -6.627  0.00  0.00     0.143 HD
ATOM     13  H   UNL d   1       6.344   0.579  -7.040  0.00  0.00     0.143 HD
ENDBRANCH   9  11
ENDBRANCH   3   7
BRANCH   1  14
ATOM     14  C   UNL d   1       2.525   0.014   0.073  0.00  0.00    -0.021 C 
ATOM     15  C   UNL d   1       0.974  -0.012   0.086  0.00  0.00     0.019 C 
ATOM     16  C   UNL d   1       3.063   0.645   1.393  0.00  0.00     0.019 C 
ATOM     17  C   UNL d   1       3.017  -1.440   0.064  0.00  0.00     0.019 C 
ENDBRANCH   1  14
BRANCH   5  18
ATOM     18  C   UNL d   1       2.838   4.473  -2.453  0.00  0.00    -0.021 C 
ATOM     19  C   UNL d   1       4.190   5.181  -2.666  0.00  0.00     0.019 C 
ATOM     20  C   UNL d   1       1.887   4.757  -3.628  0.00  0.00     0.019 C 
ATOM     21  C   UNL d   1       2.206   5.140  -1.221  0.00  0.00     0.019 C 
ENDBRANCH   5  18
BRANCH   6  22
ATOM     22  O   UNL d   1       1.945   2.597  -0.207  0.00  0.00    -0.360 OA
ATOM     23  H   UNL d   1       2.053   3.497   0.094  0.00  0.00     0.217 HD
ENDBRANCH   6  22
TORSDOF 5
