@<TRIPOS>MOLECULE
*****
 31 32 0 0 0
SMALL
GASTEIGER

@<TRIPOS>ATOM
      1 N          -0.0423   -1.8784    0.0499 N.pl3   1  UNL1       -0.3557
      2 C          -0.0216   -0.4847   -0.0306 C.ar    1  UNL1        0.0618
      3 C           1.1913    0.2041   -0.0157 C.ar    1  UNL1        0.0647
      4 CL          2.7035   -0.6428   -0.0015 Cl      1  UNL1       -0.0815
      5 C           1.2333    1.5981   -0.0223 C.ar    1  UNL1       -0.0202
      6 C           0.0782    2.3845   -0.0109 C.ar    1  UNL1        0.0365
      7 N           0.1447    3.8171   -0.0177 N.am    1  UNL1       -0.2819
      8 C           1.3310    4.5460   -0.0432 C.2     1  UNL1        0.2411
      9 O           2.4679    4.0703   -0.0451 O.2     1  UNL1       -0.2705
     10 C           1.2052    6.0275   -0.0512 C.2     1  UNL1        0.0025
     11 C           2.3387    6.7619   -0.0816 C.2     1  UNL1       -0.0314
     12 C           2.3704    8.2262   -0.0505 C.ar    1  UNL1        0.0640
     13 C           1.5606    8.9311    0.8312 C.ar    1  UNL1       -0.0363
     14 C           1.5819   10.3207    0.8035 C.ar    1  UNL1       -0.0583
     15 C           2.4327   10.9695   -0.0806 C.ar    1  UNL1       -0.0436
     16 C           3.2453   10.1924   -0.8905 C.ar    1  UNL1        0.0282
     17 N           3.2374    8.8368   -0.8912 N.ar    1  UNL1       -0.2556
     18 C          -1.1522    1.7123    0.0075 C.ar    1  UNL1       -0.0202
     19 C          -1.1923    0.2965    0.0013 C.ar    1  UNL1        0.0647
     20 CL         -2.7407   -0.4878    0.0159 Cl      1  UNL1       -0.0815
     21 H           0.8334   -2.3776   -0.0798 H       1  UNL1        0.1424
     22 H          -0.9128   -2.3775   -0.0815 H       1  UNL1        0.1424
     23 H           2.2226    2.0325   -0.0350 H       1  UNL1        0.0651
     24 H          -0.7372    4.3175   -0.0091 H       1  UNL1        0.1551
     25 H           0.2262    6.4825   -0.0298 H       1  UNL1        0.0670
     26 H           3.3230    6.2952   -0.1355 H       1  UNL1        0.0640
     27 H           0.9206    8.4092    1.5325 H       1  UNL1        0.0639
     28 H           0.9360   10.8863    1.4674 H       1  UNL1        0.0619
     29 H           2.4642   12.0523   -0.1311 H       1  UNL1        0.0633
     30 H           3.9392   10.6590   -1.5858 H       1  UNL1        0.0830
     31 H          -2.0950    2.2545    0.0271 H       1  UNL1        0.0651
@<TRIPOS>BOND
     1     1     2    1
     2     2     3   ar
     3     3     4    1
     4     3     5   ar
     5     5     6   ar
     6     6     7    1
     7     7     8   am
     8     8     9    2
     9     8    10    1
    10    10    11    2
    11    11    12    1
    12    12    13   ar
    13    13    14   ar
    14    14    15   ar
    15    15    16   ar
    16    16    17   ar
    17    12    17   ar
    18     6    18   ar
    19    18    19   ar
    20     2    19   ar
    21    19    20    1
    22     1    21    1
    23     1    22    1
    24     5    23    1
    25     7    24    1
    26    10    25    1
    27    11    26    1
    28    13    27    1
    29    14    28    1
    30    15    29    1
    31    16    30    1
    32    18    31    1
