@<TRIPOS>MOLECULE
*****
 40 41 0 0 0
SMALL
GASTEIGER

@<TRIPOS>ATOM
      1 C           1.7108    0.0336   -0.8405 C.3     1  UNL1       -0.0581
      2 C           0.9381   -0.0478    0.4868 C.3     1  UNL1       -0.0165
      3 C           1.9651   -0.1193    1.6521 C.3     1  UNL1        0.0185
      4 N           2.9057   -1.2583    1.5679 N.am    1  UNL1       -0.2977
      5 C           3.9367   -1.4420    2.4745 C.2     1  UNL1        0.3159
      6 O           4.1089   -0.6994    3.4383 O.2     1  UNL1       -0.2513
      7 N           4.7878   -2.5172    2.1832 N.am    1  UNL1       -0.2203
      8 N           5.7655   -2.8572    3.1502 N.pl3   1  UNL1       -0.2633
      9 C           6.6318   -3.9530    2.9933 C.ar    1  UNL1        0.0457
     10 C           7.1632   -4.3384    1.7567 C.ar    1  UNL1       -0.0393
     11 C           7.9936   -5.4664    1.6346 C.ar    1  UNL1       -0.0588
     12 C           8.3027   -6.2424    2.7504 C.ar    1  UNL1       -0.0442
     13 C           7.8107   -5.8688    4.0008 C.ar    1  UNL1        0.0536
     14 C           8.1971   -6.6258    5.1628 C.1     1  UNL1        0.0992
     15 N           8.5429   -7.2365    6.0827 N.1     1  UNL1       -0.1909
     16 C           6.9738   -4.7401    4.1141 C.ar    1  UNL1       -0.0220
     17 C          -0.0395    1.1503    0.5769 C.3     1  UNL1       -0.0462
     18 C          -1.1981    0.7778   -0.3563 C.3     1  UNL1       -0.0525
     19 C          -1.2349   -0.7502   -0.3784 C.3     1  UNL1       -0.0525
     20 C          -0.0521   -1.2241    0.4731 C.3     1  UNL1       -0.0462
     21 H           2.3990    0.8853   -0.8253 H       1  UNL1        0.0236
     22 H           1.0520    0.1554   -1.7044 H       1  UNL1        0.0236
     23 H           2.2921   -0.8762   -1.0106 H       1  UNL1        0.0236
     24 H           1.4564   -0.1666    2.6225 H       1  UNL1        0.0468
     25 H           2.5654    0.8008    1.6583 H       1  UNL1        0.0468
     26 H           2.8041   -1.9066    0.8037 H       1  UNL1        0.1503
     27 H           4.5638   -3.2249    1.4964 H       1  UNL1        0.1743
     28 H           5.8393   -2.2476    3.9662 H       1  UNL1        0.1700
     29 H           6.9887   -3.7252    0.8767 H       1  UNL1        0.0636
     30 H           8.4165   -5.7326    0.6678 H       1  UNL1        0.0619
     31 H           8.9384   -7.1213    2.6408 H       1  UNL1        0.0630
     32 H           6.5784   -4.4787    5.0946 H       1  UNL1        0.0649
     33 H           0.4151    2.0989    0.2702 H       1  UNL1        0.0271
     34 H          -0.4289    1.2810    1.5943 H       1  UNL1        0.0271
     35 H          -1.0140    1.1592   -1.3691 H       1  UNL1        0.0265
     36 H          -2.1509    1.2083   -0.0301 H       1  UNL1        0.0265
     37 H          -1.1305   -1.1110   -1.4085 H       1  UNL1        0.0265
     38 H          -2.1860   -1.1356    0.0036 H       1  UNL1        0.0265
     39 H           0.3891   -2.1376    0.0631 H       1  UNL1        0.0271
     40 H          -0.4062   -1.4528    1.4867 H       1  UNL1        0.0271
@<TRIPOS>BOND
     1     1     2    1
     2     2     3    1
     3     3     4    1
     4     4     5   am
     5     5     6    2
     6     5     7   am
     7     7     8    1
     8     8     9    1
     9     9    10   ar
    10    10    11   ar
    11    11    12   ar
    12    12    13   ar
    13    13    14    1
    14    14    15    3
    15    13    16   ar
    16     9    16   ar
    17     2    17    1
    18    17    18    1
    19    18    19    1
    20    19    20    1
    21     2    20    1
    22     1    21    1
    23     1    22    1
    24     1    23    1
    25     3    24    1
    26     3    25    1
    27     4    26    1
    28     7    27    1
    29     8    28    1
    30    10    29    1
    31    11    30    1
    32    12    31    1
    33    16    32    1
    34    17    33    1
    35    17    34    1
    36    18    35    1
    37    18    36    1
    38    19    37    1
    39    19    38    1
    40    20    39    1
    41    20    40    1
