@<TRIPOS>MOLECULE
*****
 49 49 0 0 0
SMALL
GASTEIGER

@<TRIPOS>ATOM
      1 C           1.0626   -0.0810   -0.0270 C.3     1  UNL1       -0.0652
      2 C           2.5872   -0.0665   -0.0516 C.3     1  UNL1       -0.0545
      3 C           3.1302    0.6648   -1.2923 C.3     1  UNL1       -0.0376
      4 C           4.6678    0.6884   -1.3323 C.3     1  UNL1        0.0131
      5 N           5.2353    1.3764   -2.5011 N.am    1  UNL1       -0.2982
      6 C           6.6041    1.4839   -2.6844 C.2     1  UNL1        0.3160
      7 O           7.4231    1.0168   -1.8917 O.2     1  UNL1       -0.2513
      8 N           6.9943    2.1575   -3.8346 N.am    1  UNL1       -0.2180
      9 N           8.3973    2.3322   -4.1227 N.am    1  UNL1       -0.2297
     10 C           8.7957    3.0216   -5.2613 C.2     1  UNL1        0.2530
     11 O           7.9930    3.4850   -6.0738 O.2     1  UNL1       -0.2693
     12 C          10.2843    3.1683   -5.4550 C.2     1  UNL1        0.0022
     13 C          10.8145    3.8319   -6.5090 C.2     1  UNL1       -0.0495
     14 C          12.2678    3.9507   -6.7986 C.ar    1  UNL1       -0.0212
     15 C          12.8451    5.1183   -7.3151 C.ar    1  UNL1       -0.0509
     16 C          14.2076    5.1492   -7.6835 C.ar    1  UNL1       -0.0157
     17 C          15.0377    4.0337   -7.4926 C.ar    1  UNL1        0.1619
     18 O          16.3665    4.2415   -7.8096 O.3     1  UNL1       -0.4886
     19 C          17.2788    3.1807   -7.5007 C.3     1  UNL1        0.0870
     20 C          18.7129    3.5793   -7.7873 C.3     1  UNL1       -0.0307
     21 C          14.4558    2.8506   -7.0057 C.ar    1  UNL1        0.1621
     22 O          15.2451    1.7392   -6.8998 O.3     1  UNL1       -0.4914
     23 C          14.6655    0.5296   -6.4509 C.3     1  UNL1        0.0790
     24 C          13.0908    2.8281   -6.6697 C.ar    1  UNL1       -0.0091
     25 H           0.6943   -0.6050    0.8620 H       1  UNL1        0.0230
     26 H           0.6610   -0.5916   -0.9081 H       1  UNL1        0.0230
     27 H           0.6610    0.9372   -0.0070 H       1  UNL1        0.0230
     28 H           2.9501   -1.1012   -0.0331 H       1  UNL1        0.0263
     29 H           2.9501    0.4184    0.8627 H       1  UNL1        0.0263
     30 H           2.7428    1.6908   -1.2990 H       1  UNL1        0.0280
     31 H           2.7428    0.1738   -2.1932 H       1  UNL1        0.0280
     32 H           5.0507   -0.3389   -1.3284 H       1  UNL1        0.0462
     33 H           5.0509    1.1830   -0.4319 H       1  UNL1        0.0462
     34 H           4.6045    1.7780   -3.1792 H       1  UNL1        0.1503
     35 H           6.3486    2.5611   -4.5064 H       1  UNL1        0.1744
     36 H           9.0352    1.9381   -3.4334 H       1  UNL1        0.1731
     37 H          10.9289    2.7121   -4.7131 H       1  UNL1        0.0670
     38 H          10.1654    4.2851   -7.2581 H       1  UNL1        0.0625
     39 H          12.2542    6.0254   -7.4300 H       1  UNL1        0.0625
     40 H          14.6227    6.0537   -8.1281 H       1  UNL1        0.0655
     41 H          17.0616    2.3171   -8.1387 H       1  UNL1        0.0694
     42 H          17.2191    2.9208   -6.4361 H       1  UNL1        0.0694
     43 H          18.8299    3.8708   -8.8341 H       1  UNL1        0.0262
     44 H          19.3815    2.7351   -7.5812 H       1  UNL1        0.0262
     45 H          19.0167    4.4246   -7.1642 H       1  UNL1        0.0262
     46 H          15.4497   -0.2314   -6.4539 H       1  UNL1        0.0660
     47 H          13.8744    0.2015   -7.1317 H       1  UNL1        0.0660
     48 H          14.3021    0.6375   -5.4249 H       1  UNL1        0.0660
     49 H          12.6380    1.9113   -6.3135 H       1  UNL1        0.0661
@<TRIPOS>BOND
     1     1     2    1
     2     2     3    1
     3     3     4    1
     4     4     5    1
     5     5     6   am
     6     6     7    2
     7     6     8   am
     8     8     9    1
     9     9    10   am
    10    10    11    2
    11    10    12    1
    12    12    13    2
    13    13    14    1
    14    14    15   ar
    15    15    16   ar
    16    16    17   ar
    17    17    18    1
    18    18    19    1
    19    19    20    1
    20    17    21   ar
    21    21    22    1
    22    22    23    1
    23    21    24   ar
    24    14    24   ar
    25     1    25    1
    26     1    26    1
    27     1    27    1
    28     2    28    1
    29     2    29    1
    30     3    30    1
    31     3    31    1
    32     4    32    1
    33     4    33    1
    34     5    34    1
    35     8    35    1
    36     9    36    1
    37    12    37    1
    38    13    38    1
    39    15    39    1
    40    16    40    1
    41    19    41    1
    42    19    42    1
    43    20    43    1
    44    20    44    1
    45    20    45    1
    46    23    46    1
    47    23    47    1
    48    23    48    1
    49    24    49    1
