@<TRIPOS>MOLECULE
*****
 67 70 0 0 0
SMALL
GASTEIGER

@<TRIPOS>ATOM
      1 C           2.9136   -0.0494    0.0047 C.3     1  UNL1       -0.0397
      2 C           1.4155   -0.0722    0.0021 C.ar    1  UNL1       -0.0487
      3 C           0.6765   -1.2414    0.0025 C.ar    1  UNL1       -0.0585
      4 C          -0.7187   -1.1747   -0.0003 C.ar    1  UNL1       -0.0568
      5 C          -1.4060    0.0636   -0.0007 C.ar    1  UNL1       -0.0292
      6 C          -2.9088    0.0215   -0.0013 C.3     1  UNL1       -0.0380
      7 C          -0.6590    1.2596   -0.0008 C.ar    1  UNL1        0.0366
      8 N          -1.2832    2.5499   -0.0033 N.am    1  UNL1       -0.2846
      9 C          -0.5758    3.7581   -0.0103 C.2     1  UNL1        0.2275
     10 O           0.6494    3.8562   -0.0066 O.2     1  UNL1       -0.2746
     11 C          -1.4117    5.0289   -0.0046 C.3     1  UNL1        0.0780
     12 S          -0.2973    6.4778   -0.0101 S.3     1  UNL1       -0.0752
     13 C          -1.2063    7.9330    0.0187 C.ar    1  UNL1        0.2091
     14 N          -0.6497    9.1279    0.0340 N.ar    1  UNL1       -0.1205
     15 N          -1.6476   10.0705    0.0483 N.ar    1  UNL1       -0.1267
     16 C          -2.7975    9.4315    0.0866 C.ar    1  UNL1        0.1820
     17 C          -4.1107   10.0384    0.0665 C.ar    1  UNL1        0.0319
     18 C          -5.0895    9.7404    1.0135 C.ar    1  UNL1        0.0129
     19 C          -6.3957   10.2029    0.8326 C.ar    1  UNL1        0.1724
     20 N          -6.6872   11.0545   -0.1842 N.ar    1  UNL1       -0.1949
     21 C          -8.1352   11.4486   -0.4293 C.3     1  UNL1        0.2259
     22 C          -8.3913   12.3422   -1.6348 C.2     1  UNL1        0.2830
     23 O          -7.4464   12.7395   -2.3233 O.2     1  UNL1       -0.2685
     24 N          -9.6685   12.7449   -1.9595 N.am    1  UNL1       -0.2800
     25 C          -9.8027   13.6784   -3.0394 C.ar    1  UNL1        0.0368
     26 C          -9.1030   13.4568   -4.2448 C.ar    1  UNL1       -0.0373
     27 C          -9.1036   14.3901   -5.2834 C.ar    1  UNL1       -0.0487
     28 C          -8.3435   14.1328   -6.5509 C.3     1  UNL1       -0.0397
     29 C          -9.8312   15.5648   -5.1169 C.ar    1  UNL1       -0.0585
     30 C         -10.5370   15.7963   -3.9313 C.ar    1  UNL1       -0.0568
     31 C         -10.5406   14.8568   -2.8834 C.ar    1  UNL1       -0.0292
     32 C         -11.2492   15.1899   -1.6047 C.3     1  UNL1       -0.0380
     33 C          -5.6611   11.4937   -0.9596 C.ar    1  UNL1        0.1724
     34 C          -4.4079   10.9348   -0.9315 C.ar    1  UNL1        0.0129
     35 N          -2.5689    8.0720    0.0104 N.ar    1  UNL1       -0.2237
     36 N          -3.5824    7.0717   -0.2178 N.pl3   1  UNL1       -0.2945
     37 C           0.7387    1.1464    0.0010 C.ar    1  UNL1       -0.0373
     38 H           3.3286   -1.0592   -0.0040 H       1  UNL1        0.0278
     39 H           3.2781    0.4665    0.9003 H       1  UNL1        0.0278
     40 H           3.2822    0.4822   -0.8802 H       1  UNL1        0.0278
     41 H           1.1800   -2.2039    0.0050 H       1  UNL1        0.0620
     42 H          -1.2682   -2.1150   -0.0023 H       1  UNL1        0.0621
     43 H          -3.2834   -1.0103    0.0006 H       1  UNL1        0.0278
     44 H          -3.3045    0.5069   -0.8980 H       1  UNL1        0.0278
     45 H          -3.3049    0.5097    0.8938 H       1  UNL1        0.0278
     46 H          -2.2950    2.5576   -0.0071 H       1  UNL1        0.1548
     47 H          -2.0057    5.0223    0.9140 H       1  UNL1        0.0475
     48 H          -2.0392    5.0327   -0.9000 H       1  UNL1        0.0475
     49 H          -4.8350    9.1335    1.8802 H       1  UNL1        0.0684
     50 H          -7.1996    9.8973    1.4973 H       1  UNL1        0.1376
     51 H          -8.4877   11.9275    0.4910 H       1  UNL1        0.1133
     52 H          -8.6785   10.5045   -0.5753 H       1  UNL1        0.1133
     53 H         -10.4111   12.7321   -1.2699 H       1  UNL1        0.1550
     54 H          -8.5202   12.5474   -4.3794 H       1  UNL1        0.0639
     55 H          -7.8037   13.1799   -6.5116 H       1  UNL1        0.0278
     56 H          -7.6070   14.9238   -6.7253 H       1  UNL1        0.0278
     57 H          -9.0366   14.0893   -7.3963 H       1  UNL1        0.0278
     58 H          -9.8523   16.3095   -5.9103 H       1  UNL1        0.0620
     59 H         -11.0755   16.7371   -3.8306 H       1  UNL1        0.0621
     60 H         -11.7538   16.1592   -1.6636 H       1  UNL1        0.0278
     61 H         -10.5347   15.2382   -0.7753 H       1  UNL1        0.0278
     62 H         -12.0048   14.4286   -1.3928 H       1  UNL1        0.0278
     63 H          -5.7534   12.3335   -1.6267 H       1  UNL1        0.1376
     64 H          -3.6777   11.2369   -1.6824 H       1  UNL1        0.0684
     65 H          -4.5197    7.3717    0.0212 H       1  UNL1        0.1627
     66 H          -3.4188    6.2281    0.3144 H       1  UNL1        0.1627
     67 H           1.3907    2.0081    0.0017 H       1  UNL1        0.0639
@<TRIPOS>UNITY_ATOM_ATTR
20 1
charge 1
@<TRIPOS>BOND
     1     1     2    1
     2     2     3   ar
     3     3     4   ar
     4     4     5   ar
     5     5     6    1
     6     5     7   ar
     7     7     8    1
     8     8     9   am
     9     9    10    2
    10     9    11    1
    11    11    12    1
    12    12    13    1
    13    13    14   ar
    14    14    15   ar
    15    15    16   ar
    16    16    17    1
    17    17    18   ar
    18    18    19   ar
    19    19    20   ar
    20    20    21    1
    21    21    22    1
    22    22    23    2
    23    22    24   am
    24    24    25    1
    25    25    26   ar
    26    26    27   ar
    27    27    28    1
    28    27    29   ar
    29    29    30   ar
    30    30    31   ar
    31    25    31   ar
    32    31    32    1
    33    20    33   ar
    34    33    34   ar
    35    17    34   ar
    36    16    35   ar
    37    13    35   ar
    38    35    36    1
    39     7    37   ar
    40     2    37   ar
    41     1    38    1
    42     1    39    1
    43     1    40    1
    44     3    41    1
    45     4    42    1
    46     6    43    1
    47     6    44    1
    48     6    45    1
    49     8    46    1
    50    11    47    1
    51    11    48    1
    52    18    49    1
    53    19    50    1
    54    21    51    1
    55    21    52    1
    56    24    53    1
    57    26    54    1
    58    28    55    1
    59    28    56    1
    60    28    57    1
    61    29    58    1
    62    30    59    1
    63    32    60    1
    64    32    61    1
    65    32    62    1
    66    33    63    1
    67    34    64    1
    68    36    65    1
    69    36    66    1
    70    37    67    1
