@<TRIPOS>MOLECULE
*****
 79 80 0 0 0
SMALL
GASTEIGER

@<TRIPOS>ATOM
      1 C           2.6292    1.8261    2.0301 C.3     1  UNL1        0.0379
      2 O           2.1500    2.3245    0.7723 O.3     1  UNL1       -0.3659
      3 C           2.7032    1.5387   -0.2829 C.3     1  UNL1        0.1591
      4 C           2.1741   -0.0448   -0.0441 C.2     1  UNL1        0.2503
      5 O           0.9148   -0.0346   -0.0183 O.2     1  UNL1       -0.2723
      6 N           2.8130   -1.3100    0.3115 N.am    1  UNL1       -0.2782
      7 C           4.2505   -1.9037    0.2833 C.3     1  UNL1        0.1347
      8 C           4.7598   -2.8444   -0.8033 C.2     1  UNL1        0.2388
      9 O           5.5010   -2.5058   -1.7349 O.2     1  UNL1       -0.2734
     10 N           4.4598   -4.1398   -0.6725 N.am    1  UNL1       -0.3085
     11 C           4.7117   -4.9657   -1.7692 C.3     1  UNL1        0.0295
     12 C           4.1447   -4.2878   -3.0381 C.3     1  UNL1       -0.0440
     13 C           6.2286   -5.0243   -1.6808 C.3     1  UNL1       -0.0440
     14 C           3.9724   -6.2795   -1.4419 C.3     1  UNL1       -0.0272
     15 C           4.2855   -7.3880   -2.4488 C.3     1  UNL1       -0.0358
     16 C           3.7970   -7.0355   -3.8509 C.3     1  UNL1       -0.0600
     17 C           5.7743   -7.7203   -2.4648 C.3     1  UNL1       -0.0600
     18 C           3.5741   -8.6632   -2.0553 C.3     1  UNL1       -0.0600
     19 C           5.3446   -1.0210    0.0385 C.ar    1  UNL1        0.0648
     20 C           6.2306   -0.2409    1.4345 C.ar    1  UNL1        0.1292
     21 O           6.0864   -0.6257    2.7301 O.3     1  UNL1       -0.5062
     22 C           6.7811    1.3644    1.3833 C.ar    1  UNL1        0.0219
     23 C           6.4762    2.2163   -0.0569 C.ar    1  UNL1        0.1238
     24 O           7.8622    2.9729   -0.0588 O.3     1  UNL1       -0.5065
     25 C           5.5633    1.3284   -1.6756 C.ar    1  UNL1        0.0219
     26 C           5.0063   -0.2358   -1.5684 C.ar    1  UNL1        0.1292
     27 O           3.8822   -0.3859   -2.3729 O.3     1  UNL1       -0.5062
     28 C           1.8329   -2.3901    0.6450 C.3     1  UNL1        0.0302
     29 C           1.0514   -2.1216    1.8995 C.3     1  UNL1       -0.0440
     30 C           0.9955   -2.7215   -0.6076 C.3     1  UNL1       -0.0440
     31 C           2.5014   -3.6938    1.0163 C.3     1  UNL1       -0.0440
     32 C           4.1283    2.0969   -0.2594 C.ar    1  UNL1       -0.0101
     33 C           4.8825    3.2873   -1.1863 C.ar    1  UNL1       -0.0556
     34 C           6.5608    3.1076   -1.9436 C.ar    1  UNL1       -0.0614
     35 C           7.5799    1.5543   -1.7224 C.ar    1  UNL1       -0.0617
     36 C           6.8207    0.3901   -0.6022 C.ar    1  UNL1       -0.0614
     37 C           5.0158    0.9457    0.1515 C.ar    1  UNL1       -0.0556
     38 H           2.3173    2.5073    2.8081 H       1  UNL1        0.0524
     39 H           3.7231    1.7673    2.0962 H       1  UNL1        0.0524
     40 H           2.2352    0.8237    2.2072 H       1  UNL1        0.0524
     41 H           2.2991    1.7689   -1.2804 H       1  UNL1        0.0744
     42 H           4.4951   -2.2240    1.2941 H       1  UNL1        0.0650
     43 H           4.3149   -4.5776    0.2201 H       1  UNL1        0.1493
     44 H           4.4774   -3.2779   -3.2523 H       1  UNL1        0.0250
     45 H           3.0469   -4.2717   -3.0550 H       1  UNL1        0.0250
     46 H           4.5639   -4.7130   -3.9219 H       1  UNL1        0.0250
     47 H           6.7310   -4.0645   -1.7364 H       1  UNL1        0.0250
     48 H           6.6847   -5.4391   -2.5440 H       1  UNL1        0.0250
     49 H           6.5273   -5.4684   -0.7208 H       1  UNL1        0.0250
     50 H           2.8793   -6.1021   -1.3728 H       1  UNL1        0.0291
     51 H           4.2307   -6.6071   -0.4166 H       1  UNL1        0.0291
     52 H           4.4017   -6.2852   -4.3234 H       1  UNL1        0.0235
     53 H           2.7467   -6.7143   -3.8427 H       1  UNL1        0.0235
     54 H           3.9671   -7.8367   -4.5612 H       1  UNL1        0.0235
     55 H           6.3561   -6.9698   -2.9604 H       1  UNL1        0.0235
     56 H           6.0121   -8.5439   -3.1266 H       1  UNL1        0.0235
     57 H           6.1631   -7.8811   -1.4501 H       1  UNL1        0.0235
     58 H           2.4913   -8.5214   -2.0568 H       1  UNL1        0.0235
     59 H           3.9017   -9.0018   -1.0695 H       1  UNL1        0.0235
     60 H           3.8318   -9.4287   -2.7939 H       1  UNL1        0.0235
     61 H           5.3327   -1.2144    2.6918 H       1  UNL1        0.2922
     62 H           7.6081    1.7620    1.9570 H       1  UNL1        0.0691
     63 H           7.8336    3.8976    0.2001 H       1  UNL1        0.2921
     64 H           5.4541    1.6699   -2.7201 H       1  UNL1        0.0691
     65 H           3.9146    0.3726   -3.0014 H       1  UNL1        0.2922
     66 H           0.4179   -1.2535    1.7910 H       1  UNL1        0.0250
     67 H           1.7468   -1.9653    2.7345 H       1  UNL1        0.0250
     68 H           0.4280   -2.9948    2.1173 H       1  UNL1        0.0250
     69 H           0.3490   -1.9039   -0.8992 H       1  UNL1        0.0250
     70 H           0.3787   -3.6047   -0.4311 H       1  UNL1        0.0250
     71 H           1.6429   -2.9271   -1.4763 H       1  UNL1        0.0250
     72 H           3.3517   -3.6254    1.7121 H       1  UNL1        0.0250
     73 H           2.7442   -3.9096    0.0112 H       1  UNL1        0.0250
     74 H           1.9685   -4.6152    1.2170 H       1  UNL1        0.0250
     75 H           4.4628    4.2083   -0.7709 H       1  UNL1        0.0621
     76 H           7.0319    4.0748   -1.9808 H       1  UNL1        0.0618
     77 H           8.6015    1.4447   -1.2705 H       1  UNL1        0.0618
     78 H           7.3584   -0.5649   -0.4150 H       1  UNL1        0.0618
     79 H           4.3038    0.3457    0.7344 H       1  UNL1        0.0621
@<TRIPOS>BOND
     1     1     2    1
     2     4     5    2
     3     4     6   am
     4     6     7    1
     5     7     8    1
     6     8     9    2
     7     8    10   am
     8    10    11    1
     9    11    12    1
    10    11    13    1
    11    11    14    1
    12    14    15    1
    13    15    16    1
    14    15    17    1
    15    15    18    1
    16     7    19    1
    17    19    20   ar
    18    20    21    1
    19    20    22   ar
    20    22    23   ar
    21    23    24    1
    22    23    25   ar
    23    25    26   ar
    24    19    26   ar
    25    26    27    1
    26     6    28    1
    27    28    29    1
    28    28    30    1
    29    28    31    1
    30     3    32    1
    31    32    33   ar
    32    33    34   ar
    33    34    35   ar
    34    35    36   ar
    35    36    37   ar
    36    32    37   ar
    37     3     4    1
    38     3     2    1
    39     1    38    1
    40     1    39    1
    41     1    40    1
    42     3    41    1
    43     7    42    1
    44    10    43    1
    45    12    44    1
    46    12    45    1
    47    12    46    1
    48    13    47    1
    49    13    48    1
    50    13    49    1
    51    14    50    1
    52    14    51    1
    53    16    52    1
    54    16    53    1
    55    16    54    1
    56    17    55    1
    57    17    56    1
    58    17    57    1
    59    18    58    1
    60    18    59    1
    61    18    60    1
    62    21    61    1
    63    22    62    1
    64    24    63    1
    65    25    64    1
    66    27    65    1
    67    29    66    1
    68    29    67    1
    69    29    68    1
    70    30    69    1
    71    30    70    1
    72    30    71    1
    73    31    72    1
    74    31    73    1
    75    31    74    1
    76    33    75    1
    77    34    76    1
    78    35    77    1
    79    36    78    1
    80    37    79    1
