REMARK  8 active torsions:
REMARK  status: ('A' for Active; 'I' for Inactive)
REMARK    1  A    between atoms: C_3  and  C_4 
REMARK    2  A    between atoms: C_4  and  C_5 
REMARK       I    between atoms: C_5  and  N_7 
REMARK    3  A    between atoms: CA_8  and  N_7 
REMARK    4  A    between atoms: CA_8  and  C_20 
REMARK    5  A    between atoms: CA_8  and  C_9 
REMARK    6  A    between atoms: C_9  and  C_10 
REMARK    7  A    between atoms: C_16  and  O_17 
REMARK    8  A    between atoms: C_28  and  O_29 
ROOT
ATOM      1  C   UNL d   1      -6.806  -1.105   2.297  0.00  0.00     0.222 C 
ATOM      2  O   UNL d   1      -6.771  -2.067   3.059  0.00  0.00    -0.273 OA
ATOM      3  N   UNL d   1      -7.004  -1.491   1.017  0.00  0.00    -0.346 N 
ATOM      4  H   UNL d   1      -7.311  -2.458   1.007  0.00  0.00     0.163 HD
ENDROOT
BRANCH   3   5
ATOM      5  CA  UNL d   1      -7.294  -0.739  -0.218  0.00  0.00     0.189 C 
BRANCH   5   6
ATOM      6  C   UNL d   1      -8.798  -0.579  -0.603  0.00  0.00     0.197 C 
ATOM      7  O   UNL d   1      -9.039   0.176  -1.590  0.00  0.00    -0.646 OA
ATOM      8  OXT UNL d   1      -9.617  -1.251   0.088  0.00  0.00    -0.646 OA
ENDBRANCH   5   6
BRANCH   5   9
ATOM      9  C   UNL d   1      -6.373   0.465  -0.354  0.00  0.00     0.077 C 
BRANCH   9  10
ATOM     10  C   UNL d   1      -6.980   1.825  -0.126  0.00  0.00    -0.028 C 
ATOM     11  C   UNL d   1      -8.271   2.185   0.230  0.00  0.00     0.096 C 
ATOM     12  N   UNL d   1      -8.422   3.520   0.006  0.00  0.00    -0.365 N 
ATOM     13  C   UNL d   1      -7.184   4.093  -0.095  0.00  0.00     0.043 A 
ATOM     14  H   UNL d   1      -9.311   3.999   0.009  0.00  0.00     0.165 HD
ATOM     15  C   UNL d   1      -6.820   5.435  -0.107  0.00  0.00     0.033 A 
ATOM     16  C   UNL d   1      -6.260   3.050  -0.174  0.00  0.00     0.001 A 
ATOM     17  C   UNL d   1      -5.450   5.712  -0.111  0.00  0.00     0.039 A 
ATOM     18  C   UNL d   1      -4.510   4.682  -0.150  0.00  0.00     0.066 A 
ATOM     19  C   UNL d   1      -4.889   3.348  -0.212  0.00  0.00     0.050 A 
BRANCH  18  20
ATOM     20  O   UNL d   1      -3.169   4.934  -0.111  0.00  0.00    -0.361 OA
ATOM     21  H   UNL d   1      -3.044   5.894  -0.119  0.00  0.00     0.217 HD
ENDBRANCH  18  20
ENDBRANCH   9  10
ENDBRANCH   5   9
ENDBRANCH   3   5
BRANCH   1  22
ATOM     22  C   UNL d   1      -6.542   0.381   2.670  0.00  0.00     0.148 C 
BRANCH  22  23
ATOM     23  C   UNL d   1      -6.228   0.899   4.054  0.00  0.00     0.033 C 
ATOM     24  C   UNL d   1      -5.906   2.210   4.267  0.00  0.00    -0.036 C 
ATOM     25  C   UNL d   1      -5.865   3.300   3.220  0.00  0.00     0.050 C 
ATOM     26  C   UNL d   1      -5.559   2.645   5.626  0.00  0.00     0.005 A 
ATOM     27  C   UNL d   1      -5.266   3.958   6.003  0.00  0.00     0.017 A 
ATOM     28  C   UNL d   1      -5.501   1.683   6.619  0.00  0.00     0.092 A 
ATOM     29  C   UNL d   1      -4.950   4.255   7.334  0.00  0.00     0.037 A 
ATOM     30  C   UNL d   1      -4.923   3.248   8.292  0.00  0.00     0.068 A 
ATOM     31  C   UNL d   1      -5.201   1.949   7.942  0.00  0.00     0.074 A 
ATOM     32  O   UNL d   1      -5.737   0.346   6.381  0.00  0.00    -0.274 OA
ATOM     33  C   UNL d   1      -6.232  -0.069   5.182  0.00  0.00     0.295 C 
ATOM     34  O   UNL d   1      -6.642  -1.226   5.167  0.00  0.00    -0.259 OA
BRANCH  30  35
ATOM     35  O   UNL d   1      -4.612   3.566   9.576  0.00  0.00    -0.361 OA
ATOM     36  H   UNL d   1      -4.641   2.746  10.098  0.00  0.00     0.217 HD
ENDBRANCH  30  35
ENDBRANCH  22  23
ENDBRANCH   1  22
TORSDOF 8
