REMARK  11 active torsions:
REMARK  status: ('A' for Active; 'I' for Inactive)
REMARK    1  A    between atoms: C_2  and  C_3 
REMARK    2  A    between atoms: C_3  and  O_4 
REMARK    3  A    between atoms: O_4  and  C_5 
REMARK    4  A    between atoms: C_5  and  C_7 
REMARK    5  A    between atoms: C_7  and  C_8 
REMARK    6  A    between atoms: C_8  and  C_9 
REMARK       I    between atoms: C_9  and  N_11 
REMARK    7  A    between atoms: N_11  and  C_12 
REMARK    8  A    between atoms: C_12  and  N_14 
REMARK    9  A    between atoms: N_14  and  C_15 
REMARK   10  A    between atoms: C_18  and  C_19 
REMARK       I    between atoms: C_19  and  N_21 
REMARK   11  A    between atoms: N_21  and  C_22 
ROOT
ATOM      1  N   UNL d   1      11.513  -5.928  -2.421  0.00  0.00    -0.333 N 
ATOM      2  H   UNL d   1      10.997  -6.611  -2.963  0.00  0.00     0.168 HD
ENDROOT
BRANCH   1   3
ATOM      3  C   UNL d   1      10.885  -4.721  -2.003  0.00  0.00     0.178 C 
ATOM      4  S   UNL d   1      11.774  -3.315  -1.664  0.00  0.00    -0.040 SA
BRANCH   3   5
ATOM      5  N   UNL d   1       9.464  -4.763  -1.932  0.00  0.00    -0.304 N 
ATOM      6  C   UNL d   1       8.664  -3.692  -1.482  0.00  0.00     0.224 C 
ATOM      7  O   UNL d   1       9.119  -2.650  -1.008  0.00  0.00    -0.273 OA
ATOM      8  H   UNL d   1       8.990  -5.599  -2.249  0.00  0.00     0.171 HD
BRANCH   6   9
ATOM      9  C   UNL d   1       7.144  -3.794  -1.534  0.00  0.00     0.113 C 
BRANCH   9  10
ATOM     10  C   UNL d   1       6.524  -2.463  -0.991  0.00  0.00     0.120 C 
BRANCH  10  11
ATOM     11  C   UNL d   1       5.016  -2.478  -0.997  0.00  0.00     0.259 C 
ATOM     12  O   UNL d   1       4.353  -3.439  -1.390  0.00  0.00    -0.265 OA
BRANCH  11  13
ATOM     13  O   UNL d   1       4.476  -1.314  -0.520  0.00  0.00    -0.321 OA
BRANCH  13  14
ATOM     14  C   UNL d   1       3.032  -1.298  -0.513  0.00  0.00     0.178 C 
BRANCH  14  15
ATOM     15  C   UNL d   1       2.491   0.027   0.030  0.00  0.00     0.022 C 
ATOM     16  C   UNL d   1       0.965   0.051   0.040  0.00  0.00     0.007 C 
ENDBRANCH  14  15
ENDBRANCH  13  14
ENDBRANCH  11  13
ENDBRANCH  10  11
ENDBRANCH   9  10
ENDBRANCH   6   9
ENDBRANCH   3   5
ENDBRANCH   1   3
BRANCH   1  17
ATOM     17  C   UNL d   1      12.950  -6.112  -2.410  0.00  0.00     0.034 A 
ATOM     18  C   UNL d   1      13.657  -6.665  -3.483  0.00  0.00     0.030 A 
ATOM     19  C   UNL d   1      15.070  -6.776  -3.418  0.00  0.00     0.019 A 
ATOM     20  C   UNL d   1      15.800  -6.286  -2.314  0.00  0.00     0.032 A 
ATOM     21  C   UNL d   1      15.087  -5.776  -1.238  0.00  0.00     0.019 A 
ATOM     22  C   UNL d   1      13.690  -5.730  -1.282  0.00  0.00     0.030 A 
BRANCH  20  23
ATOM     23  C   UNL d   1      17.296  -6.305  -2.349  0.00  0.00     0.252 C 
ATOM     24  O   UNL d   1      17.842  -6.794  -3.338  0.00  0.00    -0.268 OA
ATOM     25  N   UNL d   1      18.006  -5.759  -1.283  0.00  0.00    -0.349 N 
ATOM     26  H   UNL d   1      17.519  -5.336  -0.508  0.00  0.00     0.163 HD
BRANCH  25  27
ATOM     27  C   UNL d   1      19.481  -5.713  -1.237  0.00  0.00     0.022 C 
ATOM     28  C   UNL d   1      20.052  -7.137  -1.284  0.00  0.00     0.037 C 
ATOM     29  C   UNL d   1      20.029  -4.871  -2.400  0.00  0.00     0.037 C 
ATOM     30  C   UNL d   1      19.958  -5.059   0.079  0.00  0.00     0.037 C 
ENDBRANCH  25  27
ENDBRANCH  20  23
ENDBRANCH   1  17
TORSDOF 11
