@<TRIPOS>MOLECULE
*****
 63 67 0 0 0
SMALL
GASTEIGER

@<TRIPOS>ATOM
      1 N           2.7523   -1.4459   -0.0924 N.4     1  UNL1        0.2234
      2 C           2.3303   -0.0181    0.1036 C.3     1  UNL1        0.0144
      3 C           0.7917    0.0515    0.0757 C.3     1  UNL1        0.1322
      4 O           0.3873    0.8209    1.2063 O.3     1  UNL1       -0.4848
      5 C          -0.9657    0.8985    1.3736 C.ar    1  UNL1        0.1394
      6 C          -1.5100    2.1095    1.7662 C.ar    1  UNL1        0.0692
      7 N          -2.8244    2.2973    2.0052 N.ar    1  UNL1       -0.2591
      8 C          -3.6363    1.2210    1.8663 C.ar    1  UNL1        0.0349
      9 C          -3.1973   -0.0442    1.4861 C.ar    1  UNL1       -0.0034
     10 C          -4.1492   -1.1553    1.3444 C.2     1  UNL1       -0.0525
     11 C          -3.8101   -2.3973    0.9660 C.2     1  UNL1       -0.0538
     12 C          -4.7693   -3.4886    0.8210 C.ar    1  UNL1       -0.0185
     13 C          -5.9895   -3.3424    0.1763 C.ar    1  UNL1       -0.0362
     14 C          -6.8040   -4.4553    0.0764 C.ar    1  UNL1        0.0320
     15 N          -6.4808   -5.6718    0.5714 N.ar    1  UNL1       -0.2210
     16 C          -5.2839   -5.8023    1.1845 C.ar    1  UNL1        0.2210
     17 O          -4.9948   -7.0802    1.6209 O.3     1  UNL1       -0.4380
     18 C          -3.9271   -7.2890    2.4661 C.ar    1  UNL1        0.1304
     19 C          -3.0719   -8.3480    2.1589 C.ar    1  UNL1       -0.0193
     20 C          -2.0262   -8.6716    3.0265 C.ar    1  UNL1       -0.0583
     21 C          -1.7877   -7.8917    4.1590 C.ar    1  UNL1       -0.0615
     22 C          -2.6285   -6.8214    4.4575 C.ar    1  UNL1       -0.0583
     23 C          -3.7223   -6.5481    3.6363 C.ar    1  UNL1       -0.0193
     24 C          -4.3965   -4.7432    1.2906 C.ar    1  UNL1        0.0075
     25 C          -1.8255   -0.1876    1.2497 C.ar    1  UNL1       -0.0098
     26 C           2.9310    0.8420   -1.0014 C.3     1  UNL1        0.0215
     27 C           4.4268    0.9421   -1.0903 C.2     1  UNL1        0.0131
     28 C           4.9902    1.6764   -2.0519 C.ar    1  UNL1        0.0511
     29 C           4.4317    2.4625   -3.0979 C.ar    1  UNL1       -0.0482
     30 C           5.2705    3.0169   -3.9799 C.ar    1  UNL1       -0.0608
     31 C           6.7133    2.8945   -3.8365 C.ar    1  UNL1       -0.0555
     32 C           7.3157    2.1888   -2.8578 C.ar    1  UNL1        0.0098
     33 C           6.4416    1.5382   -1.8784 C.ar    1  UNL1        0.2086
     34 N           6.7375    0.8278   -0.8503 N.2     1  UNL1       -0.2369
     35 C           5.4964    0.3598   -0.1963 C.3     1  UNL1        0.1662
     36 H           3.7602   -1.6036   -0.0980 H       1  UNL1        0.1998
     37 H           2.3860   -1.8391   -0.9735 H       1  UNL1        0.1998
     38 H           2.3857   -2.0324    0.6738 H       1  UNL1        0.1998
     39 H           2.7317    0.2966    1.0737 H       1  UNL1        0.0887
     40 H           0.4193    0.5231   -0.8431 H       1  UNL1        0.0754
     41 H           0.3993   -0.9686    0.1269 H       1  UNL1        0.0754
     42 H          -0.8904    2.9908    1.8982 H       1  UNL1        0.0867
     43 H          -4.6838    1.4190    2.0844 H       1  UNL1        0.0835
     44 H          -5.1903   -0.9254    1.5697 H       1  UNL1        0.0624
     45 H          -2.7865   -2.6935    0.7707 H       1  UNL1        0.0624
     46 H          -6.2965   -2.3970   -0.2562 H       1  UNL1        0.0639
     47 H          -7.7643   -4.3945   -0.4293 H       1  UNL1        0.0831
     48 H          -3.2281   -8.9333    1.2559 H       1  UNL1        0.0654
     49 H          -1.4122   -9.5480    2.8333 H       1  UNL1        0.0619
     50 H          -0.9637   -8.1367    4.8247 H       1  UNL1        0.0618
     51 H          -2.4567   -6.2221    5.3479 H       1  UNL1        0.0619
     52 H          -4.4003   -5.7436    3.9091 H       1  UNL1        0.0654
     53 H          -3.4240   -4.8734    1.7469 H       1  UNL1        0.0677
     54 H          -1.4331   -1.1622    1.0005 H       1  UNL1        0.0661
     55 H           2.5345    1.8630   -0.8946 H       1  UNL1        0.0368
     56 H           2.5565    0.4732   -1.9697 H       1  UNL1        0.0368
     57 H           3.3582    2.6056   -3.1770 H       1  UNL1        0.0626
     58 H           4.8772    3.5842   -4.8212 H       1  UNL1        0.0618
     59 H           7.3054    3.4426   -4.5665 H       1  UNL1        0.0620
     60 H           8.3947    2.1231   -2.7902 H       1  UNL1        0.0683
     61 H           7.7004    0.6306   -0.5853 H       1  UNL1        0.4459
     62 H           5.4492    0.7482    0.8243 H       1  UNL1        0.1077
     63 H           5.5273   -0.7328   -0.1987 H       1  UNL1        0.1077
@<TRIPOS>UNITY_ATOM_ATTR
1 1
charge 1
34 1
charge 1
@<TRIPOS>BOND
     1     3     4    1
     2     4     5    1
     3     5     6   ar
     4     6     7   ar
     5     7     8   ar
     6     8     9   ar
     7     9    10    1
     8    10    11    2
     9    11    12    1
    10    12    13   ar
    11    13    14   ar
    12    14    15   ar
    13    15    16   ar
    14    16    17    1
    15    17    18    1
    16    18    19   ar
    17    19    20   ar
    18    20    21   ar
    19    21    22   ar
    20    22    23   ar
    21    18    23   ar
    22    16    24   ar
    23    12    24   ar
    24     9    25   ar
    25     5    25   ar
    26     2    26    1
    27    26    27    1
    28    27    28    2
    29    28    29   ar
    30    29    30   ar
    31    30    31   ar
    32    31    32   ar
    33    32    33   ar
    34    28    33   ar
    35    33    34    2
    36    34    35    1
    37    27    35    1
    38     2     3    1
    39     2     1    1
    40     1    36    1
    41     1    37    1
    42     1    38    1
    43     2    39    1
    44     3    40    1
    45     3    41    1
    46     6    42    1
    47     8    43    1
    48    10    44    1
    49    11    45    1
    50    13    46    1
    51    14    47    1
    52    19    48    1
    53    20    49    1
    54    21    50    1
    55    22    51    1
    56    23    52    1
    57    24    53    1
    58    25    54    1
    59    26    55    1
    60    26    56    1
    61    29    57    1
    62    30    58    1
    63    31    59    1
    64    32    60    1
    65    34    61    1
    66    35    62    1
    67    35    63    1
