@<TRIPOS>MOLECULE
*****
 57 60 0 0 0
SMALL
GASTEIGER

@<TRIPOS>ATOM
      1 C           1.6863   -2.4741    0.6880 C.3     1  UNL1        0.0379
      2 O           2.4321   -1.7495    1.6621 O.3     1  UNL1       -0.3659
      3 C           2.9463   -0.4729    1.2485 C.3     1  UNL1        0.1592
      4 C           2.6591    0.0426   -0.2094 C.2     1  UNL1        0.2506
      5 O           2.7471   -0.7276   -1.1783 O.2     1  UNL1       -0.2722
      6 N           2.3703    1.3973   -0.3826 N.am    1  UNL1       -0.2828
      7 C           1.9876    1.8582   -1.6814 C.ar    1  UNL1        0.0386
      8 C           2.7453    2.8857   -2.3125 C.ar    1  UNL1       -0.0109
      9 C           2.3018    3.2587   -3.6131 C.ar    1  UNL1        0.1149
     10 N           2.8230    4.1200   -4.5134 N.ar    1  UNL1       -0.1470
     11 N           1.8847    4.1347   -5.5001 N.ar    1  UNL1       -0.1492
     12 C           1.9907    4.9353   -6.6661 C.ar    1  UNL1        0.0862
     13 C           0.8858    5.6744   -7.1123 C.ar    1  UNL1       -0.0343
     14 C           0.9231    6.3190   -8.3564 C.ar    1  UNL1       -0.0563
     15 C           2.0790    6.2817   -9.1520 C.ar    1  UNL1       -0.0447
     16 C           2.0643    6.9024  -10.5484 C.3     1  UNL1       -0.0215
     17 C           1.7202    8.3948  -10.5084 C.3     1  UNL1       -0.0587
     18 C           3.3826    6.7138  -11.3102 C.3     1  UNL1       -0.0587
     19 C           3.2060    5.6142   -8.6361 C.ar    1  UNL1       -0.0563
     20 C           3.1601    4.9181   -7.4220 C.ar    1  UNL1       -0.0343
     21 N           0.8347    3.2988   -5.3567 N.ar    1  UNL1       -0.1471
     22 C           1.1046    2.6719   -4.2059 C.ar    1  UNL1        0.1135
     23 C           0.3788    1.6481   -3.5820 C.ar    1  UNL1       -0.0277
     24 C           0.8329    1.2604   -2.3010 C.ar    1  UNL1       -0.0271
     25 C          -0.0096    0.2270   -1.5844 C.3     1  UNL1       -0.0379
     26 C           4.4719   -0.4787    1.3852 C.ar    1  UNL1       -0.0100
     27 C           5.1733    0.7402    1.3927 C.ar    1  UNL1       -0.0543
     28 C           6.5493    0.7624    1.1641 C.ar    1  UNL1       -0.0430
     29 C           7.2526   -0.4347    1.0652 C.ar    1  UNL1        0.0410
     30 CL          8.9399   -0.4086    0.7348 Cl      1  UNL1       -0.0835
     31 C           6.5938   -1.6517    1.2063 C.ar    1  UNL1       -0.0430
     32 C           5.2032   -1.6745    1.3108 C.ar    1  UNL1       -0.0543
     33 H           1.3784   -3.4357    1.1096 H       1  UNL1        0.0524
     34 H           2.2875   -2.7117   -0.1942 H       1  UNL1        0.0524
     35 H           0.7804   -1.9236    0.4224 H       1  UNL1        0.0524
     36 H           2.5435    0.2411    1.9791 H       1  UNL1        0.0744
     37 H           2.8467    2.0480    0.2310 H       1  UNL1        0.1549
     38 H           3.6327    3.3309   -1.8818 H       1  UNL1        0.0659
     39 H           0.0006    5.7797   -6.4889 H       1  UNL1        0.0639
     40 H           0.0337    6.8434   -8.7026 H       1  UNL1        0.0621
     41 H           1.2840    6.3866  -11.1280 H       1  UNL1        0.0343
     42 H           2.4552    8.9477   -9.9145 H       1  UNL1        0.0235
     43 H           0.7327    8.5749  -10.0712 H       1  UNL1        0.0235
     44 H           1.7068    8.8202  -11.5184 H       1  UNL1        0.0235
     45 H           4.2075    7.2097  -10.7854 H       1  UNL1        0.0235
     46 H           3.3320    7.1329  -12.3194 H       1  UNL1        0.0235
     47 H           3.6284    5.6499  -11.4091 H       1  UNL1        0.0235
     48 H           4.1451    5.5956   -9.1827 H       1  UNL1        0.0621
     49 H           4.0138    4.3119   -7.1301 H       1  UNL1        0.0639
     50 H          -0.4912    1.2063   -4.0484 H       1  UNL1        0.0643
     51 H          -0.9216   -0.0022   -2.1410 H       1  UNL1        0.0278
     52 H          -0.3024    0.5958   -0.5962 H       1  UNL1        0.0278
     53 H           0.5082   -0.7264   -1.4876 H       1  UNL1        0.0278
     54 H           4.6515    1.6852    1.5133 H       1  UNL1        0.0622
     55 H           7.0622    1.7128    1.0436 H       1  UNL1        0.0632
     56 H           7.1462   -2.5865    1.1931 H       1  UNL1        0.0632
     57 H           4.6912   -2.6349    1.2907 H       1  UNL1        0.0622
@<TRIPOS>BOND
     1     1     2    1
     2     4     5    2
     3     4     6   am
     4     6     7    1
     5     7     8   ar
     6     8     9   ar
     7     9    10   ar
     8    10    11   ar
     9    11    12    1
    10    12    13   ar
    11    13    14   ar
    12    14    15   ar
    13    15    16    1
    14    16    17    1
    15    16    18    1
    16    15    19   ar
    17    19    20   ar
    18    12    20   ar
    19    11    21   ar
    20    21    22   ar
    21     9    22   ar
    22    22    23   ar
    23    23    24   ar
    24     7    24   ar
    25    24    25    1
    26     3    26    1
    27    26    27   ar
    28    27    28   ar
    29    28    29   ar
    30    29    30    1
    31    29    31   ar
    32    31    32   ar
    33    26    32   ar
    34     3     4    1
    35     3     2    1
    36     1    33    1
    37     1    34    1
    38     1    35    1
    39     3    36    1
    40     6    37    1
    41     8    38    1
    42    13    39    1
    43    14    40    1
    44    16    41    1
    45    17    42    1
    46    17    43    1
    47    17    44    1
    48    18    45    1
    49    18    46    1
    50    18    47    1
    51    19    48    1
    52    20    49    1
    53    23    50    1
    54    25    51    1
    55    25    52    1
    56    25    53    1
    57    27    54    1
    58    28    55    1
    59    31    56    1
    60    32    57    1
