@<TRIPOS>MOLECULE
*****
 64 66 0 0 0
SMALL
GASTEIGER

@<TRIPOS>ATOM
      1 C           2.0338   -3.3044   -3.7222 C.3     1  UNL1       -0.0645
      2 C           2.0063   -4.8236   -3.8249 C.3     1  UNL1       -0.0464
      3 C           2.8170   -5.4917   -2.7102 C.3     1  UNL1        0.0009
      4 S           2.7936   -7.3080   -2.9630 S.3     1  UNL1       -0.0860
      5 C           3.7582   -7.8347   -1.5801 C.ar    1  UNL1        0.1896
      6 N           4.9299   -8.4538   -1.7837 N.ar    1  UNL1       -0.2295
      7 C           5.6463   -8.8184   -0.6854 C.ar    1  UNL1        0.0455
      8 C           5.2498   -8.5893    0.6153 C.ar    1  UNL1        0.0916
      9 C           6.1441   -8.9850    1.7403 C.2     1  UNL1        0.2487
     10 O           7.1953   -9.6025    1.5025 O.2     1  UNL1       -0.2700
     11 N           5.8105   -8.6681    3.0426 N.am    1  UNL1       -0.3055
     12 C           6.6698   -9.0653    4.1880 C.3     1  UNL1        0.0593
     13 C           6.0554   -8.8440    5.6285 C.3     1  UNL1        0.0244
     14 C           6.0609   -7.4016    6.0439 C.ar    1  UNL1        0.0466
     15 C           7.2383   -6.8033    6.5807 C.ar    1  UNL1       -0.0079
     16 C           7.2909   -5.4303    6.8725 C.ar    1  UNL1        0.1208
     17 O           8.4189   -4.9733    7.5052 O.3     1  UNL1       -0.4951
     18 C           8.3732   -3.6192    7.9775 C.3     1  UNL1        0.0788
     19 C           6.2109   -4.6345    6.5130 C.ar    1  UNL1       -0.0165
     20 C           5.0548   -5.2097    5.9695 C.ar    1  UNL1       -0.0160
     21 C           4.9454   -6.5890    5.7396 C.ar    1  UNL1        0.1289
     22 O           3.7563   -6.9332    5.1348 O.3     1  UNL1       -0.4946
     23 C           3.1987   -8.2458    5.0153 C.3     1  UNL1        0.0788
     24 N           6.0445   -9.9750    6.6871 N.4     1  UNL1        0.2419
     25 C           4.6129  -10.2371    7.2991 C.3     1  UNL1       -0.0313
     26 C           4.6277  -11.4136    8.2650 C.3     1  UNL1       -0.0123
     27 C           5.1294  -12.6443    7.5282 C.3     1  UNL1       -0.0434
     28 C           6.5568  -12.3752    7.0858 C.3     1  UNL1       -0.0123
     29 C           6.5796  -11.2481    6.0842 C.3     1  UNL1       -0.0313
     30 C           4.0118   -7.9848    0.6704 C.ar    1  UNL1        0.1456
     31 CL          3.1879   -7.5254    2.0835 Cl      1  UNL1       -0.0611
     32 N           3.2544   -7.6080   -0.3762 N.ar    1  UNL1       -0.2095
     33 H           1.4508   -2.8593   -4.5361 H       1  UNL1        0.0230
     34 H           3.0573   -2.9237   -3.7948 H       1  UNL1        0.0230
     35 H           1.6038   -2.9646   -2.7750 H       1  UNL1        0.0230
     36 H           2.4050   -5.1098   -4.8058 H       1  UNL1        0.0271
     37 H           0.9614   -5.1557   -3.7858 H       1  UNL1        0.0271
     38 H           2.3971   -5.2239   -1.7330 H       1  UNL1        0.0381
     39 H           3.8545   -5.1417   -2.7416 H       1  UNL1        0.0381
     40 H           6.5937   -9.3043   -0.9157 H       1  UNL1        0.0839
     41 H           5.0630   -7.9864    3.1680 H       1  UNL1        0.1492
     42 H           7.6150   -8.5271    4.0842 H       1  UNL1        0.0522
     43 H           6.8702  -10.1169    3.9960 H       1  UNL1        0.0522
     44 H           5.0501   -8.9959    5.4191 H       1  UNL1        0.0921
     45 H           8.1504   -7.3823    6.7386 H       1  UNL1        0.0660
     46 H           9.2562   -3.4269    8.5961 H       1  UNL1        0.0660
     47 H           7.4921   -3.4348    8.6055 H       1  UNL1        0.0660
     48 H           8.4002   -2.9225    7.1331 H       1  UNL1        0.0660
     49 H           6.2363   -3.5544    6.6334 H       1  UNL1        0.0655
     50 H           4.2247   -4.5491    5.7222 H       1  UNL1        0.0655
     51 H           2.2160   -8.2384    4.5481 H       1  UNL1        0.0660
     52 H           3.0880   -8.7086    5.9893 H       1  UNL1        0.0660
     53 H           3.7560   -8.8982    4.3306 H       1  UNL1        0.0660
     54 H           6.6359   -9.6664    7.4691 H       1  UNL1        0.2040
     55 H           3.9412  -10.5041    6.4711 H       1  UNL1        0.0814
     56 H           4.2646   -9.3228    7.7926 H       1  UNL1        0.0814
     57 H           3.6215  -11.6122    8.6577 H       1  UNL1        0.0317
     58 H           5.2689  -11.1814    9.1213 H       1  UNL1        0.0317
     59 H           4.4915  -12.8403    6.6527 H       1  UNL1        0.0269
     60 H           5.0831  -13.5311    8.1637 H       1  UNL1        0.0269
     61 H           6.9813  -13.2709    6.6258 H       1  UNL1        0.0317
     62 H           7.1779  -12.1056    7.9466 H       1  UNL1        0.0317
     63 H           5.9345  -11.4973    5.2303 H       1  UNL1        0.0814
     64 H           7.6015  -11.0456    5.7565 H       1  UNL1        0.0814
@<TRIPOS>UNITY_ATOM_ATTR
24 1
charge 1
@<TRIPOS>BOND
     1     1     2    1
     2     2     3    1
     3     3     4    1
     4     4     5    1
     5     5     6   ar
     6     6     7   ar
     7     7     8   ar
     8     8     9    1
     9     9    10    2
    10     9    11   am
    11    11    12    1
    12    14    15   ar
    13    15    16   ar
    14    16    17    1
    15    17    18    1
    16    16    19   ar
    17    19    20   ar
    18    20    21   ar
    19    14    21   ar
    20    21    22    1
    21    22    23    1
    22    13    24    1
    23    24    25    1
    24    25    26    1
    25    26    27    1
    26    27    28    1
    27    28    29    1
    28    24    29    1
    29     8    30   ar
    30    30    31    1
    31    30    32   ar
    32     5    32   ar
    33    13    14    1
    34    13    12    1
    35     1    33    1
    36     1    34    1
    37     1    35    1
    38     2    36    1
    39     2    37    1
    40     3    38    1
    41     3    39    1
    42     7    40    1
    43    11    41    1
    44    12    42    1
    45    12    43    1
    46    13    44    1
    47    15    45    1
    48    18    46    1
    49    18    47    1
    50    18    48    1
    51    19    49    1
    52    20    50    1
    53    23    51    1
    54    23    52    1
    55    23    53    1
    56    24    54    1
    57    25    55    1
    58    25    56    1
    59    26    57    1
    60    26    58    1
    61    27    59    1
    62    27    60    1
    63    28    61    1
    64    28    62    1
    65    29    63    1
    66    29    64    1
