@<TRIPOS>MOLECULE
*****
 59 64 0 0 0
SMALL
GASTEIGER

@<TRIPOS>ATOM
      1 C           0.9823   -0.0227    0.1114 C.3     1  UNL1        0.0788
      2 O           2.4082   -0.0660    0.0698 O.3     1  UNL1       -0.4951
      3 C           3.0231    0.9436    0.7569 C.ar    1  UNL1        0.1207
      4 C           2.7030    1.2780    2.0864 C.ar    1  UNL1       -0.0182
      5 C           3.4253    2.2581    2.7568 C.ar    1  UNL1       -0.0365
      6 C           4.4649    2.8363    2.0700 C.ar    1  UNL1        0.0432
      7 C           4.8076    2.5361    0.7455 C.ar    1  UNL1        0.0377
      8 C           4.0831    1.5680    0.0784 C.ar    1  UNL1       -0.0089
      9 C           5.9851    3.4045    0.3251 C.3     1  UNL1        0.1069
     10 C           6.3514    4.0301    1.6979 C.2     1  UNL1        0.2741
     11 O           7.3475    4.6714    1.9466 O.2     1  UNL1       -0.2685
     12 N           5.3615    3.7241    2.6041 N.am    1  UNL1       -0.2798
     13 C           5.6116    4.3846   -0.8221 C.3     1  UNL1        0.0927
     14 C           5.8167    5.9274   -0.5867 C.2     1  UNL1        0.1750
     15 O           6.4122    6.6446   -1.3863 O.2     1  UNL1       -0.2914
     16 C           5.1647    6.7615    0.4482 C.ar    1  UNL1        0.0360
     17 C           5.3036    6.6475    1.8198 C.ar    1  UNL1       -0.0484
     18 C           4.8103    7.5535    2.7285 C.ar    1  UNL1       -0.0429
     19 C           4.1354    8.6163    2.2153 C.ar    1  UNL1        0.0276
     20 N           4.0519    8.8613    0.8904 N.ar    1  UNL1       -0.2626
     21 C           4.6184    7.9662    0.0415 C.ar    1  UNL1        0.0380
     22 C           6.3379    3.7616   -2.1212 C.3     1  UNL1        0.0443
     23 C           7.2215    4.7111   -2.9143 C.ar    1  UNL1       -0.0316
     24 C           8.3538    5.2750   -2.2951 C.ar    1  UNL1       -0.0577
     25 C           9.1415    6.2761   -2.8138 C.ar    1  UNL1       -0.0551
     26 C           8.7336    6.8436   -3.9886 C.ar    1  UNL1        0.0156
     27 C           7.6485    6.2784   -4.6825 C.ar    1  UNL1        0.2734
     28 N           7.2067    6.9399   -5.9063 N.pl3   1  UNL1        0.0796
     29 O           7.7958    7.9761   -6.2419 O.2     1  UNL1        0.0414
     30 O           6.2636    6.4264   -6.5216 O.co2   1  UNL1       -0.5760
     31 C           6.9312    5.1594   -4.1964 C.ar    1  UNL1        0.0192
     32 C           7.1200    2.4955   -1.6426 C.3     1  UNL1       -0.0015
     33 C           8.5406    2.2586   -2.1865 C.3     1  UNL1        0.0422
     34 S           9.6989    2.4444   -0.8114 S.3     1  UNL1       -0.1061
     35 C           8.5215    3.1795    0.2866 C.3     1  UNL1        0.0175
     36 N           7.1965    2.6104   -0.1437 N.4     1  UNL1        0.2605
     37 H           0.6135   -0.8260   -0.5334 H       1  UNL1        0.0660
     38 H           0.6118    0.9276   -0.2882 H       1  UNL1        0.0660
     39 H           0.5925   -0.2007    1.1176 H       1  UNL1        0.0660
     40 H           1.9238    0.7510    2.6308 H       1  UNL1        0.0655
     41 H           3.2063    2.5213    3.7874 H       1  UNL1        0.0637
     42 H           4.2981    1.2651   -0.9407 H       1  UNL1        0.0660
     43 H           5.3417    4.0978    3.5456 H       1  UNL1        0.1550
     44 H           4.5296    4.3151   -1.0413 H       1  UNL1        0.0457
     45 H           5.8946    5.9550    2.3503 H       1  UNL1        0.0625
     46 H           5.0118    7.4029    3.7840 H       1  UNL1        0.0633
     47 H           3.6596    9.3185    2.8841 H       1  UNL1        0.0829
     48 H           4.6760    8.2931   -0.9967 H       1  UNL1        0.0836
     49 H           5.5452    3.3896   -2.7961 H       1  UNL1        0.0414
     50 H           8.5897    5.0830   -1.2786 H       1  UNL1        0.0620
     51 H           9.9605    6.6643   -2.2153 H       1  UNL1        0.0620
     52 H           9.2385    7.7468   -4.3153 H       1  UNL1        0.0685
     53 H           6.1270    4.7179   -4.7834 H       1  UNL1        0.0688
     54 H           6.5142    1.5974   -1.8233 H       1  UNL1        0.0866
     55 H           8.8216    2.9214   -3.0057 H       1  UNL1        0.0434
     56 H           8.6556    1.2524   -2.5870 H       1  UNL1        0.0434
     57 H           8.4879    4.2608    0.2074 H       1  UNL1        0.0938
     58 H           8.7199    2.9301    1.3301 H       1  UNL1        0.0938
     59 H           7.1774    1.6834    0.2977 H       1  UNL1        0.2060
@<TRIPOS>UNITY_ATOM_ATTR
28 1
charge 1
30 1
charge -1
36 1
charge 1
@<TRIPOS>BOND
     1     1     2    1
     2     2     3    1
     3     3     4   ar
     4     4     5   ar
     5     5     6   ar
     6     6     7   ar
     7     7     8   ar
     8     3     8   ar
     9     7     9    1
    10     9    10    1
    11    10    11    2
    12    10    12   am
    13     6    12    1
    14     9    13    1
    15    13    14    1
    16    14    15    2
    17    14    16    1
    18    16    17   ar
    19    17    18   ar
    20    18    19   ar
    21    19    20   ar
    22    20    21   ar
    23    16    21   ar
    24    13    22    1
    25    22    23    1
    26    23    24   ar
    27    24    25   ar
    28    25    26   ar
    29    26    27   ar
    30    27    28    1
    31    28    29    2
    32    28    30    1
    33    27    31   ar
    34    23    31   ar
    35    22    32    1
    36    32    33    1
    37    33    34    1
    38    34    35    1
    39    35    36    1
    40    32    36    1
    41     9    36    1
    42     1    37    1
    43     1    38    1
    44     1    39    1
    45     4    40    1
    46     5    41    1
    47     8    42    1
    48    12    43    1
    49    13    44    1
    50    17    45    1
    51    18    46    1
    52    19    47    1
    53    21    48    1
    54    22    49    1
    55    24    50    1
    56    25    51    1
    57    26    52    1
    58    31    53    1
    59    32    54    1
    60    33    55    1
    61    33    56    1
    62    35    57    1
    63    35    58    1
    64    36    59    1
