REMARK  7 active torsions:
REMARK  status: ('A' for Active; 'I' for Inactive)
REMARK       I    between atoms: C_2  and  N_3 
REMARK    1  A    between atoms: C_2  and  C_12 
REMARK    2  A    between atoms: N_3  and  C_4 
REMARK    3  A    between atoms: C_10  and  O_11 
REMARK    4  A    between atoms: N_15  and  C_16 
REMARK    5  A    between atoms: C_16  and  C_17 
REMARK    6  A    between atoms: C_20  and  C_21 
REMARK    7  A    between atoms: C_24  and  N_25 
ROOT
ATOM      1  C   UNL d   1       3.123  -1.096   0.366  0.00  0.00     0.081 C 
ATOM      2  C   UNL d   1       3.103  -1.317   1.893  0.00  0.00     0.042 C 
ATOM      3  C   UNL d   1       3.071   0.014   2.639  0.00  0.00     0.236 C 
ATOM      4  N   UNL d   1       4.265   0.895   2.227  0.00  0.00    -0.064 N 
ATOM      5  C   UNL d   1       4.543   0.897   0.759  0.00  0.00     0.236 C 
ATOM      6  C   UNL d   1       4.500  -0.497   0.117  0.00  0.00     0.042 C 
ATOM      7  H   UNL d   1       5.107   0.561   2.713  0.00  0.00     0.280 HD
ENDROOT
BRANCH   4   8
ATOM      8  C   UNL d   1       4.028   2.375   2.680  0.00  0.00     0.322 C 
BRANCH   8   9
ATOM      9  C   UNL d   1       5.118   3.359   2.349  0.00  0.00     0.195 A 
ATOM     10  N   UNL d   1       5.919   3.975   3.187  0.00  0.00    -0.125 NA
ATOM     11  N   UNL d   1       6.820   4.685   2.427  0.00  0.00    -0.121 NA
ATOM     12  C   UNL d   1       6.509   4.488   1.164  0.00  0.00     0.202 A 
ATOM     13  O   UNL d   1       5.413   3.656   1.027  0.00  0.00    -0.271 OA
BRANCH  12  14
ATOM     14  C   UNL d   1       7.146   5.036  -0.033  0.00  0.00     0.019 A 
ATOM     15  C   UNL d   1       8.537   4.923  -0.224  0.00  0.00     0.018 A 
ATOM     16  C   UNL d   1       9.182   5.592  -1.279  0.00  0.00     0.037 A 
ATOM     17  C   UNL d   1       8.423   6.330  -2.196  0.00  0.00     0.102 A 
ATOM     18  C   UNL d   1       7.041   6.458  -2.016  0.00  0.00     0.037 A 
ATOM     19  C   UNL d   1       6.410   5.813  -0.940  0.00  0.00     0.018 A 
BRANCH  17  20
ATOM     20  N   UNL d   1       9.073   6.912  -3.382  0.00  0.00    -0.116 N 
ATOM     21  O   UNL d   1      10.284   6.740  -3.520  0.00  0.00    -0.532 OA
ATOM     22  O   UNL d   1       8.341   7.507  -4.196  0.00  0.00    -0.532 OA
ENDBRANCH  17  20
ENDBRANCH  12  14
ENDBRANCH   8   9
ENDBRANCH   4   8
BRANCH   1  23
ATOM     23  C   UNL d   1       2.025  -0.134  -0.206  0.00  0.00     0.226 C 
ATOM     24  O   UNL d   1       0.865  -0.236   0.136  0.00  0.00    -0.273 OA
ATOM     25  N   UNL d   1       2.531   0.843  -1.076  0.00  0.00    -0.324 N 
ATOM     26  H   UNL d   1       3.387   0.675  -1.585  0.00  0.00     0.169 HD
BRANCH  25  27
ATOM     27  C   UNL d   1       2.049   2.149  -1.291  0.00  0.00     0.069 C 
ATOM     28  C   UNL d   1       2.615   2.823  -2.381  0.00  0.00     0.056 C 
ATOM     29  C   UNL d   1       2.011   3.978  -2.852  0.00  0.00     0.036 C 
ATOM     30 CL   UNL d   1       2.566   4.670  -4.322  0.00  0.00    -0.084 Cl
ATOM     31  C   UNL d   1       0.915   4.513  -2.181  0.00  0.00     0.026 C 
ATOM     32  C   UNL d   1       0.493   3.955  -0.970  0.00  0.00     0.040 C 
ATOM     33  C   UNL d   1       1.103   2.798  -0.498  0.00  0.00     0.092 C 
BRANCH  33  34
ATOM     34  O   UNL d   1       0.863   2.379   0.781  0.00  0.00    -0.358 OA
ATOM     35  H   UNL d   1      -0.001   2.735   1.061  0.00  0.00     0.217 HD
ENDBRANCH  33  34
ENDBRANCH  25  27
ENDBRANCH   1  23
TORSDOF 7
