REMARK  12 active torsions:
REMARK  status: ('A' for Active; 'I' for Inactive)
REMARK    1  A    between atoms: C_2  and  O_3 
REMARK    2  A    between atoms: O_3  and  C_4 
REMARK    3  A    between atoms: C_7  and  C_8 
REMARK       I    between atoms: C_8  and  N_10 
REMARK    4  A    between atoms: N_10  and  C_11 
REMARK    5  A    between atoms: C_11  and  N_13 
REMARK    6  A    between atoms: N_13  and  C_14 
REMARK    7  A    between atoms: C_17  and  C_18 
REMARK       I    between atoms: C_18  and  N_20 
REMARK    8  A    between atoms: N_20  and  C_21 
REMARK    9  A    between atoms: C_21  and  C_22 
REMARK   10  A    between atoms: C_22  and  N_23 
REMARK   11  A    between atoms: N_23  and  C_24 
REMARK   12  A    between atoms: N_23  and  C_26 
ROOT
ATOM      1  C   UNL d   1      13.066   2.179   0.400  0.00  0.00     0.034 A 
ATOM      2  C   UNL d   1      13.760   3.308  -0.056  0.00  0.00     0.030 A 
ATOM      3  C   UNL d   1      15.175   3.354   0.027  0.00  0.00     0.019 A 
ATOM      4  C   UNL d   1      15.893   2.293   0.604  0.00  0.00     0.032 A 
ATOM      5  C   UNL d   1      15.194   1.173   1.034  0.00  0.00     0.019 A 
ATOM      6  C   UNL d   1      13.817   1.110   0.891  0.00  0.00     0.030 A 
ENDROOT
BRANCH   1   7
ATOM      7  N   UNL d   1      11.633   2.069   0.377  0.00  0.00    -0.333 N 
ATOM      8  H   UNL d   1      11.173   2.554  -0.385  0.00  0.00     0.168 HD
BRANCH   7   9
ATOM      9  C   UNL d   1      10.878   1.585   1.481  0.00  0.00     0.179 C 
ATOM     10  S   UNL d   1      11.563   1.302   3.007  0.00  0.00    -0.040 SA
BRANCH   9  11
ATOM     11  N   UNL d   1       9.502   1.397   1.215  0.00  0.00    -0.299 N 
ATOM     12  C   UNL d   1       8.564   0.881   2.148  0.00  0.00     0.257 C 
ATOM     13  O   UNL d   1       8.858   0.445   3.255  0.00  0.00    -0.267 OA
ATOM     14  H   UNL d   1       9.167   1.689   0.311  0.00  0.00     0.171 HD
BRANCH  12  15
ATOM     15  C   UNL d   1       7.107   0.794   1.840  0.00  0.00     0.033 A 
ATOM     16  C   UNL d   1       6.239   0.292   2.834  0.00  0.00     0.020 A 
ATOM     17  C   UNL d   1       4.857   0.193   2.612  0.00  0.00     0.039 A 
ATOM     18  C   UNL d   1       4.309   0.577   1.379  0.00  0.00     0.086 A 
ATOM     19  C   UNL d   1       5.175   1.111   0.407  0.00  0.00     0.045 A 
ATOM     20  C   UNL d   1       6.559   1.198   0.635  0.00  0.00     0.039 A 
ATOM     21 BR   UNL d   1       4.662   1.901  -1.248  0.00  0.00    -0.048 Br
BRANCH  18  22
ATOM     22  O   UNL d   1       2.942   0.476   1.298  0.00  0.00    -0.350 OA
BRANCH  22  23
ATOM     23  C   UNL d   1       2.436  -0.128   0.104  0.00  0.00     0.171 C 
ATOM     24  C   UNL d   1       0.920  -0.106   0.107  0.00  0.00     0.034 C 
ENDBRANCH  22  23
ENDBRANCH  18  22
ENDBRANCH  12  15
ENDBRANCH   9  11
ENDBRANCH   7   9
ENDBRANCH   1   7
BRANCH   4  25
ATOM     25  C   UNL d   1      17.379   2.359   0.746  0.00  0.00     0.251 C 
ATOM     26  O   UNL d   1      17.995   3.371   0.467  0.00  0.00    -0.268 OA
ATOM     27  N   UNL d   1      18.015   1.217   1.263  0.00  0.00    -0.355 N 
ATOM     28  H   UNL d   1      17.459   0.577   1.805  0.00  0.00     0.162 HD
BRANCH  27  29
ATOM     29  C   UNL d   1      19.391   1.365   1.638  0.00  0.00     0.150 C 
BRANCH  29  30
ATOM     30  C   UNL d   1      20.004   0.226   2.452  0.00  0.00     0.254 C 
BRANCH  30  31
ATOM     31  N   UNL d   1      21.494   0.432   2.752  0.00  0.00    -0.070 N 
ATOM     32  H   UNL d   1      21.985   0.519   1.850  0.00  0.00     0.279 HD
BRANCH  31  33
ATOM     33  C   UNL d   1      21.814   1.661   3.600  0.00  0.00     0.230 C 
ATOM     34  C   UNL d   1      21.520   2.994   2.944  0.00  0.00     0.034 C 
ENDBRANCH  31  33
BRANCH  31  35
ATOM     35  C   UNL d   1      22.033  -0.838   3.428  0.00  0.00     0.230 C 
ATOM     36  C   UNL d   1      23.536  -0.773   3.640  0.00  0.00     0.034 C 
ENDBRANCH  31  35
ENDBRANCH  30  31
ENDBRANCH  29  30
ENDBRANCH  27  29
ENDBRANCH   4  25
TORSDOF 12
