@<TRIPOS>MOLECULE
*****
 53 56 0 0 0
SMALL
GASTEIGER

@<TRIPOS>ATOM
      1 C           2.4839   -0.0055   -0.0129 C.3     1  UNL1       -0.0397
      2 C           0.9851   -0.0064    0.0014 C.ar    1  UNL1       -0.0503
      3 C           0.2568   -1.1971    0.0034 C.ar    1  UNL1       -0.0571
      4 C          -1.1444   -1.1696   -0.0015 C.ar    1  UNL1       -0.0406
      5 C          -1.8559    0.0376   -0.0136 C.ar    1  UNL1        0.0275
      6 N          -3.2325    0.0084   -0.0073 N.pl3   1  UNL1       -0.3353
      7 C          -4.1055    1.1690   -0.0614 C.3     1  UNL1        0.0874
      8 C          -5.5999    0.7147   -0.1146 C.2     1  UNL1        0.2493
      9 O          -5.9392   -0.4644   -0.1429 O.2     1  UNL1       -0.2724
     10 N          -6.4481    1.8109   -0.1262 N.am    1  UNL1       -0.2057
     11 N          -7.8139    1.7741   -0.1872 N.2     1  UNL1       -0.1877
     12 C          -8.5331    2.8759   -0.1754 C.2     1  UNL1        0.0528
     13 C          -8.1473    4.3256   -0.1224 C.ar    1  UNL1       -0.0052
     14 C          -9.0809    5.3796   -0.1333 C.ar    1  UNL1       -0.0496
     15 C          -8.6385    6.7348   -0.1243 C.ar    1  UNL1       -0.0186
     16 C          -7.2822    7.0112    0.0516 C.ar    1  UNL1        0.1320
     17 O          -6.7254    8.3127   -0.1483 O.3     1  UNL1       -0.4223
     18 C          -5.3244    8.6293   -0.2598 C.2     1  UNL1        0.3446
     19 O          -4.8228    9.4946    0.4018 O.2     1  UNL1       -0.2445
     20 C          -4.4845    7.8079   -1.2154 C.ar    1  UNL1        0.0631
     21 C          -3.1196    7.9386   -1.4168 C.ar    1  UNL1       -0.0441
     22 C          -2.5268    7.1347   -2.4361 C.ar    1  UNL1       -0.0154
     23 C          -3.2475    6.0261   -2.9361 C.ar    1  UNL1        0.1663
     24 C          -4.2635    5.6150   -2.1598 C.ar    1  UNL1        0.1670
     25 C          -5.0403    6.7159   -1.8263 C.ar    1  UNL1       -0.0022
     26 O          -4.8601    4.4808   -2.6798 O.3     1  UNL1       -0.4526
     27 C          -5.1118    5.0901   -3.9327 C.3     1  UNL1        0.2332
     28 O          -3.9326    5.9556   -4.2396 O.3     1  UNL1       -0.4526
     29 C          -6.4234    5.9672    0.2945 C.ar    1  UNL1       -0.0186
     30 C          -6.8230    4.6926   -0.0243 C.ar    1  UNL1       -0.0496
     31 C          -1.1120    1.2209   -0.0017 C.ar    1  UNL1       -0.0406
     32 C           0.2883    1.2037    0.0032 C.ar    1  UNL1       -0.0571
     33 H           2.8885   -1.0226    0.0005 H       1  UNL1        0.0278
     34 H           2.8703    0.5227    0.8649 H       1  UNL1        0.0278
     35 H           2.8485    0.4902   -0.9186 H       1  UNL1        0.0278
     36 H           0.7674   -2.1573    0.0061 H       1  UNL1        0.0621
     37 H          -1.6818   -2.1156    0.0001 H       1  UNL1        0.0636
     38 H          -3.7165   -0.8856   -0.0676 H       1  UNL1        0.1466
     39 H          -3.8880    1.7784   -0.9495 H       1  UNL1        0.0557
     40 H          -3.9455    1.7932    0.8283 H       1  UNL1        0.0557
     41 H          -6.0139    2.6099    0.2745 H       1  UNL1        0.1773
     42 H          -9.6267    2.7069   -0.1962 H       1  UNL1        0.0851
     43 H         -10.1499    5.1787   -0.1935 H       1  UNL1        0.0625
     44 H          -9.3520    7.5471   -0.2394 H       1  UNL1        0.0654
     45 H          -2.5357    8.6252   -0.8061 H       1  UNL1        0.0627
     46 H          -1.4353    7.1700   -2.5079 H       1  UNL1        0.0655
     47 H          -6.1020    6.7046   -2.0322 H       1  UNL1        0.0663
     48 H          -6.0558    5.6452   -3.7560 H       1  UNL1        0.1166
     49 H          -5.4097    4.3923   -4.7225 H       1  UNL1        0.1166
     50 H          -5.3570    6.0988    0.4371 H       1  UNL1        0.0654
     51 H          -5.9842    4.0876   -0.3026 H       1  UNL1        0.0625
     52 H          -1.6057    2.1865    0.0007 H       1  UNL1        0.0636
     53 H           0.8304    2.1463    0.0053 H       1  UNL1        0.0621
@<TRIPOS>BOND
     1     1     2    1
     2     2     3   ar
     3     3     4   ar
     4     4     5   ar
     5     5     6    1
     6     6     7    1
     7     7     8    1
     8     8     9    2
     9     8    10   am
    10    10    11    1
    11    11    12    2
    12    12    13    1
    13    13    14   ar
    14    14    15   ar
    15    15    16   ar
    16    16    17    1
    17    17    18    1
    18    18    19    2
    19    18    20    1
    20    20    21   ar
    21    21    22   ar
    22    22    23   ar
    23    23    24   ar
    24    24    25   ar
    25    20    25   ar
    26    24    26    1
    27    26    27    1
    28    27    28    1
    29    23    28    1
    30    16    29   ar
    31    29    30   ar
    32    13    30   ar
    33     5    31   ar
    34    31    32   ar
    35     2    32   ar
    36     1    33    1
    37     1    34    1
    38     1    35    1
    39     3    36    1
    40     4    37    1
    41     6    38    1
    42     7    39    1
    43     7    40    1
    44    10    41    1
    45    12    42    1
    46    14    43    1
    47    15    44    1
    48    21    45    1
    49    22    46    1
    50    25    47    1
    51    27    48    1
    52    27    49    1
    53    29    50    1
    54    30    51    1
    55    31    52    1
    56    32    53    1
