@<TRIPOS>MOLECULE
*****
 44 44 0 0 0
SMALL
GASTEIGER

@<TRIPOS>ATOM
      1 C           1.0646    0.0641    0.0278 C.3     1  UNL1       -0.0612
      2 C           2.6025    0.0637    0.0540 C.3     1  UNL1       -0.0311
      3 C           3.0708    1.0128    1.1573 C.3     1  UNL1       -0.0612
      4 C           3.1613   -1.3628    0.2660 C.3     1  UNL1        0.0154
      5 N           4.6279   -1.4596    0.2604 N.am    1  UNL1       -0.2980
      6 C           5.2798   -2.6598    0.4713 C.2     1  UNL1        0.3160
      7 O           4.6846   -3.7230    0.6551 O.2     1  UNL1       -0.2513
      8 N           6.6641   -2.5826    0.4599 N.am    1  UNL1       -0.2182
      9 N           7.4472   -3.7703    0.6611 N.am    1  UNL1       -0.2332
     10 C           8.8349   -3.6883    0.6479 C.2     1  UNL1        0.2292
     11 O           9.4135   -2.6146    0.4736 O.2     1  UNL1       -0.2743
     12 C           9.5968   -5.0108    0.8644 C.3     1  UNL1        0.0285
     13 C          11.1300   -4.8173    0.8440 C.3     1  UNL1       -0.0103
     14 C          11.9211   -6.1178    1.0519 C.3     1  UNL1        0.0902
     15 O          13.3307   -5.8232    1.0455 O.3     1  UNL1       -0.4891
     16 C          14.1567   -6.9154    1.1676 C.ar    1  UNL1        0.1555
     17 C          15.2833   -6.7641    1.9866 C.ar    1  UNL1       -0.0171
     18 C          16.1869   -7.8228    2.1600 C.ar    1  UNL1       -0.0581
     19 C          15.9867   -9.0322    1.4952 C.ar    1  UNL1       -0.0588
     20 C          14.8919   -9.1759    0.6473 C.ar    1  UNL1       -0.0228
     21 C          13.9923   -8.1227    0.4835 C.ar    1  UNL1        0.1648
     22 F          12.9855   -8.3037   -0.3818 F       1  UNL1       -0.2017
     23 H           0.6752    1.0764   -0.1408 H       1  UNL1        0.0233
     24 H           0.6488   -0.2907    0.9779 H       1  UNL1        0.0233
     25 H           0.6758   -0.5743   -0.7719 H       1  UNL1        0.0233
     26 H           2.9557    0.4486   -0.9113 H       1  UNL1        0.0311
     27 H           2.7170    0.6748    2.1373 H       1  UNL1        0.0233
     28 H           2.6880    2.0260    0.9916 H       1  UNL1        0.0233
     29 H           4.1616    1.0741    1.1902 H       1  UNL1        0.0233
     30 H           2.7848   -2.0242   -0.5241 H       1  UNL1        0.0465
     31 H           2.8002   -1.7654    1.2202 H       1  UNL1        0.0465
     32 H           5.1702   -0.6202    0.1190 H       1  UNL1        0.1503
     33 H           7.1874   -1.7221    0.3250 H       1  UNL1        0.1744
     34 H           6.9196   -4.6311    0.7963 H       1  UNL1        0.1728
     35 H           9.3105   -5.7196    0.0778 H       1  UNL1        0.0360
     36 H           9.3019   -5.4396    1.8293 H       1  UNL1        0.0360
     37 H          11.4302   -4.0912    1.6091 H       1  UNL1        0.0302
     38 H          11.4346   -4.3761   -0.1143 H       1  UNL1        0.0302
     39 H          11.6508   -6.7999    0.2441 H       1  UNL1        0.0696
     40 H          11.6618   -6.5689    2.0166 H       1  UNL1        0.0696
     41 H          15.4619   -5.8236    2.5026 H       1  UNL1        0.0655
     42 H          17.0502   -7.7040    2.8120 H       1  UNL1        0.0619
     43 H          16.6853   -9.8552    1.6260 H       1  UNL1        0.0618
     44 H          14.7315  -10.0991    0.0994 H       1  UNL1        0.0647
@<TRIPOS>BOND
     1     1     2    1
     2     2     3    1
     3     2     4    1
     4     4     5    1
     5     5     6   am
     6     6     7    2
     7     6     8   am
     8     8     9    1
     9     9    10   am
    10    10    11    2
    11    10    12    1
    12    12    13    1
    13    13    14    1
    14    14    15    1
    15    15    16    1
    16    16    17   ar
    17    17    18   ar
    18    18    19   ar
    19    19    20   ar
    20    20    21   ar
    21    16    21   ar
    22    21    22    1
    23     1    23    1
    24     1    24    1
    25     1    25    1
    26     2    26    1
    27     3    27    1
    28     3    28    1
    29     3    29    1
    30     4    30    1
    31     4    31    1
    32     5    32    1
    33     8    33    1
    34     9    34    1
    35    12    35    1
    36    12    36    1
    37    13    37    1
    38    13    38    1
    39    14    39    1
    40    14    40    1
    41    17    41    1
    42    18    42    1
    43    19    43    1
    44    20    44    1
