@<TRIPOS>MOLECULE
*****
 56 57 0 0 0
SMALL
GASTEIGER

@<TRIPOS>ATOM
      1 C           1.0017    0.0161    0.1050 C.3     1  UNL1       -0.0653
      2 C           2.5243   -0.0040    0.0994 C.3     1  UNL1       -0.0555
      3 C           3.0791    0.6535   -1.1599 C.3     1  UNL1       -0.0450
      4 C           4.6177    0.5465   -1.2539 C.3     1  UNL1        0.0243
      5 C           5.1174    0.9157   -2.6566 C.2     1  UNL1        0.2173
      6 O           4.3479    0.9860   -3.6142 O.2     1  UNL1       -0.2755
      7 N           6.4627    1.2500   -2.7508 N.am    1  UNL1       -0.2826
      8 C           6.9054    2.1388   -3.7635 C.ar    1  UNL1        0.0757
      9 C           7.9604    1.7707   -4.6305 C.ar    1  UNL1       -0.0351
     10 C           8.3564    2.5865   -5.7497 C.ar    1  UNL1       -0.0385
     11 C           7.6948    3.7890   -6.0248 C.ar    1  UNL1        0.0362
     12 N           7.9235    4.6081   -7.2346 N.am    1  UNL1       -0.2965
     13 C           7.1703    5.7651   -7.6399 C.2     1  UNL1        0.1411
     14 S           5.8660    6.4290   -6.7919 S.2     1  UNL1       -0.0182
     15 N           7.5704    6.3886   -8.8551 N.am    1  UNL1       -0.2640
     16 C           6.9643    7.5758   -9.3333 C.2     1  UNL1        0.2424
     17 O           6.0787    8.2126   -8.7736 O.2     1  UNL1       -0.2704
     18 C           7.4082    8.1650  -10.6176 C.2     1  UNL1        0.0011
     19 C           6.7882    9.3149  -10.9791 C.2     1  UNL1       -0.0495
     20 C           7.0360    9.9961  -12.2450 C.ar    1  UNL1       -0.0185
     21 C           7.1869   11.3868  -12.3336 C.ar    1  UNL1       -0.0542
     22 C           7.4147   11.9895  -13.5770 C.ar    1  UNL1       -0.0548
     23 C           7.5282   11.2032  -14.7260 C.ar    1  UNL1        0.0156
     24 C           7.3268    9.8234  -14.6335 C.ar    1  UNL1        0.2737
     25 N           7.3790    8.9711  -15.8212 N.pl3   1  UNL1        0.0796
     26 O           7.6348    9.5182  -16.9088 O.2     1  UNL1        0.0414
     27 O           7.1739    7.7623  -15.6753 O.co2   1  UNL1       -0.5760
     28 C           7.0598    9.2240  -13.4039 C.ar    1  UNL1        0.0227
     29 C           6.7753    4.1445   -5.0383 C.ar    1  UNL1        0.0031
     30 C           6.3367    3.3839   -3.9499 C.ar    1  UNL1        0.1429
     31 O           5.4115    4.1036   -3.2434 O.3     1  UNL1       -0.4932
     32 C           4.9152    3.6706   -2.0045 C.3     1  UNL1        0.0789
     33 H           0.6186   -0.4954    0.9932 H       1  UNL1        0.0230
     34 H           0.6011   -0.4927   -0.7782 H       1  UNL1        0.0230
     35 H           0.6181    1.0418    0.1101 H       1  UNL1        0.0230
     36 H           2.8685   -1.0418    0.1474 H       1  UNL1        0.0263
     37 H           2.8972    0.5126    0.9911 H       1  UNL1        0.0263
     38 H           2.7583    1.7047   -1.1693 H       1  UNL1        0.0270
     39 H           2.6181    0.1923   -2.0407 H       1  UNL1        0.0270
     40 H           4.9425   -0.4748   -1.0467 H       1  UNL1        0.0358
     41 H           5.0608    1.2090   -0.4984 H       1  UNL1        0.0358
     42 H           7.1120    1.0396   -2.0045 H       1  UNL1        0.1549
     43 H           8.4339    0.7985   -4.4989 H       1  UNL1        0.0638
     44 H           9.1723    2.2274   -6.3740 H       1  UNL1        0.0637
     45 H           8.6119    4.2168   -7.8704 H       1  UNL1        0.1538
     46 H           8.2848    5.9601   -9.4240 H       1  UNL1        0.1568
     47 H           8.1604    7.6873  -11.2206 H       1  UNL1        0.0670
     48 H           6.0130    9.7821  -10.3619 H       1  UNL1        0.0625
     49 H           7.1467   12.0133  -11.4423 H       1  UNL1        0.0623
     50 H           7.5056   13.0718  -13.6513 H       1  UNL1        0.0620
     51 H           7.7625   11.6756  -15.6774 H       1  UNL1        0.0685
     52 H           6.8680    8.1562  -13.3353 H       1  UNL1        0.0691
     53 H           6.3092    5.1043   -5.0060 H       1  UNL1        0.0673
     54 H           4.3275    4.4594   -1.5307 H       1  UNL1        0.0660
     55 H           5.7187    3.3744   -1.3255 H       1  UNL1        0.0660
     56 H           4.1758    2.9032   -2.1772 H       1  UNL1        0.0660
@<TRIPOS>UNITY_ATOM_ATTR
25 1
charge 1
27 1
charge -1
@<TRIPOS>BOND
     1     1     2    1
     2     2     3    1
     3     3     4    1
     4     4     5    1
     5     5     6    2
     6     5     7   am
     7     7     8    1
     8     8     9   ar
     9     9    10   ar
    10    10    11   ar
    11    11    12    1
    12    12    13    1
    13    13    14    2
    14    13    15    1
    15    15    16   am
    16    16    17    2
    17    16    18    1
    18    18    19    2
    19    19    20    1
    20    20    21   ar
    21    21    22   ar
    22    22    23   ar
    23    23    24   ar
    24    24    25    1
    25    25    26    2
    26    25    27    1
    27    24    28   ar
    28    20    28   ar
    29    11    29   ar
    30    29    30   ar
    31     8    30   ar
    32    30    31    1
    33    31    32    1
    34     1    33    1
    35     1    34    1
    36     1    35    1
    37     2    36    1
    38     2    37    1
    39     3    38    1
    40     3    39    1
    41     4    40    1
    42     4    41    1
    43     7    42    1
    44     9    43    1
    45    10    44    1
    46    12    45    1
    47    15    46    1
    48    18    47    1
    49    19    48    1
    50    21    49    1
    51    22    50    1
    52    23    51    1
    53    28    52    1
    54    29    53    1
    55    32    54    1
    56    32    55    1
    57    32    56    1
