REMARK  3 active torsions:
REMARK  status: ('A' for Active; 'I' for Inactive)
REMARK       I    between atoms: C_2  and  N_3 
REMARK    1  A    between atoms: C_2  and  C_14 
REMARK    2  A    between atoms: N_3  and  C_4 
REMARK    3  A    between atoms: C_4  and  C_5 
ROOT
ATOM      1  O   UNL d   1       0.977  -0.079  -0.166  0.00  0.00    -0.268 OA
ATOM      2  C   UNL d   1       2.199  -0.004  -0.084  0.00  0.00     0.251 C 
ATOM      3  N   UNL d   1       2.885   1.176  -0.057  0.00  0.00    -0.351 N 
ATOM      4  H   UNL d   1       3.875   1.108  -0.031  0.00  0.00     0.163 HD
ENDROOT
BRANCH   3   5
ATOM      5  C   UNL d   1       2.300   2.510  -0.154  0.00  0.00     0.185 C 
BRANCH   5   6
ATOM      6  C   UNL d   1       3.348   3.608  -0.200  0.00  0.00     0.085 A 
ATOM      7  N   UNL d   1       2.957   4.899  -0.178  0.00  0.00    -0.176 NA
ATOM      8  N   UNL d   1       4.105   5.602  -0.230  0.00  0.00    -0.277 N 
ATOM      9  C   UNL d   1       5.233   4.830  -0.284  0.00  0.00     0.062 A 
ATOM     10  H   UNL d   1       4.056   6.616  -0.225  0.00  0.00     0.189 HD
ATOM     11  C   UNL d   1       6.593   5.166  -0.348  0.00  0.00     0.032 A 
ATOM     12  C   UNL d   1       4.778   3.515  -0.271  0.00  0.00     0.020 A 
ATOM     13  C   UNL d   1       7.518   4.116  -0.389  0.00  0.00     0.002 A 
ATOM     14  C   UNL d   1       7.101   2.796  -0.375  0.00  0.00     0.001 A 
ATOM     15  C   UNL d   1       5.746   2.491  -0.328  0.00  0.00     0.016 A 
ENDBRANCH   5   6
ENDBRANCH   3   5
BRANCH   2  16
ATOM     16  C   UNL d   1       3.036  -1.254  -0.047  0.00  0.00     0.032 A 
ATOM     17  C   UNL d   1       2.656  -2.333  -0.859  0.00  0.00     0.018 A 
ATOM     18  C   UNL d   1       3.354  -3.547  -0.813  0.00  0.00     0.025 A 
ATOM     19  C   UNL d   1       4.436  -3.693   0.052  0.00  0.00     0.034 A 
ATOM     20 CL   UNL d   1       5.264  -5.200   0.142  0.00  0.00    -0.084 Cl
ATOM     21  C   UNL d   1       4.840  -2.625   0.853  0.00  0.00     0.025 A 
ATOM     22  C   UNL d   1       4.146  -1.403   0.803  0.00  0.00     0.018 A 
ENDBRANCH   2  16
TORSDOF 3
