@<TRIPOS>MOLECULE
*****
 57 58 0 0 0
SMALL
GASTEIGER

@<TRIPOS>ATOM
      1 C           1.8790    1.4822   -0.0150 C.3     1  UNL1       -0.0395
      2 C           0.6010    0.6913    0.0017 C.ar    1  UNL1       -0.0474
      3 C          -0.5994    1.3905    0.0244 C.ar    1  UNL1       -0.0568
      4 C          -1.8161    0.7169    0.0220 C.ar    1  UNL1       -0.0402
      5 C          -1.9036   -0.6751   -0.0198 C.ar    1  UNL1        0.0336
      6 N          -3.1733   -1.3448   -0.0651 N.am    1  UNL1       -0.2855
      7 C          -4.4109   -0.6956   -0.0861 C.2     1  UNL1        0.2177
      8 O          -4.5699    0.5288   -0.0589 O.2     1  UNL1       -0.2755
      9 C          -5.6603   -1.5663   -0.1489 C.3     1  UNL1        0.0326
     10 C          -6.9405   -0.6774   -0.1530 C.3     1  UNL1        0.0336
     11 C          -8.2441   -1.4816   -0.2132 C.2     1  UNL1        0.2295
     12 O          -8.2584   -2.7152   -0.2559 O.2     1  UNL1       -0.2743
     13 N          -9.4132   -0.7367   -0.2162 N.am    1  UNL1       -0.2351
     14 N         -10.7315   -1.3671   -0.2741 N.am    1  UNL1       -0.2455
     15 C         -11.8749   -0.5456   -0.2891 C.2     1  UNL1        0.1531
     16 S         -11.6745    1.1306   -0.2157 S.2     1  UNL1       -0.0170
     17 N         -13.1245   -1.2107   -0.3720 N.am    1  UNL1       -0.2639
     18 C         -14.3968   -0.5792   -0.4173 C.2     1  UNL1        0.2561
     19 O         -14.5481    0.6431   -0.3639 O.2     1  UNL1       -0.2717
     20 C         -15.6616   -1.4658   -0.4657 C.3     1  UNL1        0.1655
     21 O         -16.8373   -0.6254   -0.4744 O.3     1  UNL1       -0.4825
     22 C         -18.0926   -1.1776   -0.4731 C.ar    1  UNL1        0.1242
     23 C         -19.0359   -0.5387   -1.3026 C.ar    1  UNL1       -0.0186
     24 C         -20.3672   -0.9781   -1.3693 C.ar    1  UNL1       -0.0443
     25 C         -20.7752   -2.0375   -0.5706 C.ar    1  UNL1        0.0184
     26 BR        -22.5576   -2.6647   -0.6425 Br      1  UNL1       -0.0503
     27 C         -19.8697   -2.6437    0.2955 C.ar    1  UNL1       -0.0414
     28 C         -18.5263   -2.2198    0.3591 C.ar    1  UNL1       -0.0077
     29 C         -17.6393   -2.8968    1.3546 C.3     1  UNL1       -0.0362
     30 C          -0.6916   -1.3916   -0.0200 C.ar    1  UNL1       -0.0373
     31 C           0.5635   -0.7176   -0.0023 C.ar    1  UNL1       -0.0458
     32 C           1.8562   -1.4929    0.0198 C.3     1  UNL1       -0.0394
     33 H           1.6779    2.5605   -0.0264 H       1  UNL1        0.0278
     34 H           2.4576    1.2535   -0.9147 H       1  UNL1        0.0278
     35 H           2.4727    1.2708    0.8783 H       1  UNL1        0.0278
     36 H          -0.6191    2.4775    0.0427 H       1  UNL1        0.0621
     37 H          -2.6862    1.3562    0.0511 H       1  UNL1        0.0636
     38 H          -3.1494   -2.3582   -0.1048 H       1  UNL1        0.1548
     39 H          -5.6732   -2.2323    0.7199 H       1  UNL1        0.0363
     40 H          -5.6258   -2.1712   -1.0609 H       1  UNL1        0.0363
     41 H          -6.9050    0.0081   -1.0122 H       1  UNL1        0.0363
     42 H          -6.9504   -0.0502    0.7502 H       1  UNL1        0.0363
     43 H          -9.4216    0.2861   -0.1845 H       1  UNL1        0.1728
     44 H         -10.7067   -2.3849   -0.3113 H       1  UNL1        0.1718
     45 H         -13.1130   -2.2228   -0.3829 H       1  UNL1        0.1566
     46 H         -15.5989   -2.0460    0.4487 H       1  UNL1        0.0795
     47 H         -15.6672   -2.1024   -1.3549 H       1  UNL1        0.0795
     48 H         -18.7392    0.3148   -1.9108 H       1  UNL1        0.0654
     49 H         -21.0723   -0.4898   -2.0384 H       1  UNL1        0.0630
     50 H         -20.2093   -3.4509    0.9415 H       1  UNL1        0.0632
     51 H         -18.1767   -3.6206    1.9714 H       1  UNL1        0.0279
     52 H         -17.1927   -2.1541    2.0245 H       1  UNL1        0.0279
     53 H         -16.8763   -3.4707    0.8240 H       1  UNL1        0.0279
     54 H          -0.6921   -2.4798   -0.0322 H       1  UNL1        0.0639
     55 H           1.6849   -2.5727    0.0262 H       1  UNL1        0.0278
     56 H           2.4309   -1.2429    0.9195 H       1  UNL1        0.0278
     57 H           2.4607   -1.2540   -0.8624 H       1  UNL1        0.0278
@<TRIPOS>BOND
     1     1     2    1
     2     2     3   ar
     3     3     4   ar
     4     4     5   ar
     5     5     6    1
     6     6     7   am
     7     7     8    2
     8     7     9    1
     9     9    10    1
    10    10    11    1
    11    11    12    2
    12    11    13   am
    13    13    14    1
    14    14    15    1
    15    15    16    2
    16    15    17    1
    17    17    18   am
    18    18    19    2
    19    18    20    1
    20    20    21    1
    21    21    22    1
    22    22    23   ar
    23    23    24   ar
    24    24    25   ar
    25    25    26    1
    26    25    27   ar
    27    27    28   ar
    28    22    28   ar
    29    28    29    1
    30     5    30   ar
    31    30    31   ar
    32     2    31   ar
    33    31    32    1
    34     1    33    1
    35     1    34    1
    36     1    35    1
    37     3    36    1
    38     4    37    1
    39     6    38    1
    40     9    39    1
    41     9    40    1
    42    10    41    1
    43    10    42    1
    44    13    43    1
    45    14    44    1
    46    17    45    1
    47    20    46    1
    48    20    47    1
    49    23    48    1
    50    24    49    1
    51    27    50    1
    52    29    51    1
    53    29    52    1
    54    29    53    1
    55    30    54    1
    56    32    55    1
    57    32    56    1
    58    32    57    1
