@<TRIPOS>MOLECULE
*****
 49 51 0 0 0
SMALL
GASTEIGER

@<TRIPOS>ATOM
      1 C           1.5520    1.7611    0.0094 C.3     1  UNL1       -0.0370
      2 C           0.3600    0.8533    0.0012 C.ar    1  UNL1       -0.0146
      3 C          -0.9476    1.3634   -0.0043 C.ar    1  UNL1       -0.0453
      4 C          -2.0578    0.5015    0.0109 C.ar    1  UNL1        0.0229
      5 C          -3.4008    1.0571   -0.0575 C.ar    1  UNL1        0.2021
      6 N          -4.3727    0.8283    0.8397 N.ar    1  UNL1       -0.0561
      7 O          -5.4568    1.5679    0.3418 O.2     1  UNL1       -0.3377
      8 C          -5.0286    2.1510   -0.8195 C.ar    1  UNL1        0.2281
      9 C          -6.0068    2.9755   -1.5880 C.3     1  UNL1        0.0348
     10 C          -5.3928    3.5189   -2.8943 C.3     1  UNL1        0.0338
     11 C          -6.3785    4.3712   -3.6991 C.2     1  UNL1        0.2296
     12 O          -7.5320    4.5773   -3.3215 O.2     1  UNL1       -0.2743
     13 N          -5.8921    4.8968   -4.8868 N.am    1  UNL1       -0.2332
     14 N          -6.7569    5.6571   -5.7555 N.am    1  UNL1       -0.2179
     15 C          -6.1737    6.3093   -6.8381 C.2     1  UNL1        0.3202
     16 O          -4.9528    6.2303   -7.0002 O.2     1  UNL1       -0.2509
     17 N          -7.0572    6.9815   -7.6788 N.am    1  UNL1       -0.2680
     18 C          -6.6882    7.5614   -8.9423 C.ar    1  UNL1        0.0377
     19 C          -7.1567    8.8500   -9.2742 C.ar    1  UNL1       -0.0402
     20 C          -6.8617    9.4408  -10.5191 C.ar    1  UNL1       -0.0600
     21 C          -6.1261    8.7429  -11.4686 C.ar    1  UNL1       -0.0614
     22 C          -5.6820    7.4598  -11.1698 C.ar    1  UNL1       -0.0571
     23 C          -5.9547    6.8572   -9.9208 C.ar    1  UNL1       -0.0292
     24 C          -5.5212    5.4306   -9.7449 C.3     1  UNL1       -0.0380
     25 N          -3.7734    1.8820   -1.0949 N.ar    1  UNL1       -0.1913
     26 C          -1.8499   -0.8846    0.0308 C.ar    1  UNL1       -0.0482
     27 C          -0.5497   -1.3993    0.0152 C.ar    1  UNL1       -0.0255
     28 C           0.5385   -0.5314    0.0025 C.ar    1  UNL1        0.1263
     29 F           1.7779   -1.0436   -0.0064 F       1  UNL1       -0.2052
     30 H           1.2525    2.8141    0.0034 H       1  UNL1        0.0278
     31 H           2.1736    1.5833   -0.8740 H       1  UNL1        0.0278
     32 H           2.1503    1.5885    0.9102 H       1  UNL1        0.0278
     33 H          -1.1079    2.4403   -0.0166 H       1  UNL1        0.0628
     34 H          -6.3477    3.8059   -0.9576 H       1  UNL1        0.0365
     35 H          -6.8909    2.3655   -1.8140 H       1  UNL1        0.0365
     36 H          -5.0613    2.6762   -3.5147 H       1  UNL1        0.0363
     37 H          -4.5088    4.1230   -2.6546 H       1  UNL1        0.0363
     38 H          -4.9406    4.7597   -5.2322 H       1  UNL1        0.1728
     39 H          -7.6827    5.8638   -5.3916 H       1  UNL1        0.1744
     40 H          -7.8972    7.3497   -7.2543 H       1  UNL1        0.1564
     41 H          -7.7204    9.4460   -8.5608 H       1  UNL1        0.0636
     42 H          -7.2014   10.4486  -10.7532 H       1  UNL1        0.0618
     43 H          -5.9037    9.1829  -12.4392 H       1  UNL1        0.0618
     44 H          -5.1321    6.9090  -11.9315 H       1  UNL1        0.0621
     45 H          -5.0882    5.0236  -10.6631 H       1  UNL1        0.0278
     46 H          -6.3817    4.8105   -9.4771 H       1  UNL1        0.0278
     47 H          -4.7364    5.3450   -8.9972 H       1  UNL1        0.0278
     48 H          -2.6948   -1.5696    0.0354 H       1  UNL1        0.0625
     49 H          -0.3754   -2.4710    0.0090 H       1  UNL1        0.0646
@<TRIPOS>BOND
     1     1     2    1
     2     2     3   ar
     3     3     4   ar
     4     4     5    1
     5     5     6   ar
     6     6     7   ar
     7     7     8   ar
     8     8     9    1
     9     9    10    1
    10    10    11    1
    11    11    12    2
    12    11    13   am
    13    13    14    1
    14    14    15   am
    15    15    16    2
    16    15    17   am
    17    17    18    1
    18    18    19   ar
    19    19    20   ar
    20    20    21   ar
    21    21    22   ar
    22    22    23   ar
    23    18    23   ar
    24    23    24    1
    25     8    25   ar
    26     5    25   ar
    27     4    26   ar
    28    26    27   ar
    29    27    28   ar
    30     2    28   ar
    31    28    29    1
    32     1    30    1
    33     1    31    1
    34     1    32    1
    35     3    33    1
    36     9    34    1
    37     9    35    1
    38    10    36    1
    39    10    37    1
    40    13    38    1
    41    14    39    1
    42    17    40    1
    43    19    41    1
    44    20    42    1
    45    21    43    1
    46    22    44    1
    47    24    45    1
    48    24    46    1
    49    24    47    1
    50    26    48    1
    51    27    49    1
