REMARK  6 active torsions:
REMARK  status: ('A' for Active; 'I' for Inactive)
REMARK    1  A    between atoms: C_5  and  N_6 
REMARK       I    between atoms: N_6  and  C_7 
REMARK    2  A    between atoms: C_7  and  C_9 
REMARK       I    between atoms: C_9  and  N_11 
REMARK    3  A    between atoms: N_11  and  C_12 
REMARK    4  A    between atoms: C_12  and  C_13 
REMARK    5  A    between atoms: C_17  and  N_18 
REMARK       I    between atoms: N_18  and  C_19 
REMARK    6  A    between atoms: C_19  and  C_21 
ROOT
ATOM      1  C   UNL d   1      -5.633  -1.661  -0.162  0.00  0.00     0.309 C 
ATOM      2  O   UNL d   1      -5.513  -2.876  -0.203  0.00  0.00    -0.262 OA
ATOM      3  N   UNL d   1      -6.814  -0.948  -0.182  0.00  0.00    -0.349 N 
ATOM      4  H   UNL d   1      -6.712   0.056  -0.072  0.00  0.00     0.163 HD
ENDROOT
BRANCH   3   5
ATOM      5  C   UNL d   1      -8.118  -1.551  -0.257  0.00  0.00     0.161 C 
BRANCH   5   6
ATOM      6  C   UNL d   1      -9.279  -0.579  -0.232  0.00  0.00    -0.038 A 
ATOM      7  C   UNL d   1      -9.180   0.809  -0.311  0.00  0.00     0.009 A 
ATOM      8  C   UNL d   1     -10.311   1.607  -0.117  0.00  0.00     0.003 A 
ATOM      9  C   UNL d   1     -11.578   1.030   0.057  0.00  0.00     0.029 A 
ATOM     10  C   UNL d   1     -11.715  -0.362   0.080  0.00  0.00     0.035 A 
ATOM     11  C   UNL d   1     -10.558  -1.133  -0.078  0.00  0.00     0.038 A 
BRANCH  10  12
ATOM     12  N   UNL d   1     -12.989  -0.958   0.291  0.00  0.00    -0.321 N 
ATOM     13  C   UNL d   1     -13.227  -2.327   0.446  0.00  0.00     0.279 C 
ATOM     14  O   UNL d   1     -12.355  -3.200   0.421  0.00  0.00    -0.265 OA
ATOM     15  H   UNL d   1     -13.772  -0.330   0.430  0.00  0.00     0.169 HD
BRANCH  13  16
ATOM     16  C   UNL d   1     -14.605  -2.709   0.641  0.00  0.00     0.142 A 
ATOM     17  C   UNL d   1     -15.778  -2.308   0.034  0.00  0.00     0.045 A 
ATOM     18  C   UNL d   1     -16.807  -3.131   0.556  0.00  0.00     0.027 A 
ATOM     19  C   UNL d   1     -16.206  -3.979   1.455  0.00  0.00     0.143 A 
ATOM     20  O   UNL d   1     -14.873  -3.740   1.507  0.00  0.00    -0.317 OA
ENDBRANCH  13  16
ENDBRANCH  10  12
ENDBRANCH   5   6
ENDBRANCH   3   5
BRANCH   1  21
ATOM     21  C   UNL d   1      -4.400  -0.734  -0.083  0.00  0.00     0.313 C 
ATOM     22  N   UNL d   1      -3.153  -1.358  -0.064  0.00  0.00    -0.319 N 
ATOM     23  H   UNL d   1      -3.156  -2.374  -0.104  0.00  0.00     0.169 HD
ATOM     24  O   UNL d   1      -4.651   0.468  -0.053  0.00  0.00    -0.262 OA
BRANCH  22  25
ATOM     25  C   UNL d   1      -1.901  -0.679  -0.019  0.00  0.00     0.035 A 
ATOM     26  C   UNL d   1      -1.830   0.713   0.021  0.00  0.00     0.030 A 
ATOM     27  C   UNL d   1      -0.613   1.390   0.024  0.00  0.00     0.009 A 
ATOM     28  C   UNL d   1       0.593   0.694   0.002  0.00  0.00    -0.056 A 
ATOM     29  C   UNL d   1       1.872   1.484  -0.015  0.00  0.00     0.049 C 
ATOM     30  C   UNL d   1       0.562  -0.715  -0.002  0.00  0.00    -0.054 A 
ATOM     31  C   UNL d   1      -0.689  -1.392  -0.020  0.00  0.00     0.037 A 
ATOM     32  C   UNL d   1       1.855  -1.490   0.020  0.00  0.00     0.049 C 
ENDBRANCH  22  25
ENDBRANCH   1  21
TORSDOF 6
