REMARK  4 active torsions:
REMARK  status: ('A' for Active; 'I' for Inactive)
REMARK    1  A    between atoms: C_2  and  C_3 
REMARK    2  A    between atoms: C_3  and  C_4 
REMARK       I    between atoms: C_4  and  N_6 
REMARK    3  A    between atoms: N_6  and  N_7 
REMARK       I    between atoms: N_7  and  C_8 
REMARK    4  A    between atoms: C_8  and  C_10 
ROOT
ATOM      1  N   UNL d   1       6.667   1.822  -2.122  0.00  0.00    -0.267 N 
ATOM      2  C   UNL d   1       7.296   2.649  -3.040  0.00  0.00     0.240 C 
ATOM      3  O   UNL d   1       6.648   3.328  -3.841  0.00  0.00    -0.271 OA
ATOM      4  H   UNL d   1       7.152   1.275  -1.412  0.00  0.00     0.190 HD
ENDROOT
BRANCH   1   5
ATOM      5  N   UNL d   1       5.241   1.807  -2.053  0.00  0.00    -0.268 N 
ATOM      6  C   UNL d   1       4.622   1.013  -1.101  0.00  0.00     0.236 C 
ATOM      7  O   UNL d   1       5.276   0.341  -0.300  0.00  0.00    -0.272 OA
ATOM      8  H   UNL d   1       4.747   2.381  -2.735  0.00  0.00     0.190 HD
BRANCH   6   9
ATOM      9  C   UNL d   1       3.089   1.028  -1.116  0.00  0.00     0.104 C 
BRANCH   9  10
ATOM     10  C   UNL d   1       2.497   0.115  -0.028  0.00  0.00     0.005 C 
ATOM     11  C   UNL d   1       0.974   0.105  -0.017  0.00  0.00     0.005 C 
ENDBRANCH   9  10
ENDBRANCH   6   9
ENDBRANCH   1   5
BRANCH   2  12
ATOM     12  C   UNL d   1       8.841   2.635  -3.031  0.00  0.00     0.079 C 
ATOM     13  C   UNL d   1       9.380   1.787  -4.199  0.00  0.00     0.014 C 
ATOM     14  C   UNL d   1      10.907   1.854  -4.332  0.00  0.00     0.001 C 
ATOM     15  C   UNL d   1      11.408   3.290  -4.444  0.00  0.00     0.000 C 
ATOM     16  C   UNL d   1      10.915   4.120  -3.265  0.00  0.00     0.001 C 
ATOM     17  C   UNL d   1       9.389   4.072  -3.145  0.00  0.00     0.014 C 
ENDBRANCH   2  12
TORSDOF 4
