@<TRIPOS>MOLECULE
*****
 78 82 0 0 0
SMALL
GASTEIGER

@<TRIPOS>ATOM
      1 C           0.7913    0.1403   -0.0139 C.3     1  UNL1       -0.0560
      2 C           2.3028   -0.0642    0.0838 C.3     1  UNL1       -0.0127
      3 C           2.9511    0.0552   -1.3272 C.3     1  UNL1       -0.0560
      4 C           2.9196    1.1307    0.8835 C.3     1  UNL1       -0.0560
      5 C           2.3155   -1.4430    0.7899 C.ar    1  UNL1       -0.0418
      6 C           2.2024   -2.6696    0.1378 C.ar    1  UNL1       -0.0546
      7 C           2.2329   -3.8886    0.8816 C.ar    1  UNL1       -0.0197
      8 C           2.6316   -3.9350    2.2141 C.ar    1  UNL1        0.1207
      9 O           3.1613   -5.0843    2.7475 O.3     1  UNL1       -0.4886
     10 C           4.0866   -4.9588    3.8784 C.3     1  UNL1        0.1235
     11 C           4.5554   -6.3576    4.2758 C.3     1  UNL1        0.1235
     12 O           5.3136   -6.5141    5.4657 O.3     1  UNL1       -0.4880
     13 C           5.8702   -7.7610    5.7144 C.ar    1  UNL1        0.1294
     14 C           5.8907   -7.9754    7.1182 C.ar    1  UNL1       -0.0179
     15 C           6.4835   -9.0953    7.6983 C.ar    1  UNL1       -0.0399
     16 C           7.0353  -10.0595    6.8708 C.ar    1  UNL1        0.0418
     17 CL          7.7185  -11.4754    7.5804 Cl      1  UNL1       -0.0835
     18 C           7.0184   -9.8959    5.4747 C.ar    1  UNL1       -0.0312
     19 C           6.4446   -8.7505    4.8558 C.ar    1  UNL1        0.0376
     20 C           6.5307   -8.7505    3.3162 C.2     1  UNL1        0.0563
     21 N           6.2251   -7.7258    2.6253 N.2     1  UNL1       -0.1874
     22 N           6.1089   -7.5684    1.2664 N.pl3   1  UNL1       -0.2049
     23 C           5.5284   -6.3271    0.7641 C.ar    1  UNL1        0.2409
     24 N           5.9572   -5.1359    1.2687 N.ar    1  UNL1       -0.1795
     25 C           5.5166   -3.9881    0.7247 C.ar    1  UNL1        0.2237
     26 N           5.8624   -2.7865    1.3805 N.pl3   1  UNL1       -0.2995
     27 C           7.2040   -2.3785    1.7098 C.3     1  UNL1        0.0149
     28 C           7.0372   -1.5296    2.9996 C.3     1  UNL1       -0.0357
     29 C           5.8269   -0.6835    2.7157 C.3     1  UNL1       -0.0357
     30 C           5.0782   -1.6123    1.7481 C.3     1  UNL1        0.0149
     31 N           4.7436   -4.0539   -0.3949 N.ar    1  UNL1       -0.1807
     32 C           4.2571   -5.2740   -0.8134 C.ar    1  UNL1        0.2237
     33 N           3.2610   -5.3411   -1.7996 N.pl3   1  UNL1       -0.2995
     34 C           1.9754   -6.0622   -1.7522 C.3     1  UNL1        0.0149
     35 C           1.8019   -6.6165   -3.1642 C.3     1  UNL1       -0.0357
     36 C           2.3848   -5.5025   -4.0227 C.3     1  UNL1       -0.0357
     37 C           3.4597   -4.8127   -3.1403 C.3     1  UNL1        0.0149
     38 N           4.6362   -6.4234   -0.2391 N.ar    1  UNL1       -0.1795
     39 C           2.5660   -2.7447    2.8850 C.ar    1  UNL1       -0.0197
     40 C           2.3310   -1.5268    2.1948 C.ar    1  UNL1       -0.0546
     41 H           0.5201    1.1071   -0.4337 H       1  UNL1        0.0238
     42 H           0.3476    0.0650    0.9881 H       1  UNL1        0.0238
     43 H           0.3440   -0.6518   -0.6271 H       1  UNL1        0.0238
     44 H           2.6918    1.0252   -1.7827 H       1  UNL1        0.0238
     45 H           2.6294   -0.7167   -2.0289 H       1  UNL1        0.0238
     46 H           4.0499    0.0330   -1.2880 H       1  UNL1        0.0238
     47 H           2.6539    2.0910    0.4206 H       1  UNL1        0.0238
     48 H           4.0172    1.1016    0.9056 H       1  UNL1        0.0238
     49 H           2.5732    1.1929    1.9166 H       1  UNL1        0.0238
     50 H           2.1789   -2.7218   -0.9525 H       1  UNL1        0.0622
     51 H           2.1220   -4.8236    0.3583 H       1  UNL1        0.0654
     52 H           3.6351   -4.4634    4.7329 H       1  UNL1        0.0731
     53 H           4.9887   -4.3900    3.5892 H       1  UNL1        0.0731
     54 H           5.2651   -6.4300    3.5102 H       1  UNL1        0.0731
     55 H           3.7730   -7.1159    4.1947 H       1  UNL1        0.0731
     56 H           5.4190   -7.2433    7.7746 H       1  UNL1        0.0655
     57 H           6.5108   -9.1983    8.7821 H       1  UNL1        0.0633
     58 H           7.4817  -10.6802    4.8764 H       1  UNL1        0.0640
     59 H           6.8818   -9.6979    2.8448 H       1  UNL1        0.0852
     60 H           5.8846   -8.3489    0.6619 H       1  UNL1        0.1775
     61 H           7.4991   -1.7002    0.8990 H       1  UNL1        0.0464
     62 H           7.9064   -3.1932    1.8226 H       1  UNL1        0.0464
     63 H           7.8877   -0.8987    3.2574 H       1  UNL1        0.0281
     64 H           6.7947   -2.1739    3.8566 H       1  UNL1        0.0281
     65 H           5.9976    0.3102    2.2867 H       1  UNL1        0.0281
     66 H           5.2540   -0.4822    3.6460 H       1  UNL1        0.0281
     67 H           4.7296   -1.0347    0.9012 H       1  UNL1        0.0464
     68 H           4.4059   -1.9285    2.4918 H       1  UNL1        0.0464
     69 H           1.1570   -5.3355   -1.6061 H       1  UNL1        0.0464
     70 H           1.8717   -6.8350   -0.9865 H       1  UNL1        0.0464
     71 H           0.7572   -6.8365   -3.4279 H       1  UNL1        0.0281
     72 H           2.3739   -7.5421   -3.2837 H       1  UNL1        0.0281
     73 H           1.5944   -4.7916   -4.3002 H       1  UNL1        0.0281
     74 H           2.7992   -5.8945   -4.9583 H       1  UNL1        0.0281
     75 H           3.2986   -3.7304   -3.1628 H       1  UNL1        0.0464
     76 H           4.4546   -5.0525   -3.5196 H       1  UNL1        0.0464
     77 H           3.0148   -2.6757    3.8707 H       1  UNL1        0.0654
     78 H           2.4892   -0.6277    2.7786 H       1  UNL1        0.0622
@<TRIPOS>BOND
     1     1     2    1
     2     2     3    1
     3     2     4    1
     4     2     5    1
     5     5     6   ar
     6     6     7   ar
     7     7     8   ar
     8     8     9    1
     9     9    10    1
    10    10    11    1
    11    11    12    1
    12    12    13    1
    13    13    14   ar
    14    14    15   ar
    15    15    16   ar
    16    16    17    1
    17    16    18   ar
    18    18    19   ar
    19    13    19   ar
    20    19    20    1
    21    20    21    2
    22    21    22    1
    23    22    23    1
    24    23    24   ar
    25    24    25   ar
    26    25    26    1
    27    26    27    1
    28    27    28    1
    29    28    29    1
    30    29    30    1
    31    26    30    1
    32    25    31   ar
    33    31    32   ar
    34    32    33    1
    35    33    34    1
    36    34    35    1
    37    35    36    1
    38    36    37    1
    39    33    37    1
    40    32    38   ar
    41    23    38   ar
    42     8    39   ar
    43    39    40   ar
    44     5    40   ar
    45     1    41    1
    46     1    42    1
    47     1    43    1
    48     3    44    1
    49     3    45    1
    50     3    46    1
    51     4    47    1
    52     4    48    1
    53     4    49    1
    54     6    50    1
    55     7    51    1
    56    10    52    1
    57    10    53    1
    58    11    54    1
    59    11    55    1
    60    14    56    1
    61    15    57    1
    62    18    58    1
    63    20    59    1
    64    22    60    1
    65    27    61    1
    66    27    62    1
    67    28    63    1
    68    28    64    1
    69    29    65    1
    70    29    66    1
    71    30    67    1
    72    30    68    1
    73    34    69    1
    74    34    70    1
    75    35    71    1
    76    35    72    1
    77    36    73    1
    78    36    74    1
    79    37    75    1
    80    37    76    1
    81    39    77    1
    82    40    78    1
