@<TRIPOS>MOLECULE
*****
 46 47 0 0 0
SMALL
GASTEIGER

@<TRIPOS>ATOM
      1 C           1.8531    1.4818   -0.0158 C.3     1  UNL1       -0.0393
      2 C           0.5673    0.6920   -0.0052 C.ar    1  UNL1       -0.0439
      3 C          -0.6357    1.4223    0.0147 C.ar    1  UNL1       -0.0321
      4 C          -1.8439    0.7514    0.0181 C.ar    1  UNL1        0.1070
      5 S          -3.3907    1.6129    0.1235 S.O2    1  UNL1        0.0560
      6 N          -4.1633    1.1313   -1.2768 N.3     1  UNL1       -0.2035
      7 O          -4.1307    1.0547    1.2368 O.2     1  UNL1       -0.1533
      8 O          -3.1297    3.0219   -0.0108 O.2     1  UNL1       -0.1533
      9 C          -1.8646   -0.6342   -0.0169 C.ar    1  UNL1       -0.0138
     10 C          -0.6965   -1.4094   -0.0340 C.ar    1  UNL1        0.0385
     11 N          -0.8032   -2.8323   -0.0716 N.am    1  UNL1       -0.2824
     12 C          -2.0102   -3.5410   -0.1322 C.2     1  UNL1        0.2548
     13 O          -3.1360   -3.0496   -0.1520 O.2     1  UNL1       -0.2717
     14 C          -1.8655   -5.0501   -0.1089 C.3     1  UNL1        0.1655
     15 O          -3.1767   -5.6240   -0.0849 O.3     1  UNL1       -0.4823
     16 C          -3.3162   -6.9856   -0.0310 C.ar    1  UNL1        0.1305
     17 C          -4.3205   -7.4806   -0.8823 C.ar    1  UNL1       -0.0192
     18 C          -4.6224   -8.8373   -0.9073 C.ar    1  UNL1       -0.0519
     19 C          -3.9327   -9.7051   -0.0662 C.ar    1  UNL1        0.0161
     20 C          -2.9518   -9.2240    0.8282 C.ar    1  UNL1        0.2795
     21 N          -2.2966  -10.2461    1.6862 N.pl3   1  UNL1        0.0800
     22 O          -2.6671  -11.4210    1.5572 O.2     1  UNL1        0.0415
     23 O          -1.4064   -9.9123    2.4732 O.co2   1  UNL1       -0.5760
     24 C          -2.6400   -7.8428    0.8741 C.ar    1  UNL1        0.0681
     25 C          -1.6687   -7.2429    1.8457 C.3     1  UNL1       -0.0298
     26 C           0.5532   -0.7394   -0.0098 C.ar    1  UNL1       -0.0262
     27 C           1.8832   -1.4606    0.0196 C.3     1  UNL1       -0.0377
     28 H           1.6573    2.5605   -0.0262 H       1  UNL1        0.0278
     29 H           2.4337    1.2515   -0.9140 H       1  UNL1        0.0278
     30 H           2.4447    1.2662    0.8783 H       1  UNL1        0.0278
     31 H          -0.6283    2.5095    0.0455 H       1  UNL1        0.0640
     32 H          -4.5571    0.1933   -1.2717 H       1  UNL1        0.1442
     33 H          -3.8116    1.5316   -2.1404 H       1  UNL1        0.1442
     34 H          -2.8505   -1.0736   -0.0041 H       1  UNL1        0.0656
     35 H           0.0559   -3.3663   -0.0359 H       1  UNL1        0.1549
     36 H          -1.3329   -5.1993    0.8221 H       1  UNL1        0.0795
     37 H          -1.2989   -5.4059   -0.9737 H       1  UNL1        0.0795
     38 H          -4.8779   -6.8027   -1.5304 H       1  UNL1        0.0654
     39 H          -5.3924   -9.2209   -1.5740 H       1  UNL1        0.0621
     40 H          -4.1801  -10.7650   -0.1094 H       1  UNL1        0.0685
     41 H          -1.2437   -7.8764    2.6083 H       1  UNL1        0.0281
     42 H          -2.1613   -6.4403    2.4067 H       1  UNL1        0.0281
     43 H          -0.7897   -6.9064    1.2918 H       1  UNL1        0.0281
     44 H           1.7968   -2.5477    0.0313 H       1  UNL1        0.0278
     45 H           2.4446   -1.1861    0.9208 H       1  UNL1        0.0278
     46 H           2.4784   -1.2013   -0.8629 H       1  UNL1        0.0278
@<TRIPOS>UNITY_ATOM_ATTR
21 1
charge 1
23 1
charge -1
@<TRIPOS>BOND
     1     1     2    1
     2     2     3   ar
     3     3     4   ar
     4     4     5    1
     5     5     6    1
     6     5     7    2
     7     5     8    2
     8     4     9   ar
     9     9    10   ar
    10    10    11    1
    11    11    12   am
    12    12    13    2
    13    12    14    1
    14    14    15    1
    15    15    16    1
    16    16    17   ar
    17    17    18   ar
    18    18    19   ar
    19    19    20   ar
    20    20    21    1
    21    21    22    2
    22    21    23    1
    23    20    24   ar
    24    16    24   ar
    25    24    25    1
    26    10    26   ar
    27     2    26   ar
    28    26    27    1
    29     1    28    1
    30     1    29    1
    31     1    30    1
    32     3    31    1
    33     6    32    1
    34     6    33    1
    35     9    34    1
    36    11    35    1
    37    14    36    1
    38    14    37    1
    39    17    38    1
    40    18    39    1
    41    19    40    1
    42    25    41    1
    43    25    42    1
    44    25    43    1
    45    27    44    1
    46    27    45    1
    47    27    46    1
