@<TRIPOS>MOLECULE
*****
 58 62 0 0 0
SMALL
GASTEIGER

@<TRIPOS>ATOM
      1 C           1.0303   -0.1700   -0.0339 C.3     1  UNL1       -0.0611
      2 C           2.5578   -0.1196    0.0075 C.3     1  UNL1       -0.0243
      3 C           3.0081    0.7605    1.1543 C.ar    1  UNL1        0.0241
      4 C           3.6226    0.2094    2.2721 C.ar    1  UNL1       -0.0523
      5 C           3.9151    1.0282    3.3626 C.ar    1  UNL1       -0.0605
      6 C           3.6115    2.4060    3.3452 C.ar    1  UNL1       -0.0483
      7 C           3.0511    3.0200    2.2019 C.ar    1  UNL1        0.0473
      8 C           2.7826    4.4299    2.0365 C.ar    1  UNL1       -0.0325
      9 C           2.4175    4.9385    0.7510 C.ar    1  UNL1        0.0762
     10 C           2.2451    6.2387    0.1074 C.ar    1  UNL1        0.0579
     11 N           2.4385    7.4025    0.7642 N.pl3   1  UNL1       -0.3563
     12 C           1.9208    6.1316   -1.2475 C.ar    1  UNL1        0.1015
     13 C           1.6694    7.0349   -2.3627 C.2     1  UNL1        0.2569
     14 O           1.4532    6.5952   -3.4937 O.2     1  UNL1       -0.2692
     15 N           1.7280    8.3929   -2.1151 N.am    1  UNL1       -0.2810
     16 C           1.4589    9.3200   -3.1346 C.ar    1  UNL1        0.0338
     17 C           0.4417    9.0965   -4.0646 C.ar    1  UNL1       -0.0386
     18 C           0.3724    9.8493   -5.2365 C.ar    1  UNL1       -0.0336
     19 C           1.1525   10.9903   -5.3476 C.ar    1  UNL1        0.1056
     20 S           1.2840   11.8273   -6.9326 S.O2    1  UNL1        0.0609
     21 O           1.4814   10.7581   -7.9115 O.2     1  UNL1       -0.1528
     22 O           0.1696   12.7223   -7.0295 O.2     1  UNL1       -0.1528
     23 N           2.7621   12.6792   -6.9195 N.3     1  UNL1       -0.1766
     24 C           3.9688   11.8416   -6.7834 C.3     1  UNL1        0.0205
     25 C           4.5507   12.2302   -5.4413 C.3     1  UNL1       -0.0373
     26 C           4.2388   13.7142   -5.3260 C.3     1  UNL1       -0.0373
     27 C           3.0232   13.9734   -6.2429 C.3     1  UNL1        0.0205
     28 C           1.8960   11.3850   -4.2421 C.ar    1  UNL1       -0.0336
     29 C           2.1976   10.4821   -3.2179 C.ar    1  UNL1       -0.0386
     30 S           1.7657    4.4831   -1.7136 S.2     1  UNL1       -0.0133
     31 C           2.1715    3.9743   -0.1907 C.ar    1  UNL1        0.2554
     32 N           2.2665    2.6618    0.0109 N.ar    1  UNL1       -0.1978
     33 C           2.7670    2.1523    1.1262 C.ar    1  UNL1        0.2173
     34 H           0.6847   -0.7665   -0.8807 H       1  UNL1        0.0233
     35 H           0.5703    0.8199   -0.1331 H       1  UNL1        0.0233
     36 H           0.6388   -0.5972    0.8940 H       1  UNL1        0.0233
     37 H           2.9581    0.2744   -0.9373 H       1  UNL1        0.0313
     38 H           2.9603   -1.1330    0.1011 H       1  UNL1        0.0313
     39 H           3.8603   -0.8544    2.3099 H       1  UNL1        0.0622
     40 H           4.3823    0.5797    4.2410 H       1  UNL1        0.0618
     41 H           3.8603    2.9900    4.2312 H       1  UNL1        0.0626
     42 H           2.9201    5.1143    2.8739 H       1  UNL1        0.0634
     43 H           2.6384    7.4591    1.7605 H       1  UNL1        0.1424
     44 H           2.2585    8.3274    0.3937 H       1  UNL1        0.1424
     45 H           2.2542    8.7145   -1.3253 H       1  UNL1        0.1551
     46 H          -0.2866    8.3109   -3.8891 H       1  UNL1        0.0637
     47 H          -0.3051    9.5517   -6.0310 H       1  UNL1        0.0638
     48 H           4.6617   12.0802   -7.5931 H       1  UNL1        0.0444
     49 H           3.7359   10.7761   -6.8258 H       1  UNL1        0.0444
     50 H           5.6008   11.9662   -5.3377 H       1  UNL1        0.0278
     51 H           4.1021   11.6725   -4.6287 H       1  UNL1        0.0278
     52 H           5.1176   14.2669   -5.6710 H       1  UNL1        0.0278
     53 H           4.0384   14.0356   -4.2965 H       1  UNL1        0.0278
     54 H           3.3318   14.7238   -6.9865 H       1  UNL1        0.0444
     55 H           2.1620   14.3970   -5.7175 H       1  UNL1        0.0444
     56 H           2.3223   12.3741   -4.2093 H       1  UNL1        0.0638
     57 H           3.0382   10.6771   -2.5536 H       1  UNL1        0.0637
     58 H           2.0122    2.0924   -0.7863 H       1  UNL1        0.4540
@<TRIPOS>UNITY_ATOM_ATTR
32 1
charge 1
@<TRIPOS>BOND
     1     1     2    1
     2     2     3    1
     3     3     4   ar
     4     4     5   ar
     5     5     6   ar
     6     6     7   ar
     7     7     8   ar
     8     8     9   ar
     9     9    10   ar
    10    10    11    1
    11    10    12   ar
    12    12    13    1
    13    13    14    2
    14    13    15   am
    15    15    16    1
    16    16    17   ar
    17    17    18   ar
    18    18    19   ar
    19    19    20    1
    20    20    21    2
    21    20    22    2
    22    20    23    1
    23    23    24    1
    24    24    25    1
    25    25    26    1
    26    26    27    1
    27    23    27    1
    28    19    28   ar
    29    28    29   ar
    30    16    29   ar
    31    12    30   ar
    32    30    31   ar
    33     9    31   ar
    34    31    32   ar
    35    32    33   ar
    36     3    33   ar
    37     7    33   ar
    38     1    34    1
    39     1    35    1
    40     1    36    1
    41     2    37    1
    42     2    38    1
    43     4    39    1
    44     5    40    1
    45     6    41    1
    46     8    42    1
    47    11    43    1
    48    11    44    1
    49    15    45    1
    50    17    46    1
    51    18    47    1
    52    24    48    1
    53    24    49    1
    54    25    50    1
    55    25    51    1
    56    26    52    1
    57    26    53    1
    58    27    54    1
    59    27    55    1
    60    28    56    1
    61    29    57    1
    62    32    58    1
