REMARK  5 active torsions:
REMARK  status: ('A' for Active; 'I' for Inactive)
REMARK    1  A    between atoms: S_2  and  C_3 
REMARK    2  A    between atoms: C_7  and  N_8 
REMARK       I    between atoms: N_8  and  C_9 
REMARK    3  A    between atoms: C_9  and  C_11 
REMARK    4  A    between atoms: C_11  and  N_13 
REMARK    5  A    between atoms: N_13  and  C_14 
ROOT
ATOM      1  N   UNL d   1       2.937   4.994   0.443  0.00  0.00    -0.325 N 
ATOM      2  C   UNL d   1       2.447   5.121  -0.874  0.00  0.00     0.244 C 
ATOM      3  O   UNL d   1       2.192   4.220  -1.653  0.00  0.00    -0.271 OA
ATOM      4  H   UNL d   1       3.054   5.823   1.013  0.00  0.00     0.169 HD
ENDROOT
BRANCH   2   5
ATOM      5  C   UNL d   1       2.280   6.572  -1.347  0.00  0.00     0.170 C 
ATOM      6  C   UNL d   1       3.643   7.159  -1.080  0.00  0.00     0.042 C 
BRANCH   5   7
ATOM      7  N   UNL d   1       1.944   6.577  -2.797  0.00  0.00    -0.377 N 
ATOM      8  H   UNL d   1       1.661   5.645  -3.120  0.00  0.00     0.160 HD
BRANCH   7   9
ATOM      9  C   UNL d   1       1.485   7.641  -3.567  0.00  0.00     0.034 A 
ATOM     10  C   UNL d   1       0.283   7.499  -4.291  0.00  0.00     0.029 A 
ATOM     11  C   UNL d   1      -0.191   8.511  -5.149  0.00  0.00     0.002 A 
ATOM     12  C   UNL d   1       0.479   9.720  -5.252  0.00  0.00     0.001 A 
ATOM     13  C   UNL d   1       1.642   9.897  -4.539  0.00  0.00     0.009 A 
ATOM     14  C   UNL d   1       2.150   8.879  -3.720  0.00  0.00    -0.036 A 
ATOM     15  C   UNL d   1       3.417   9.287  -3.057  0.00  0.00     0.050 C 
ENDBRANCH   7   9
ENDBRANCH   5   7
ENDBRANCH   2   5
BRANCH   1  16
ATOM     16  C   UNL d   1       3.296   3.773   1.043  0.00  0.00     0.036 A 
ATOM     17  C   UNL d   1       3.731   3.730   2.372  0.00  0.00     0.029 A 
ATOM     18  C   UNL d   1       3.985   2.486   2.966  0.00  0.00     0.004 A 
ATOM     19  C   UNL d   1       3.833   1.301   2.234  0.00  0.00     0.018 A 
ATOM     20  C   UNL d   1       3.361   1.345   0.930  0.00  0.00     0.002 A 
ATOM     21  C   UNL d   1       3.170   2.580   0.337  0.00  0.00     0.048 A 
BRANCH  20  22
ATOM     22  S   UNL d   1       2.930  -0.114   0.004  0.00  0.00    -0.134 SA
ATOM     23  C   UNL d   1       1.109   0.077  -0.043  0.00  0.00     0.095 C 
ENDBRANCH  20  22
ENDBRANCH   1  16
TORSDOF 5
