@<TRIPOS>MOLECULE
*****
 73 75 0 0 0
SMALL
GASTEIGER

@<TRIPOS>ATOM
      1 C           0.6443    0.0471    0.4019 C.3     1  UNL1       -0.0307
      2 C           2.1454   -0.0047    0.5332 C.3     1  UNL1        0.0870
      3 O           2.7889    1.2352    0.7913 O.3     1  UNL1       -0.4886
      4 C           4.1719    1.3097    0.7067 C.ar    1  UNL1        0.1619
      5 C           4.7043    1.8445    1.8841 C.ar    1  UNL1       -0.0155
      6 C           6.0275    2.2422    1.9031 C.ar    1  UNL1       -0.0444
      7 C           6.8838    2.0049    0.7935 C.ar    1  UNL1        0.0598
      8 C           8.3065    2.2524    0.9700 C.2     1  UNL1        0.3407
      9 O           8.4253    2.5604    2.1315 O.2     1  UNL1       -0.2483
     10 N           9.2815    1.9965   -0.0048 N.am    1  UNL1        0.0006
     11 C          10.5297    2.3950    0.1173 C.2     1  UNL1        0.3842
     12 N          11.1062    3.1626    1.1212 N.pl3   1  UNL1       -0.2767
     13 C          10.5531    3.2331    2.4561 C.3     1  UNL1        0.0686
     14 C          11.3240    3.6552    3.6709 C.3     1  UNL1        0.0065
     15 C          10.3587    3.9062    4.8228 C.ar    1  UNL1       -0.0012
     16 C           9.9562    5.1766    5.3269 C.ar    1  UNL1        0.0635
     17 C          10.3223    6.5301    4.8461 C.3     1  UNL1       -0.0203
     18 N           9.1275    5.0681    6.3693 N.ar    1  UNL1       -0.1762
     19 N           8.9247    3.7505    6.4987 N.ar    1  UNL1       -0.2711
     20 C           8.0765    3.2790    7.5713 C.3     1  UNL1        0.0305
     21 C           9.5872    3.0009    5.5565 C.ar    1  UNL1        0.0393
     22 C           9.4027    1.5270    5.4449 C.3     1  UNL1       -0.0224
     23 N          11.4538    2.1132   -0.8992 N.pl3   1  UNL1       -0.2448
     24 C          12.8830    2.0928   -0.8527 C.ar    1  UNL1        0.1029
     25 C          13.6150    2.6071   -1.9496 C.ar    1  UNL1       -0.0229
     26 C          15.0184    2.6570   -1.9373 C.ar    1  UNL1       -0.0582
     27 C          15.7170    2.2599   -0.8036 C.ar    1  UNL1       -0.0584
     28 C          15.0282    1.7163    0.2853 C.ar    1  UNL1       -0.0443
     29 C          15.8033    1.2220    1.4744 C.3     1  UNL1       -0.0394
     30 C          13.6156    1.5939    0.2556 C.ar    1  UNL1       -0.0091
     31 C          12.9312    0.8807    1.3981 C.3     1  UNL1       -0.0362
     32 C           6.3995    1.4690   -0.3587 C.ar    1  UNL1       -0.0026
     33 C           5.0475    1.1520   -0.4340 C.ar    1  UNL1        0.1627
     34 O           4.8332    0.7571   -1.7493 O.3     1  UNL1       -0.4886
     35 C           3.5755    0.2091   -1.8613 C.3     1  UNL1        0.0870
     36 C           3.0503   -0.4073   -3.1142 C.3     1  UNL1       -0.0307
     37 H           0.3276   -0.8490   -0.1590 H       1  UNL1        0.0262
     38 H           0.3605    0.9066   -0.2221 H       1  UNL1        0.0262
     39 H           0.1384    0.0844    1.3564 H       1  UNL1        0.0262
     40 H           2.2010   -0.2102   -0.4974 H       1  UNL1        0.0694
     41 H           2.6046   -0.8681    1.0222 H       1  UNL1        0.0694
     42 H           4.1099    1.9907    2.7849 H       1  UNL1        0.0655
     43 H           6.4007    2.7336    2.8070 H       1  UNL1        0.0627
     44 H          12.0998    3.3209    1.0525 H       1  UNL1        0.2577
     45 H          10.2534    2.2088    2.7247 H       1  UNL1        0.0658
     46 H           9.7801    3.9996    2.3586 H       1  UNL1        0.0658
     47 H          11.8884    4.5518    3.4191 H       1  UNL1        0.0345
     48 H          12.0306    2.8733    3.9635 H       1  UNL1        0.0345
     49 H          10.9742    6.4937    3.9701 H       1  UNL1        0.0293
     50 H          10.8399    7.0833    5.6348 H       1  UNL1        0.0293
     51 H           9.4221    7.0867    4.5634 H       1  UNL1        0.0293
     52 H           7.7577    4.1235    8.1888 H       1  UNL1        0.0473
     53 H           8.6502    2.5781    8.1840 H       1  UNL1        0.0473
     54 H           7.2019    2.7884    7.1371 H       1  UNL1        0.0473
     55 H           8.7516    1.1226    6.2280 H       1  UNL1        0.0292
     56 H          10.3657    1.0176    5.5232 H       1  UNL1        0.0292
     57 H           8.9388    1.2608    4.4899 H       1  UNL1        0.0292
     58 H          11.0825    1.6276   -1.7103 H       1  UNL1        0.2646
     59 H          13.1056    3.0145   -2.8218 H       1  UNL1        0.0652
     60 H          15.5742    3.0133   -2.8038 H       1  UNL1        0.0619
     61 H          16.8016    2.3573   -0.7761 H       1  UNL1        0.0620
     62 H          16.8802    1.3569    1.3605 H       1  UNL1        0.0278
     63 H          15.6193    0.1494    1.5988 H       1  UNL1        0.0278
     64 H          15.4833    1.7625    2.3725 H       1  UNL1        0.0278
     65 H          13.6161    0.4792    2.1420 H       1  UNL1        0.0279
     66 H          12.3105    0.0655    1.0250 H       1  UNL1        0.0279
     67 H          12.3394    1.5453    2.0062 H       1  UNL1        0.0279
     68 H           7.0546    1.3196   -1.2109 H       1  UNL1        0.0663
     69 H           2.8883    1.0400   -1.6506 H       1  UNL1        0.0694
     70 H           3.6427   -0.6620   -1.1962 H       1  UNL1        0.0694
     71 H           3.1428    0.2774   -3.9497 H       1  UNL1        0.0262
     72 H           1.9887   -0.6457   -2.9422 H       1  UNL1        0.0262
     73 H           3.5722   -1.3452   -3.3038 H       1  UNL1        0.0262
@<TRIPOS>BOND
     1     1     2    1
     2     2     3    1
     3     3     4    1
     4     4     5   ar
     5     5     6   ar
     6     6     7   ar
     7     7     8    1
     8     8     9    2
     9     8    10    1
    10    10    11    2
    11    11    12    1
    12    12    13    1
    13    13    14    1
    14    14    15    1
    15    15    16   ar
    16    16    17    1
    17    16    18   ar
    18    18    19   ar
    19    19    20    1
    20    19    21   ar
    21    15    21   ar
    22    21    22    1
    23    11    23    1
    24    23    24    1
    25    24    25   ar
    26    25    26   ar
    27    26    27   ar
    28    27    28   ar
    29    28    29    1
    30    28    30   ar
    31    24    30   ar
    32    30    31    1
    33     7    32   ar
    34    32    33   ar
    35     4    33   ar
    36    33    34    1
    37    34    35    1
    38    35    36    1
    39     1    37    1
    40     1    38    1
    41     1    39    1
    42     2    40    1
    43     2    41    1
    44     5    42    1
    45     6    43    1
    46    12    44    1
    47    13    45    1
    48    13    46    1
    49    14    47    1
    50    14    48    1
    51    17    49    1
    52    17    50    1
    53    17    51    1
    54    20    52    1
    55    20    53    1
    56    20    54    1
    57    22    55    1
    58    22    56    1
    59    22    57    1
    60    23    58    1
    61    25    59    1
    62    26    60    1
    63    27    61    1
    64    29    62    1
    65    29    63    1
    66    29    64    1
    67    31    65    1
    68    31    66    1
    69    31    67    1
    70    32    68    1
    71    35    69    1
    72    35    70    1
    73    36    71    1
    74    36    72    1
    75    36    73    1
