@<TRIPOS>MOLECULE
*****
 38 40 0 0 0
SMALL
GASTEIGER

@<TRIPOS>ATOM
      1 O           5.7470    0.3061    4.7751 O.2     1  UNL1       -0.2685
      2 C           5.2467    0.6153    5.8549 C.2     1  UNL1        0.2637
      3 N           4.2122    1.5534    5.9587 N.am    1  UNL1       -0.2303
      4 N           3.7484    2.2148    4.7812 N.am    1  UNL1       -0.2339
      5 C           2.7247    3.1642    4.8146 C.2     1  UNL1        0.2328
      6 O           2.1817    3.5501    5.8502 O.2     1  UNL1       -0.2740
      7 C           2.3030    3.6717    3.4574 C.3     1  UNL1        0.0444
      8 C           0.9132    4.1813    3.1217 C.3     1  UNL1       -0.0338
      9 C           2.0673    5.1513    3.1232 C.3     1  UNL1       -0.0039
     10 C           2.7002    5.6869    1.8387 C.ar    1  UNL1       -0.0408
     11 C           2.4204    5.1590    0.5614 C.ar    1  UNL1       -0.0581
     12 C           3.1021    5.5810   -0.5859 C.ar    1  UNL1       -0.0588
     13 C           4.0772    6.5651   -0.4879 C.ar    1  UNL1       -0.0264
     14 C           4.3325    7.1395    0.7485 C.ar    1  UNL1        0.1237
     15 F           5.2609    8.1008    0.8462 F       1  UNL1       -0.2055
     16 C           3.6537    6.7198    1.8934 C.ar    1  UNL1       -0.0230
     17 C           5.6861   -0.0573    7.1268 C.ar    1  UNL1        0.0795
     18 C           4.7139   -0.6026    7.9792 C.ar    1  UNL1       -0.0460
     19 C           5.0848   -1.3047    9.1347 C.ar    1  UNL1       -0.0608
     20 C           6.4308   -1.4682    9.4583 C.ar    1  UNL1       -0.0583
     21 C           7.4131   -0.9366    8.6209 C.ar    1  UNL1       -0.0194
     22 C           7.0420   -0.2425    7.4563 C.ar    1  UNL1        0.1290
     23 O           8.0213    0.2826    6.6584 O.3     1  UNL1       -0.5060
     24 H           3.8090    1.8497    6.8431 H       1  UNL1        0.1731
     25 H           4.1928    1.9120    3.9152 H       1  UNL1        0.1728
     26 H           2.7535    3.0831    2.6632 H       1  UNL1        0.0401
     27 H           0.1551    4.3381    3.8829 H       1  UNL1        0.0279
     28 H           0.4653    3.8917    2.1764 H       1  UNL1        0.0279
     29 H           1.9855    5.8855    3.9251 H       1  UNL1        0.0356
     30 H           1.6711    4.3805    0.4436 H       1  UNL1        0.0620
     31 H           2.8762    5.1259   -1.5470 H       1  UNL1        0.0619
     32 H           4.6353    6.8862   -1.3610 H       1  UNL1        0.0646
     33 H           3.8929    7.2004    2.8383 H       1  UNL1        0.0649
     34 H           3.6591   -0.5204    7.7334 H       1  UNL1        0.0626
     35 H           4.3205   -1.7373    9.7776 H       1  UNL1        0.0618
     36 H           6.7104   -2.0141   10.3587 H       1  UNL1        0.0619
     37 H           8.4570   -1.0743    8.8956 H       1  UNL1        0.0654
     38 H           8.8972    0.0079    6.9760 H       1  UNL1        0.2922
@<TRIPOS>BOND
     1     1     2    2
     2     2     3   am
     3     3     4    1
     4     4     5   am
     5     5     6    2
     6     7     8    1
     7     8     9    1
     8     7     9    1
     9     9    10    1
    10    10    11   ar
    11    11    12   ar
    12    12    13   ar
    13    13    14   ar
    14    14    15    1
    15    14    16   ar
    16    10    16   ar
    17     2    17    1
    18    17    18   ar
    19    18    19   ar
    20    19    20   ar
    21    20    21   ar
    22    21    22   ar
    23    17    22   ar
    24    22    23    1
    25     7     5    1
    26     3    24    1
    27     4    25    1
    28     7    26    1
    29     8    27    1
    30     8    28    1
    31     9    29    1
    32    11    30    1
    33    12    31    1
    34    13    32    1
    35    16    33    1
    36    18    34    1
    37    19    35    1
    38    20    36    1
    39    21    37    1
    40    23    38    1
