REMARK  6 active torsions:
REMARK  status: ('A' for Active; 'I' for Inactive)
REMARK    1  A    between atoms: C_6  and  S_7 
REMARK    2  A    between atoms: S_7  and  C_8 
REMARK    3  A    between atoms: C_8  and  C_9 
REMARK       I    between atoms: C_9  and  N_11 
REMARK    4  A    between atoms: N_11  and  C_12 
REMARK    5  A    between atoms: C_16  and  S_17 
REMARK    6  A    between atoms: S_17  and  N_18 
ROOT
ATOM      1  C   UNL d   1      -4.343  -6.223   0.083  0.00  0.00     0.078 A 
ATOM      2  C   UNL d   1      -3.739  -7.184   0.922  0.00  0.00     0.064 A 
ATOM      3 CL   UNL d   1      -2.619  -6.769   2.181  0.00  0.00    -0.082 Cl
ATOM      4  C   UNL d   1      -4.125  -8.527   0.887  0.00  0.00     0.051 A 
ATOM      5  C   UNL d   1      -5.137  -8.943   0.029  0.00  0.00     0.082 A 
ATOM      6  C   UNL d   1      -5.786  -8.018  -0.792  0.00  0.00     0.051 A 
ATOM      7  C   UNL d   1      -5.398  -6.663  -0.750  0.00  0.00     0.064 A 
ATOM      8 CL   UNL d   1      -6.222  -5.570  -1.809  0.00  0.00    -0.082 Cl
ENDROOT
BRANCH   1   9
ATOM      9  N   UNL d   1      -3.917  -4.846   0.085  0.00  0.00    -0.324 N 
ATOM     10  C   UNL d   1      -2.554  -4.537  -0.042  0.00  0.00     0.232 C 
ATOM     11  O   UNL d   1      -1.706  -5.404  -0.249  0.00  0.00    -0.272 OA
ATOM     12  H   UNL d   1      -4.598  -4.155  -0.213  0.00  0.00     0.169 HD
BRANCH  10  13
ATOM     13  C   UNL d   1      -2.193  -3.046   0.010  0.00  0.00     0.185 C 
BRANCH  13  14
ATOM     14  S   UNL d   1      -0.383  -2.834   0.026  0.00  0.00    -0.080 SA
BRANCH  14  15
ATOM     15  C   UNL d   1       0.031  -1.158   0.007  0.00  0.00     0.198 A 
ATOM     16  N   UNL d   1       1.274  -0.720   0.002  0.00  0.00    -0.135 NA
ATOM     17  N   UNL d   1       1.206   0.651  -0.002  0.00  0.00     0.018 NA
ATOM     18  N   UNL d   1      -0.053   1.059  -0.001  0.00  0.00    -0.003 NA
ATOM     19  N   UNL d   1      -0.788  -0.068   0.002  0.00  0.00    -0.259 N 
ATOM     20  C   UNL d   1      -2.215   0.029  -0.002  0.00  0.00     0.177 C 
ENDBRANCH  14  15
ENDBRANCH  13  14
ENDBRANCH  10  13
ENDBRANCH   1   9
BRANCH   5  21
ATOM     21  S   UNL d   1      -5.593 -10.660   0.012  0.00  0.00     0.256 S 
ATOM     22  O   UNL d   1      -5.545 -11.110  -1.363  0.00  0.00    -0.201 OA
ATOM     23  O   UNL d   1      -4.905 -11.327   1.085  0.00  0.00    -0.201 OA
BRANCH  21  24
ATOM     24  N   UNL d   1      -7.189 -10.564   0.458  0.00  0.00    -0.324 N 
ATOM     25  H   UNL d   1      -7.879 -10.383  -0.262  0.00  0.00     0.169 HD
ATOM     26  H   UNL d   1      -7.399 -10.485   1.448  0.00  0.00     0.169 HD
ENDBRANCH  21  24
ENDBRANCH   5  21
TORSDOF 6
