REMARK  9 active torsions:
REMARK  status: ('A' for Active; 'I' for Inactive)
REMARK    1  A    between atoms: C_5  and  C_6 
REMARK    2  A    between atoms: C_6  and  C_8 
REMARK    3  A    between atoms: C_8  and  C_9 
REMARK    4  A    between atoms: C_9  and  C_10 
REMARK       I    between atoms: C_10  and  N_12 
REMARK    5  A    between atoms: N_12  and  N_13 
REMARK       I    between atoms: N_13  and  C_14 
REMARK       I    between atoms: C_14  and  N_16 
REMARK    6  A    between atoms: N_16  and  C_17 
REMARK    7  A    between atoms: C_17  and  C_18 
REMARK    8  A    between atoms: C_18  and  C_19 
REMARK    9  A    between atoms: C_19  and  N_20 
ROOT
ATOM      1  C   UNL d   1      -7.040  -0.979  -0.166  0.00  0.00     0.236 C 
ATOM      2  O   UNL d   1      -7.102   0.251  -0.126  0.00  0.00    -0.272 OA
ATOM      3  N   UNL d   1      -8.188  -1.762  -0.222  0.00  0.00    -0.266 N 
ATOM      4  H   UNL d   1      -8.181  -2.781  -0.256  0.00  0.00     0.190 HD
ENDROOT
BRANCH   3   5
ATOM      5  N   UNL d   1      -9.480  -1.132  -0.234  0.00  0.00    -0.249 N 
ATOM      6  C   UNL d   1     -10.626  -1.908  -0.289  0.00  0.00     0.334 C 
ATOM      7  O   UNL d   1     -10.598  -3.139  -0.330  0.00  0.00    -0.246 OA
ATOM      8  N   UNL d   1     -11.817  -1.202  -0.296  0.00  0.00    -0.342 N 
ATOM      9  H   UNL d   1     -11.784  -0.192  -0.261  0.00  0.00     0.164 HD
ATOM     10  H   UNL d   1      -9.470  -0.116  -0.200  0.00  0.00     0.192 HD
BRANCH   8  11
ATOM     11  C   UNL d   1     -13.107  -1.900  -0.352  0.00  0.00     0.126 C 
BRANCH  11  12
ATOM     12  C   UNL d   1     -14.312  -0.960  -0.351  0.00  0.00     0.040 C 
BRANCH  12  13
ATOM     13  C   UNL d   1     -15.668  -1.681  -0.411  0.00  0.00     0.130 C 
BRANCH  13  14
ATOM     14  N   UNL d   1     -16.820  -0.742  -0.410  0.00  0.00    -0.352 N 
ATOM     15  C   UNL d   1     -16.767   0.652  -0.409  0.00  0.00     0.108 A 
ATOM     16  C   UNL d   1     -18.050   1.110  -0.417  0.00  0.00     0.106 A 
ATOM     17  N   UNL d   1     -18.852  -0.002  -0.420  0.00  0.00    -0.361 N 
ATOM     18  C   UNL d   1     -18.114  -1.119  -0.414  0.00  0.00     0.182 A 
ATOM     19  H   UNL d   1     -19.870   0.014  -0.425  0.00  0.00     0.166 HD
ENDBRANCH  13  14
ENDBRANCH  12  13
ENDBRANCH  11  12
ENDBRANCH   8  11
ENDBRANCH   3   5
BRANCH   1  20
ATOM     20  C   UNL d   1      -5.703  -1.737  -0.156  0.00  0.00     0.112 C 
BRANCH  20  21
ATOM     21  C   UNL d   1      -4.487  -0.787  -0.091  0.00  0.00     0.093 C 
BRANCH  21  22
ATOM     22  C   UNL d   1      -3.148  -1.520  -0.075  0.00  0.00     0.160 C 
ATOM     23  O   UNL d   1      -3.088  -2.749  -0.113  0.00  0.00    -0.292 OA
BRANCH  22  24
ATOM     24  C   UNL d   1      -1.873  -0.722  -0.022  0.00  0.00     0.010 A 
ATOM     25  C   UNL d   1      -1.868   0.674   0.015  0.00  0.00     0.015 A 
ATOM     26  C   UNL d   1      -0.657   1.377   0.022  0.00  0.00     0.008 A 
ATOM     27  C   UNL d   1       0.573   0.704   0.004  0.00  0.00    -0.056 A 
ATOM     28  C   UNL d   1       1.852   1.499  -0.014  0.00  0.00     0.049 C 
ATOM     29  C   UNL d   1       0.583  -0.704   0.001  0.00  0.00    -0.055 A 
ATOM     30  C   UNL d   1      -0.642  -1.401  -0.018  0.00  0.00     0.022 A 
ATOM     31  C   UNL d   1       1.877  -1.475   0.021  0.00  0.00     0.049 C 
ENDBRANCH  22  24
ENDBRANCH  21  22
ENDBRANCH  20  21
ENDBRANCH   1  20
TORSDOF 9
