@<TRIPOS>MOLECULE
*****
 53 56 0 0 0
SMALL
GASTEIGER

@<TRIPOS>ATOM
      1 C           2.4695    0.0035   -0.0133 C.3     1  UNL1       -0.0397
      2 C           0.9672   -0.0006   -0.0117 C.ar    1  UNL1       -0.0504
      3 C           0.2493   -1.2000   -0.0067 C.ar    1  UNL1       -0.0581
      4 C          -1.1527   -1.1887   -0.0186 C.ar    1  UNL1       -0.0492
      5 C          -1.8683    0.0191   -0.0551 C.ar    1  UNL1        0.0385
      6 C          -3.3268    0.0049   -0.0114 C.ar    1  UNL1        0.2485
      7 N          -4.1180   -0.5669    0.8721 N.ar    1  UNL1       -0.1072
      8 N          -5.4102   -0.3307    0.4574 N.ar    1  UNL1       -0.1083
      9 C          -5.3367    0.3487   -0.6740 C.ar    1  UNL1        0.2597
     10 C          -6.4880    0.8000   -1.5269 C.3     1  UNL1        0.2206
     11 O          -6.0347    1.4853   -2.7093 O.2     1  UNL1       -0.2865
     12 N          -7.1681    1.9821   -3.4417 N.2     1  UNL1        0.1545
     13 C          -6.8057    2.5562   -4.5680 C.2     1  UNL1        0.3692
     14 N          -5.4623    2.6077   -4.9123 N.pl3   1  UNL1       -0.2428
     15 C          -7.8412    3.0713   -5.5493 C.2     1  UNL1        0.1494
     16 C          -7.7275    2.8595   -6.8774 C.2     1  UNL1        0.0455
     17 N          -6.7129    2.2309   -7.5599 N.pl3   1  UNL1       -0.3588
     18 C          -8.9181    3.4272   -7.6391 C.3     1  UNL1        0.0758
     19 C          -9.9472    2.3119   -7.9474 C.3     1  UNL1       -0.0260
     20 C         -10.5340    2.7044   -9.2915 C.3     1  UNL1       -0.0507
     21 C          -9.3529    3.3086  -10.0340 C.3     1  UNL1       -0.0507
     22 C          -8.5484    4.0729   -8.9857 C.3     1  UNL1       -0.0260
     23 N          -9.4518    4.3445   -6.6630 N.am    1  UNL1       -0.2893
     24 C         -10.4117    5.4008   -7.0157 C.3     1  UNL1        0.0044
     25 C          -9.0682    3.9219   -5.3817 C.2     1  UNL1        0.2566
     26 O          -9.5995    4.2467   -4.3273 O.2     1  UNL1       -0.2696
     27 O          -4.0275    0.6140   -1.0338 O.2     1  UNL1       -0.4165
     28 C          -1.1447    1.2179   -0.0453 C.ar    1  UNL1       -0.0492
     29 C           0.2587    1.2076   -0.0198 C.ar    1  UNL1       -0.0581
     30 H           2.8766   -1.0135    0.0015 H       1  UNL1        0.0278
     31 H           2.8541    0.5297    0.8665 H       1  UNL1        0.0278
     32 H           2.8416    0.4970   -0.9173 H       1  UNL1        0.0278
     33 H           0.7733   -2.1540    0.0136 H       1  UNL1        0.0620
     34 H          -1.6849   -2.1383    0.0059 H       1  UNL1        0.0625
     35 H          -7.1258    1.4677   -0.9370 H       1  UNL1        0.0849
     36 H          -7.0763   -0.0805   -1.8157 H       1  UNL1        0.0849
     37 H          -4.8035    2.3676   -4.1783 H       1  UNL1        0.2886
     38 H          -5.1429    3.2424   -5.6344 H       1  UNL1        0.2886
     39 H          -5.9794    1.7599   -7.0369 H       1  UNL1        0.1421
     40 H          -6.8020    2.0428   -8.5525 H       1  UNL1        0.1421
     41 H         -10.7381    2.2229   -7.1904 H       1  UNL1        0.0290
     42 H          -9.4670    1.3285   -8.0264 H       1  UNL1        0.0290
     43 H         -11.3285    3.4466   -9.1580 H       1  UNL1        0.0266
     44 H         -10.9628    1.8459   -9.8174 H       1  UNL1        0.0266
     45 H          -9.6757    3.9622  -10.8481 H       1  UNL1        0.0266
     46 H          -8.7324    2.5117  -10.4593 H       1  UNL1        0.0266
     47 H          -8.7861    5.1392   -9.0289 H       1  UNL1        0.0290
     48 H          -7.4793    4.0228   -9.2123 H       1  UNL1        0.0290
     49 H         -10.5529    5.4727   -8.1012 H       1  UNL1        0.0429
     50 H         -10.0101    6.3649   -6.6863 H       1  UNL1        0.0429
     51 H         -11.3953    5.2412   -6.5705 H       1  UNL1        0.0429
     52 H          -1.6653    2.1725   -0.0229 H       1  UNL1        0.0625
     53 H           0.7994    2.1521    0.0021 H       1  UNL1        0.0620
@<TRIPOS>BOND
     1     1     2    1
     2     2     3   ar
     3     3     4   ar
     4     4     5   ar
     5     5     6    1
     6     6     7   ar
     7     7     8   ar
     8     8     9   ar
     9     9    10    1
    10    10    11    1
    11    11    12    1
    12    12    13    2
    13    13    14    1
    14    13    15    1
    15    15    16    2
    16    16    17    1
    17    16    18    1
    18    18    19    1
    19    19    20    1
    20    20    21    1
    21    21    22    1
    22    18    22    1
    23    18    23    1
    24    23    24    1
    25    23    25   am
    26    15    25    1
    27    25    26    2
    28     9    27   ar
    29     6    27   ar
    30     5    28   ar
    31    28    29   ar
    32     2    29   ar
    33     1    30    1
    34     1    31    1
    35     1    32    1
    36     3    33    1
    37     4    34    1
    38    10    35    1
    39    10    36    1
    40    14    37    1
    41    14    38    1
    42    17    39    1
    43    17    40    1
    44    19    41    1
    45    19    42    1
    46    20    43    1
    47    20    44    1
    48    21    45    1
    49    21    46    1
    50    22    47    1
    51    22    48    1
    52    24    49    1
    53    24    50    1
    54    24    51    1
    55    28    52    1
    56    29    53    1
