@<TRIPOS>MOLECULE
*****
 44 44 0 0 0
SMALL
GASTEIGER

@<TRIPOS>ATOM
      1 C           2.2624   -1.4305   -2.6017 C.3     1  UNL1       -0.0636
      2 C           2.4706   -2.1197   -1.2606 C.3     1  UNL1       -0.0376
      3 C           3.1220   -1.3430   -0.0919 C.3     1  UNL1        0.0200
      4 C           2.6043    0.0933    0.0103 C.3     1  UNL1       -0.0466
      5 N           4.5947   -1.4198   -0.1123 N.am    1  UNL1       -0.3127
      6 C           5.2462   -2.6441   -0.0054 C.2     1  UNL1        0.2147
      7 O           4.6352   -3.7064    0.0892 O.2     1  UNL1       -0.2758
      8 C           6.7721   -2.6028   -0.0231 C.3     1  UNL1        0.0395
      9 C           7.3518   -4.0300   -0.0598 C.3     1  UNL1        0.0214
     10 N           8.8160   -4.0989   -0.0654 N.am    1  UNL1       -0.2973
     11 C           9.4671   -5.3218   -0.0963 C.2     1  UNL1        0.3226
     12 O           8.8563   -6.3910   -0.1227 O.2     1  UNL1       -0.2507
     13 N          10.8401   -5.2156   -0.0991 N.am    1  UNL1       -0.1781
     14 O          11.5584   -6.4414   -0.1410 O.3     1  UNL1       -0.2740
     15 C          12.9763   -6.2248   -0.1490 C.3     1  UNL1        0.0983
     16 C          13.7524   -7.5292   -0.1476 C.ar    1  UNL1       -0.0197
     17 C          13.1203   -8.7698   -0.3098 C.ar    1  UNL1       -0.0563
     18 C          13.8363   -9.9607   -0.1631 C.ar    1  UNL1       -0.0614
     19 C          15.2118   -9.9298    0.0520 C.ar    1  UNL1       -0.0617
     20 C          15.8680   -8.7058    0.1561 C.ar    1  UNL1       -0.0614
     21 C          15.1431   -7.5130    0.0623 C.ar    1  UNL1       -0.0563
     22 H           1.9075   -2.1861   -3.3148 H       1  UNL1        0.0230
     23 H           3.1804   -0.9998   -3.0099 H       1  UNL1        0.0230
     24 H           1.4881   -0.6592   -2.5501 H       1  UNL1        0.0230
     25 H           3.0432   -3.0253   -1.4709 H       1  UNL1        0.0280
     26 H           1.4833   -2.4510   -0.9199 H       1  UNL1        0.0280
     27 H           2.8181   -1.8567    0.8319 H       1  UNL1        0.0495
     28 H           2.9339    0.7027   -0.8363 H       1  UNL1        0.0247
     29 H           2.9569    0.5812    0.9264 H       1  UNL1        0.0247
     30 H           1.5074    0.1077    0.0361 H       1  UNL1        0.0247
     31 H           5.1244   -0.5646    0.0031 H       1  UNL1        0.1490
     32 H           7.1209   -2.0794    0.8737 H       1  UNL1        0.0374
     33 H           7.1051   -2.0410   -0.9026 H       1  UNL1        0.0374
     34 H           6.9951   -4.5582   -0.9536 H       1  UNL1        0.0467
     35 H           7.0006   -4.6052    0.8063 H       1  UNL1        0.0467
     36 H           9.3577   -3.2507   -0.0450 H       1  UNL1        0.1503
     37 H          11.3497   -4.3472   -0.0703 H       1  UNL1        0.1841
     38 H          13.2469   -5.6721    0.7591 H       1  UNL1        0.0634
     39 H          13.2529   -5.6405   -1.0336 H       1  UNL1        0.0634
     40 H          12.0549   -8.8213   -0.5282 H       1  UNL1        0.0621
     41 H          13.3117  -10.9121   -0.1993 H       1  UNL1        0.0618
     42 H          15.7684  -10.8595    0.1378 H       1  UNL1        0.0618
     43 H          16.9403   -8.6818    0.3345 H       1  UNL1        0.0618
     44 H          15.6730   -6.5694    0.1711 H       1  UNL1        0.0621
@<TRIPOS>BOND
     1     1     2    1
     2     3     5    1
     3     5     6   am
     4     6     7    2
     5     6     8    1
     6     8     9    1
     7     9    10    1
     8    10    11   am
     9    11    12    2
    10    11    13   am
    11    13    14    1
    12    14    15    1
    13    15    16    1
    14    16    17   ar
    15    17    18   ar
    16    18    19   ar
    17    19    20   ar
    18    20    21   ar
    19    16    21   ar
    20     3     4    1
    21     3     2    1
    22     1    22    1
    23     1    23    1
    24     1    24    1
    25     2    25    1
    26     2    26    1
    27     3    27    1
    28     4    28    1
    29     4    29    1
    30     4    30    1
    31     5    31    1
    32     8    32    1
    33     8    33    1
    34     9    34    1
    35     9    35    1
    36    10    36    1
    37    13    37    1
    38    15    38    1
    39    15    39    1
    40    17    40    1
    41    18    41    1
    42    19    42    1
    43    20    43    1
    44    21    44    1
