@<TRIPOS>MOLECULE
*****
 61 64 0 0 0
SMALL
GASTEIGER

@<TRIPOS>ATOM
      1 CD1         3.2737    1.3508   -1.4868 C.3     1  LEU1       -0.0626
      2 CG          4.7264    1.0858   -1.2910 C.3     1  LEU1       -0.0447
      3 CD2         5.3275    1.8987   -2.4165 C.3     1  LEU1       -0.0626
      4 CB          5.0891    1.4060    0.1589 C.3     1  LEU1       -0.0269
      5 CA          4.4768    0.4065    1.2126 C.3     1  LEU1        0.0629
      6 N           2.9560    0.3596    1.2112 N.am    1  LEU1       -0.3058
      7 C           2.1018   -0.4181    0.4334 C.2     0  UNK0        0.2345
      8 O           2.4690   -1.4847   -0.0682 O.2     0  UNK0       -0.2737
      9 C           0.6525    0.1976    0.0179 C.3     0  UNK0        0.1103
     10 C           0.2648    1.6181    0.5510 C.3     0  UNK0        0.0017
     11 C           0.6489    1.8936    1.9815 C.ar    0  UNK0       -0.0201
     12 C           0.2150    1.2004    3.0980 C.ar    0  UNK0        0.0060
     13 N           1.0162    1.5539    4.1564 N.ar    0  UNK0       -0.3604
     14 C           1.8668    2.5741    3.7958 C.ar    0  UNK0        0.0467
     15 C           2.8851    3.2022    4.5316 C.ar    0  UNK0       -0.0378
     16 C           3.7256    4.0943    3.8577 C.ar    0  UNK0       -0.0598
     17 C           3.5623    4.3380    2.4988 C.ar    0  UNK0       -0.0611
     18 C           2.5461    3.6979    1.7796 C.ar    0  UNK0       -0.0523
     19 C           1.6683    2.8072    2.4345 C.ar    0  UNK0        0.0029
     20 N           0.1882   -0.0143   -1.4681 N.am    0  UNK0       -0.2445
     21 C           0.9027    0.2669   -2.6259 C.2     0  UNK0        0.2521
     22 O           1.8040   -0.4740   -3.0745 O.2     0  UNK0       -0.2698
     23 C           0.3723    1.3054   -3.5499 C.ar    0  UNK0        0.0579
     24 C           1.1404    1.8593   -4.5883 C.ar    0  UNK0       -0.0478
     25 C           0.5622    2.7679   -5.4745 C.ar    0  UNK0       -0.0609
     26 C          -0.7846    3.0993   -5.3332 C.ar    0  UNK0       -0.0600
     27 C          -1.5434    2.5454   -4.2900 C.ar    0  UNK0       -0.0400
     28 C          -0.9699    1.6502   -3.3776 C.ar    0  UNK0        0.0424
     29 N          -1.6944    1.0671   -2.3523 N.pl3   0  UNK0       -0.3031
     30 C          -1.2065   -0.1360   -1.7367 C.3     0  UNK0        0.1965
     31 O          -1.4156   -1.2201   -2.6190 O.3     0  UNK0       -0.3588
     32 C           5.0993    0.8282    2.6100 C.2     1  LEU1        0.0620
     33 O           4.2921    0.7683    3.5861 O.co2   1  LEU1       -0.5479
     34 OXT         6.3329    1.1127    2.6239 O.co2   1  LEU1       -0.5479
     35 HD11        2.9984    1.4779   -2.5243 H       1  LEU1        0.0232
     36 HD12        2.8498    2.1686   -0.9023 H       1  LEU1        0.0232
     37 HD13        2.8507    0.4171   -1.2333 H       1  LEU1        0.0232
     38 HG          4.9545    0.0251   -1.4673 H       1  LEU1        0.0296
     39 HD21        4.9720    2.9347   -2.3687 H       1  LEU1        0.0232
     40 HD22        4.9494    1.4835   -3.3671 H       1  LEU1        0.0232
     41 HD23        6.4100    1.8571   -2.4426 H       1  LEU1        0.0232
     42 HB1         4.7748    2.4314    0.3931 H       1  LEU1        0.0289
     43 HB2         6.1831    1.4053    0.2309 H       1  LEU1        0.0289
     44 HA          4.8307   -0.6096    1.0191 H       1  LEU1        0.0560
     45 H           2.6311    0.5987    2.1461 H       1  LEU1        0.1494
     46 H          -0.0024   -0.4949    0.5647 H       0  UNK0        0.0601
     47 H          -0.8304    1.7167    0.5050 H       0  UNK0        0.0337
     48 H           0.6438    2.4119   -0.1029 H       0  UNK0        0.0337
     49 H          -0.5048    0.4008    3.2050 H       0  UNK0        0.0810
     50 H           1.0607    1.0760    5.0461 H       0  UNK0        0.1653
     51 H           3.1174    2.9006    5.5488 H       0  UNK0        0.0638
     52 H           4.5715    4.5305    4.3834 H       0  UNK0        0.0618
     53 H           4.2745    4.9702    1.9761 H       0  UNK0        0.0618
     54 H           2.5016    3.8182    0.7033 H       0  UNK0        0.0624
     55 H           2.1857    1.5796   -4.7076 H       0  UNK0        0.0626
     56 H           1.1532    3.2015   -6.2793 H       0  UNK0        0.0618
     57 H          -1.2480    3.7825   -6.0425 H       0  UNK0        0.0618
     58 H          -2.5976    2.7998   -4.2219 H       0  UNK0        0.0636
     59 H          -2.6494    1.3328   -2.1764 H       0  UNK0        0.1501
     60 H          -1.7550   -0.3646   -0.8231 H       0  UNK0        0.1036
     61 H          -0.7951   -1.0829   -3.3546 H       0  UNK0        0.2134
@<TRIPOS>UNITY_ATOM_ATTR
34 1
charge -1
@<TRIPOS>BOND
     1     1     2    1
     2     2     3    1
     3     2     4    1
     4     6     7   am
     5     7     8    2
     6     7     9    1
     7     9    10    1
     8    10    11    1
     9    11    12   ar
    10    12    13   ar
    11    13    14   ar
    12    14    15   ar
    13    15    16   ar
    14    16    17   ar
    15    17    18   ar
    16    18    19   ar
    17    11    19   ar
    18    14    19   ar
    19     9    20    1
    20    20    21   am
    21    21    22    2
    22    21    23    1
    23    23    24   ar
    24    24    25   ar
    25    25    26   ar
    26    26    27   ar
    27    27    28   ar
    28    23    28   ar
    29    28    29    1
    30    29    30    1
    31    20    30    1
    32     5    32    1
    33    32    33   ar
    34    32    34   ar
    35    30    31    1
    36     5     6    1
    37     5     4    1
    38     1    35    1
    39     1    36    1
    40     1    37    1
    41     2    38    1
    42     3    39    1
    43     3    40    1
    44     3    41    1
    45     4    42    1
    46     4    43    1
    47     5    44    1
    48     6    45    1
    49     9    46    1
    50    10    47    1
    51    10    48    1
    52    12    49    1
    53    13    50    1
    54    15    51    1
    55    16    52    1
    56    17    53    1
    57    18    54    1
    58    24    55    1
    59    25    56    1
    60    26    57    1
    61    27    58    1
    62    29    59    1
    63    30    60    1
    64    31    61    1
