REMARK  6 active torsions:
REMARK  status: ('A' for Active; 'I' for Inactive)
REMARK    1  A    between atoms: N_1  and  N_2 
REMARK       I    between atoms: N_2  and  C_3 
REMARK    2  A    between atoms: C_3  and  C_5 
REMARK    3  A    between atoms: C_5  and  O_6 
REMARK    4  A    between atoms: O_6  and  C_7 
REMARK    5  A    between atoms: C_10  and  C_11 
REMARK       I    between atoms: C_11  and  N_13 
REMARK    6  A    between atoms: N_13  and  C_14 
ROOT
ATOM      1  C   UNL d   1       6.544   2.238   1.519  0.00  0.00     0.069 A 
ATOM      2  C   UNL d   1       7.085   2.686   2.726  0.00  0.00     0.038 A 
ATOM      3  C   UNL d   1       8.432   3.053   2.804  0.00  0.00     0.020 A 
ATOM      4  C   UNL d   1       9.277   2.914   1.691  0.00  0.00     0.032 A 
ATOM      5  C   UNL d   1       8.723   2.497   0.478  0.00  0.00     0.020 A 
ATOM      6  C   UNL d   1       7.362   2.165   0.395  0.00  0.00     0.038 A 
ENDROOT
BRANCH   4   7
ATOM      7  C   UNL d   1      10.733   3.165   1.889  0.00  0.00     0.252 C 
ATOM      8  O   UNL d   1      11.119   3.461   3.022  0.00  0.00    -0.268 OA
ATOM      9  N   UNL d   1      11.596   3.017   0.816  0.00  0.00    -0.352 N 
ATOM     10  H   UNL d   1      11.260   2.691  -0.077  0.00  0.00     0.163 HD
BRANCH   9  11
ATOM     11  C   UNL d   1      13.044   3.193   0.946  0.00  0.00     0.084 C 
ATOM     12  C   UNL d   1      13.389   4.590   1.484  0.00  0.00     0.025 C 
ATOM     13  C   UNL d   1      14.876   4.778   1.745  0.00  0.00     0.002 C 
ATOM     14  C   UNL d   1      15.427   3.668   2.634  0.00  0.00     0.000 C 
ATOM     15  C   UNL d   1      15.169   2.299   2.017  0.00  0.00     0.002 C 
ATOM     16  C   UNL d   1      13.679   2.069   1.778  0.00  0.00     0.025 C 
ENDBRANCH   9  11
ENDBRANCH   4   7
BRANCH   1  17
ATOM     17  O   UNL d   1       5.198   2.012   1.520  0.00  0.00    -0.342 OA
BRANCH  17  18
ATOM     18  C   UNL d   1       4.686   0.976   0.682  0.00  0.00     0.279 C 
BRANCH  18  19
ATOM     19  C   UNL d   1       3.146   1.027   0.682  0.00  0.00     0.255 C 
ATOM     20  N   UNL d   1       2.531   0.003  -0.051  0.00  0.00    -0.292 N 
ATOM     21  H   UNL d   1       3.076  -0.755  -0.456  0.00  0.00     0.183 HD
ATOM     22  O   UNL d   1       2.504   1.916   1.240  0.00  0.00    -0.270 OA
BRANCH  20  23
ATOM     23  N   UNL d   1       1.119  -0.092  -0.032  0.00  0.00    -0.247 NA
ATOM     24  H   UNL d   1       0.782  -0.837  -0.641  0.00  0.00     0.143 HD
ATOM     25  H   UNL d   1       0.735   0.789  -0.392  0.00  0.00     0.143 HD
ENDBRANCH  20  23
ENDBRANCH  18  19
ENDBRANCH  17  18
ENDBRANCH   1  17
TORSDOF 6
