@<TRIPOS>MOLECULE
*****
 48 49 0 0 0
SMALL
GASTEIGER

@<TRIPOS>ATOM
      1 C           0.9855   -0.0137   -0.1047 C.3     1  UNL1        0.0366
      2 O           2.4052   -0.0162   -0.1568 O.3     1  UNL1       -0.3796
      3 C           2.8793   -0.9003   -1.1767 C.3     1  UNL1        0.0813
      4 C           4.4023   -0.8756   -1.1789 C.3     1  UNL1        0.1129
      5 O           4.9171   -1.8181   -2.1249 O.3     1  UNL1       -0.4886
      6 C           6.2846   -1.9383   -2.1676 C.ar    1  UNL1        0.1345
      7 C           6.8376   -1.9624   -3.4564 C.ar    1  UNL1       -0.0181
      8 C           8.2246   -2.1295   -3.6369 C.ar    1  UNL1       -0.0461
      9 C           9.0990   -2.2967   -2.5392 C.ar    1  UNL1        0.0383
     10 C          10.5695   -2.4882   -2.7920 C.2     1  UNL1        0.2496
     11 O          10.8885   -2.4665   -3.9843 O.2     1  UNL1       -0.2698
     12 N          11.4959   -2.6786   -1.7318 N.am    1  UNL1       -0.2627
     13 C          12.8935   -2.8616   -1.8540 C.2     1  UNL1        0.1533
     14 S          13.7466   -2.8921   -3.3100 S.2     1  UNL1       -0.0170
     15 N          13.5913   -3.0260   -0.6439 N.am    1  UNL1       -0.2455
     16 N          15.0312   -3.2173   -0.6828 N.am    1  UNL1       -0.2349
     17 C          15.7622   -3.3836    0.4837 C.2     1  UNL1        0.2334
     18 O          15.2065   -3.3725    1.5819 O.2     1  UNL1       -0.2739
     19 C          17.2843   -3.5763    0.2910 C.3     1  UNL1        0.0505
     20 C          18.0307   -3.7527    1.6060 C.ar    1  UNL1       -0.0385
     21 C          18.2193   -5.0305    2.1575 C.ar    1  UNL1       -0.0567
     22 C          18.7891   -5.1825    3.4270 C.ar    1  UNL1       -0.0431
     23 C          19.1831   -4.0596    4.1503 C.ar    1  UNL1        0.0410
     24 CL         19.8427   -4.2451    5.7297 Cl      1  UNL1       -0.0835
     25 C          19.0345   -2.7869    3.6053 C.ar    1  UNL1       -0.0431
     26 C          18.4625   -2.6339    2.3371 C.ar    1  UNL1       -0.0567
     27 C           8.5388   -2.2984   -1.2697 C.ar    1  UNL1       -0.0321
     28 C           7.1505   -2.1425   -1.0797 C.ar    1  UNL1        0.0602
     29 BR          6.6292   -2.3793    0.7377 Br      1  UNL1       -0.0465
     30 H           0.6631    0.6748    0.6810 H       1  UNL1        0.0524
     31 H           0.6108   -1.0148    0.1297 H       1  UNL1        0.0524
     32 H           0.5805    0.3278   -1.0612 H       1  UNL1        0.0524
     33 H           2.4891   -0.5955   -2.1522 H       1  UNL1        0.0593
     34 H           2.5305   -1.9187   -0.9647 H       1  UNL1        0.0593
     35 H           4.6718   -1.1234   -0.1598 H       1  UNL1        0.0720
     36 H           4.7789    0.1331   -1.3845 H       1  UNL1        0.0720
     37 H           6.1987   -1.8574   -4.3356 H       1  UNL1        0.0655
     38 H           8.6173   -2.1332   -4.6568 H       1  UNL1        0.0626
     39 H          11.1326   -2.6866   -0.7908 H       1  UNL1        0.1569
     40 H          13.1929   -3.0274    0.2952 H       1  UNL1        0.1718
     41 H          15.4487   -3.2194   -1.6138 H       1  UNL1        0.1728
     42 H          17.7048   -2.7129   -0.2423 H       1  UNL1        0.0407
     43 H          17.4706   -4.4517   -0.3456 H       1  UNL1        0.0407
     44 H          17.8984   -5.9187    1.6180 H       1  UNL1        0.0621
     45 H          18.9032   -6.1758    3.8536 H       1  UNL1        0.0632
     46 H          19.3409   -1.9100    4.1700 H       1  UNL1        0.0632
     47 H          18.3296   -1.6301    1.9398 H       1  UNL1        0.0621
     48 H           9.1538   -2.4470   -0.3934 H       1  UNL1        0.0637
@<TRIPOS>BOND
     1     1     2    1
     2     2     3    1
     3     3     4    1
     4     4     5    1
     5     5     6    1
     6     6     7   ar
     7     7     8   ar
     8     8     9   ar
     9     9    10    1
    10    10    11    2
    11    10    12   am
    12    12    13    1
    13    13    14    2
    14    13    15    1
    15    15    16    1
    16    16    17   am
    17    17    18    2
    18    17    19    1
    19    19    20    1
    20    20    21   ar
    21    21    22   ar
    22    22    23   ar
    23    23    24    1
    24    23    25   ar
    25    25    26   ar
    26    20    26   ar
    27     9    27   ar
    28    27    28   ar
    29     6    28   ar
    30    28    29    1
    31     1    30    1
    32     1    31    1
    33     1    32    1
    34     3    33    1
    35     3    34    1
    36     4    35    1
    37     4    36    1
    38     7    37    1
    39     8    38    1
    40    12    39    1
    41    15    40    1
    42    16    41    1
    43    19    42    1
    44    19    43    1
    45    21    44    1
    46    22    45    1
    47    25    46    1
    48    26    47    1
    49    27    48    1
