REMARK  14 active torsions:
REMARK  status: ('A' for Active; 'I' for Inactive)
REMARK    1  A    between atoms: C_2  and  C_3 
REMARK    2  A    between atoms: C_3  and  C_4 
REMARK    3  A    between atoms: C_4  and  N_5 
REMARK       I    between atoms: N_5  and  C_6 
REMARK    4  A    between atoms: C_6  and  C_8 
REMARK    5  A    between atoms: C_8  and  C_9 
REMARK    6  A    between atoms: C_8  and  N_18 
REMARK    7  A    between atoms: C_10  and  O_11 
REMARK    8  A    between atoms: C_13  and  O_14 
REMARK    9  A    between atoms: C_16  and  O_17 
REMARK   10  A    between atoms: N_18  and  C_19 
REMARK       I    between atoms: N_18  and  C_22 
REMARK   11  A    between atoms: C_19  and  C_20 
REMARK   12  A    between atoms: C_22  and  C_24 
REMARK   13  A    between atoms: C_24  and  N_25 
REMARK       I    between atoms: N_25  and  C_26 
REMARK   14  A    between atoms: C_26  and  C_28 
ROOT
ATOM      1  C   UNL d   1       6.876   2.869  -3.388  0.00  0.00     0.212 C 
ENDROOT
BRANCH   1   2
ATOM      2  C   UNL d   1       6.073   1.846  -2.362  0.00  0.00     0.225 C 
ATOM      3  N   UNL d   1       4.776   1.427  -2.509  0.00  0.00    -0.261 NA
ATOM      4  H   UNL d   1       4.189   2.161  -2.896  0.00  0.00     0.130 HD
ATOM      5  O   UNL d   1       6.498   1.458  -1.274  0.00  0.00    -0.277 OA
BRANCH   3   6
ATOM      6  C   UNL d   1       4.279   0.779  -1.284  0.00  0.00     0.095 C 
BRANCH   6   7
ATOM      7  C   UNL d   1       2.797   0.816  -1.165  0.00  0.00     0.014 C 
BRANCH   7   8
ATOM      8  C   UNL d   1       2.371  -0.087  -0.019  0.00  0.00    -0.003 C 
ATOM      9  C   UNL d   1       0.864  -0.101   0.017  0.00  0.00     0.005 C 
ENDBRANCH   7   8
ENDBRANCH   6   7
ENDBRANCH   3   6
ENDBRANCH   1   2
BRANCH   1  10
ATOM     10  C   UNL d   1       6.388   4.357  -3.131  0.00  0.00     0.040 A 
ATOM     11  C   UNL d   1       7.189   5.512  -3.294  0.00  0.00     0.080 A 
ATOM     12  C   UNL d   1       6.711   6.820  -3.189  0.00  0.00     0.073 A 
ATOM     13  C   UNL d   1       5.415   7.036  -2.794  0.00  0.00     0.071 A 
ATOM     14  C   UNL d   1       4.586   5.965  -2.565  0.00  0.00     0.073 A 
ATOM     15  C   UNL d   1       5.050   4.662  -2.784  0.00  0.00     0.080 A 
BRANCH  11  16
ATOM     16  O   UNL d   1       8.539   5.518  -3.471  0.00  0.00    -0.360 OA
ATOM     17  H   UNL d   1       8.809   4.649  -3.145  0.00  0.00     0.217 HD
ENDBRANCH  11  16
BRANCH  13  18
ATOM     18  O   UNL d   1       4.923   8.287  -2.607  0.00  0.00    -0.361 OA
ATOM     19  H   UNL d   1       5.633   8.915  -2.822  0.00  0.00     0.217 HD
ENDBRANCH  13  18
BRANCH  15  20
ATOM     20  O   UNL d   1       4.078   3.712  -2.661  0.00  0.00    -0.360 OA
ATOM     21  H   UNL d   1       3.369   4.058  -2.086  0.00  0.00     0.217 HD
ENDBRANCH  15  20
ENDBRANCH   1  10
BRANCH   1  22
ATOM     22  N   UNL d   1       8.486   2.769  -3.555  0.00  0.00    -0.334 N 
ATOM     23  C   UNL d   1       9.125   3.298  -4.724  0.00  0.00     0.238 C 
ATOM     24  O   UNL d   1       8.497   3.723  -5.692  0.00  0.00    -0.272 OA
BRANCH  22  25
ATOM     25  C   UNL d   1       9.404   2.066  -2.598  0.00  0.00     0.127 C 
BRANCH  25  26
ATOM     26  C   UNL d   1       8.709   1.241  -1.595  0.00  0.00     0.015 C 
ATOM     27  C   UNL d   1       9.257   0.350  -0.533  0.00  0.00     0.006 C 
ENDBRANCH  25  26
ENDBRANCH  22  25
BRANCH  23  28
ATOM     28  C   UNL d   1      10.677   3.531  -4.592  0.00  0.00     0.225 C 
BRANCH  28  29
ATOM     29  N   UNL d   1      11.203   4.480  -5.558  0.00  0.00    -0.348 N 
ATOM     30  C   UNL d   1      12.569   4.648  -5.729  0.00  0.00     0.252 C 
ATOM     31  O   UNL d   1      13.406   4.052  -5.088  0.00  0.00    -0.268 OA
ATOM     32  H   UNL d   1      10.531   5.008  -6.101  0.00  0.00     0.163 HD
BRANCH  30  33
ATOM     33  C   UNL d   1      12.975   5.624  -6.783  0.00  0.00     0.032 A 
ATOM     34  C   UNL d   1      14.003   5.298  -7.679  0.00  0.00     0.017 A 
ATOM     35  C   UNL d   1      14.432   6.238  -8.624  0.00  0.00     0.001 A 
ATOM     36  C   UNL d   1      13.803   7.481  -8.708  0.00  0.00     0.000 A 
ATOM     37  C   UNL d   1      12.788   7.809  -7.809  0.00  0.00     0.001 A 
ATOM     38  C   UNL d   1      12.382   6.888  -6.840  0.00  0.00     0.017 A 
ENDBRANCH  30  33
ENDBRANCH  28  29
ENDBRANCH  23  28
ENDBRANCH   1  22
TORSDOF 14
