@<TRIPOS>MOLECULE
*****
 51 53 0 0 0
SMALL
GASTEIGER

@<TRIPOS>ATOM
      1 C           0.3533   -2.3738   -0.0067 C.3     1  UNL1       -0.0385
      2 C           1.0378   -1.0375    0.0011 C.ar    1  UNL1       -0.0330
      3 C           2.4474   -1.0069   -0.0011 C.ar    1  UNL1       -0.0160
      4 C           3.1495    0.1934   -0.0004 C.ar    1  UNL1        0.1215
      5 O           4.5160    0.2881    0.0006 O.3     1  UNL1       -0.4828
      6 C           5.3380   -0.9120    0.0166 C.3     1  UNL1        0.1655
      7 C           6.8379   -0.4897    0.0288 C.2     1  UNL1        0.2561
      8 O           7.0923    0.7193    0.0291 O.2     1  UNL1       -0.2717
      9 N           7.8569   -1.4839    0.0395 N.am    1  UNL1       -0.2639
     10 C           9.2612   -1.2425    0.0497 C.2     1  UNL1        0.1531
     11 S           9.9839    0.2859    0.0520 S.2     1  UNL1       -0.0170
     12 N          10.0954   -2.3806    0.0585 N.am    1  UNL1       -0.2455
     13 N          11.5589   -2.1911    0.0688 N.am    1  UNL1       -0.2323
     14 C          12.4400   -3.2685    0.0723 C.2     1  UNL1        0.2667
     15 O          12.0096   -4.4283    0.0691 O.2     1  UNL1       -0.2705
     16 C          13.9712   -2.9213    0.0909 C.3     1  UNL1        0.1666
     17 O          14.7687   -4.1200    0.0715 O.3     1  UNL1       -0.4821
     18 C          16.1437   -3.9932    0.0732 C.ar    1  UNL1        0.1289
     19 C          16.8129   -3.1259    0.9418 C.ar    1  UNL1       -0.0193
     20 C          18.2105   -3.0628    0.9430 C.ar    1  UNL1       -0.0577
     21 C          18.9559   -3.8768    0.0914 C.ar    1  UNL1       -0.0538
     22 C          18.3185   -4.7984   -0.7472 C.ar    1  UNL1       -0.0144
     23 C          19.0818   -5.6525   -1.5651 C.ar    1  UNL1       -0.0539
     24 C          18.4643   -6.5828   -2.3980 C.ar    1  UNL1       -0.0612
     25 C          17.0774   -6.6718   -2.4182 C.ar    1  UNL1       -0.0611
     26 C          16.3061   -5.8282   -1.6100 C.ar    1  UNL1       -0.0505
     27 C          16.8979   -4.8712   -0.7586 C.ar    1  UNL1        0.0238
     28 C           2.4190    1.3931   -0.0026 C.ar    1  UNL1       -0.0189
     29 C           1.0140    1.3840    0.0029 C.ar    1  UNL1       -0.0441
     30 C           0.3262    0.1705    0.0048 C.ar    1  UNL1        0.0210
     31 BR         -1.5740    0.2143    0.0059 Br      1  UNL1       -0.0500
     32 H           1.0836   -3.1901   -0.0042 H       1  UNL1        0.0278
     33 H          -0.2557   -2.4836   -0.9089 H       1  UNL1        0.0278
     34 H          -0.2690   -2.4905    0.8854 H       1  UNL1        0.0278
     35 H           2.9812   -1.9489   -0.0065 H       1  UNL1        0.0657
     36 H           5.1357   -1.4946   -0.8878 H       1  UNL1        0.0795
     37 H           5.1186   -1.4841    0.9240 H       1  UNL1        0.0795
     38 H           7.5551   -2.4497    0.0395 H       1  UNL1        0.1566
     39 H           9.8028   -3.3575    0.0587 H       1  UNL1        0.1718
     40 H          11.8649   -1.2166    0.0659 H       1  UNL1        0.1729
     41 H          14.1742   -2.3357    0.9947 H       1  UNL1        0.0795
     42 H          14.2100   -2.3211   -0.7964 H       1  UNL1        0.0795
     43 H          16.2732   -2.5170    1.6580 H       1  UNL1        0.0654
     44 H          18.7273   -2.3871    1.6209 H       1  UNL1        0.0619
     45 H          20.0422   -3.7984    0.1005 H       1  UNL1        0.0624
     46 H          20.1696   -5.6051   -1.5541 H       1  UNL1        0.0624
     47 H          19.0647   -7.2371   -3.0254 H       1  UNL1        0.0618
     48 H          16.5899   -7.3996   -3.0615 H       1  UNL1        0.0618
     49 H          15.2228   -5.9250   -1.6424 H       1  UNL1        0.0625
     50 H           2.9325    2.3533   -0.0097 H       1  UNL1        0.0654
     51 H           0.4644    2.3244    0.0040 H       1  UNL1        0.0630
@<TRIPOS>BOND
     1     1     2    1
     2     2     3   ar
     3     3     4   ar
     4     4     5    1
     5     5     6    1
     6     6     7    1
     7     7     8    2
     8     7     9   am
     9     9    10    1
    10    10    11    2
    11    10    12    1
    12    12    13    1
    13    13    14   am
    14    14    15    2
    15    14    16    1
    16    16    17    1
    17    17    18    1
    18    18    19   ar
    19    19    20   ar
    20    20    21   ar
    21    21    22   ar
    22    22    23   ar
    23    23    24   ar
    24    24    25   ar
    25    25    26   ar
    26    26    27   ar
    27    18    27   ar
    28    22    27   ar
    29     4    28   ar
    30    28    29   ar
    31    29    30   ar
    32     2    30   ar
    33    30    31    1
    34     1    32    1
    35     1    33    1
    36     1    34    1
    37     3    35    1
    38     6    36    1
    39     6    37    1
    40     9    38    1
    41    12    39    1
    42    13    40    1
    43    16    41    1
    44    16    42    1
    45    19    43    1
    46    20    44    1
    47    21    45    1
    48    23    46    1
    49    24    47    1
    50    25    48    1
    51    26    49    1
    52    28    50    1
    53    29    51    1
