@<TRIPOS>MOLECULE
*****
 37 38 0 0 0
SMALL
GASTEIGER

@<TRIPOS>ATOM
      1 O           1.0311    0.3782    0.1601 O.2     1  UNL1       -0.2739
      2 C           2.2383    0.1917    0.0081 C.2     1  UNL1        0.2337
      3 C           2.8774   -1.1502   -0.3348 C.3     1  UNL1        0.0569
      4 C           1.9808   -2.3644   -0.5687 C.ar    1  UNL1        0.0384
      5 C           0.5949   -2.2096   -0.7706 C.ar    1  UNL1       -0.0517
      6 C          -0.2844   -3.2909   -0.7743 C.ar    1  UNL1       -0.0611
      7 C           0.2099   -4.5827   -0.7368 C.ar    1  UNL1       -0.0553
      8 C           1.5864   -4.7891   -0.6544 C.ar    1  UNL1        0.0159
      9 C           2.4756   -3.6939   -0.5675 C.ar    1  UNL1        0.2767
     10 N           3.9247   -4.0096   -0.5146 N.pl3   1  UNL1        0.0799
     11 O           4.2541   -5.2042   -0.5033 O.2     1  UNL1        0.0415
     12 O           4.7417   -3.0774   -0.5042 O.co2   1  UNL1       -0.5760
     13 N           3.0556    1.2751    0.1818 N.am    1  UNL1       -0.2329
     14 N           4.4518    1.2937    0.2052 N.am    1  UNL1       -0.2182
     15 C           5.0551    2.5089    0.4713 C.2     1  UNL1        0.3160
     16 O           4.4083    3.5342    0.6894 O.2     1  UNL1       -0.2513
     17 N           6.4227    2.4667    0.4538 N.am    1  UNL1       -0.2980
     18 C           7.2060    3.6633    0.6871 C.3     1  UNL1        0.0159
     19 C           8.6858    3.4086    0.6384 C.3     1  UNL1       -0.0254
     20 C           9.3275    2.3307   -0.2085 C.3     1  UNL1       -0.0485
     21 C           9.4585    3.7680   -0.6144 C.3     1  UNL1       -0.0485
     22 H           3.4972   -1.3757    0.5430 H       1  UNL1        0.0410
     23 H           3.5098   -1.0116   -1.2196 H       1  UNL1        0.0410
     24 H           0.1378   -1.2343   -0.9139 H       1  UNL1        0.0623
     25 H          -1.3563   -3.1037   -0.7990 H       1  UNL1        0.0618
     26 H          -0.4776   -5.4223   -0.7948 H       1  UNL1        0.0620
     27 H           1.9485   -5.8157   -0.6447 H       1  UNL1        0.0685
     28 H           2.5909    2.1522    0.4235 H       1  UNL1        0.1728
     29 H           4.9804    0.4471    0.0426 H       1  UNL1        0.1744
     30 H           6.8951    1.5861    0.3343 H       1  UNL1        0.1503
     31 H           6.9342    4.0578    1.6739 H       1  UNL1        0.0465
     32 H           6.9158    4.4220   -0.0490 H       1  UNL1        0.0465
     33 H           9.1571    3.6474    1.5879 H       1  UNL1        0.0316
     34 H           8.7137    1.6962   -0.8346 H       1  UNL1        0.0269
     35 H          10.2007    1.8279    0.1946 H       1  UNL1        0.0269
     36 H           8.9108    4.0934   -1.4930 H       1  UNL1        0.0269
     37 H          10.4276    4.2455   -0.5126 H       1  UNL1        0.0269
@<TRIPOS>UNITY_ATOM_ATTR
10 1
charge 1
12 1
charge -1
@<TRIPOS>BOND
     1     1     2    2
     2     2     3    1
     3     3     4    1
     4     4     5   ar
     5     5     6   ar
     6     6     7   ar
     7     7     8   ar
     8     8     9   ar
     9     4     9   ar
    10     9    10    1
    11    10    11    2
    12    10    12    1
    13     2    13   am
    14    13    14    1
    15    14    15   am
    16    15    16    2
    17    15    17   am
    18    17    18    1
    19    18    19    1
    20    19    20    1
    21    20    21    1
    22    19    21    1
    23     3    22    1
    24     3    23    1
    25     5    24    1
    26     6    25    1
    27     7    26    1
    28     8    27    1
    29    13    28    1
    30    14    29    1
    31    17    30    1
    32    18    31    1
    33    18    32    1
    34    19    33    1
    35    20    34    1
    36    20    35    1
    37    21    36    1
    38    21    37    1
