@<TRIPOS>MOLECULE
*****
 42 43 0 0 0
SMALL
GASTEIGER

@<TRIPOS>ATOM
      1 C          -7.9888   -3.2029   -6.9320 C.3     1  UNL1       -0.0397
      2 C          -7.2660   -3.5858   -5.6813 C.ar    1  UNL1       -0.0501
      3 C          -6.6722   -2.5872   -4.9259 C.ar    1  UNL1       -0.0571
      4 C          -5.9867   -2.9047   -3.7690 C.ar    1  UNL1       -0.0400
      5 C          -5.8715   -4.2161   -3.3133 C.ar    1  UNL1        0.0364
      6 N          -5.1431   -4.4767   -2.1324 N.am    1  UNL1       -0.2837
      7 C          -4.5234   -3.5531   -1.3083 C.2     1  UNL1        0.2373
      8 O          -4.5518   -2.3299   -1.4546 O.2     1  UNL1       -0.2734
      9 C          -3.7780   -4.1173   -0.0733 C.3     1  UNL1        0.0972
     10 C          -2.4577   -3.3320    0.0048 C.3     1  UNL1       -0.0381
     11 N          -3.5417   -5.5680   -0.0610 N.am    1  UNL1       -0.3003
     12 C          -4.5843   -6.4656    0.0398 C.2     1  UNL1        0.2447
     13 O          -5.7639   -6.1190    0.0176 O.2     1  UNL1       -0.2702
     14 C          -4.2607   -7.9029   -0.0234 C.ar    1  UNL1        0.0368
     15 C          -3.2753   -8.4389    0.7990 C.ar    1  UNL1       -0.0483
     16 C          -3.0194   -9.8116    0.7526 C.ar    1  UNL1       -0.0427
     17 C          -3.7291  -10.6354   -0.1256 C.ar    1  UNL1        0.0410
     18 CL         -3.3924  -12.3198   -0.1804 Cl      1  UNL1       -0.0835
     19 C          -4.7182  -10.1056   -0.9458 C.ar    1  UNL1       -0.0427
     20 C          -4.9966   -8.7419   -0.8761 C.ar    1  UNL1       -0.0483
     21 C          -6.4849   -5.2485   -4.0595 C.ar    1  UNL1       -0.0290
     22 C          -6.4475   -6.7021   -3.6805 C.3     1  UNL1       -0.0379
     23 C          -7.1729   -4.9144   -5.2478 C.ar    1  UNL1       -0.0542
     24 H          -7.9338   -2.1191   -7.0924 H       1  UNL1        0.0278
     25 H          -9.0445   -3.4734   -6.8552 H       1  UNL1        0.0278
     26 H          -7.5314   -3.6883   -7.7974 H       1  UNL1        0.0278
     27 H          -6.7230   -1.5422   -5.2146 H       1  UNL1        0.0621
     28 H          -5.5557   -2.0667   -3.2418 H       1  UNL1        0.0636
     29 H          -5.1813   -5.4165   -1.7740 H       1  UNL1        0.1549
     30 H          -4.3936   -3.8738    0.8021 H       1  UNL1        0.0592
     31 H          -1.8405   -3.5244   -0.8819 H       1  UNL1        0.0252
     32 H          -1.8757   -3.5894    0.8924 H       1  UNL1        0.0252
     33 H          -2.6355   -2.2480    0.0322 H       1  UNL1        0.0252
     34 H          -2.5836   -5.8951   -0.0873 H       1  UNL1        0.1498
     35 H          -2.7439   -7.8080    1.5045 H       1  UNL1        0.0625
     36 H          -2.2742  -10.2381    1.4171 H       1  UNL1        0.0632
     37 H          -5.2872  -10.7415   -1.6205 H       1  UNL1        0.0632
     38 H          -5.8068   -8.3545   -1.4818 H       1  UNL1        0.0625
     39 H          -5.9137   -6.8500   -2.7513 H       1  UNL1        0.0278
     40 H          -5.9263   -7.2974   -4.4377 H       1  UNL1        0.0278
     41 H          -7.4568   -7.1041   -3.5358 H       1  UNL1        0.0278
     42 H          -7.6392   -5.7000   -5.8415 H       1  UNL1        0.0623
@<TRIPOS>BOND
     1     1     2    1
     2     2     3   ar
     3     3     4   ar
     4     4     5   ar
     5     5     6    1
     6     6     7   am
     7     7     8    2
     8     9    11    1
     9    11    12   am
    10    12    13    2
    11    12    14    1
    12    14    15   ar
    13    15    16   ar
    14    16    17   ar
    15    17    18    1
    16    17    19   ar
    17    19    20   ar
    18    14    20   ar
    19     5    21   ar
    20    21    22    1
    21    21    23   ar
    22     2    23   ar
    23     9    10    1
    24     9     7    1
    25     1    24    1
    26     1    25    1
    27     1    26    1
    28     3    27    1
    29     4    28    1
    30     6    29    1
    31     9    30    1
    32    10    31    1
    33    10    32    1
    34    10    33    1
    35    11    34    1
    36    15    35    1
    37    16    36    1
    38    19    37    1
    39    20    38    1
    40    22    39    1
    41    22    40    1
    42    22    41    1
    43    23    42    1
