REMARK  3 active torsions:
REMARK  status: ('A' for Active; 'I' for Inactive)
REMARK       I    between atoms: C_2  and  N_3 
REMARK    1  A    between atoms: C_2  and  C_11 
REMARK    2  A    between atoms: N_3  and  C_4 
REMARK    3  A    between atoms: C_17  and  O_18 
ROOT
ATOM      1  O   UNL d   1       1.054  -0.136   0.010  0.00  0.00    -0.267 OA
ATOM      2  C   UNL d   1       2.283  -0.070   0.070  0.00  0.00     0.259 C 
ATOM      3  N   UNL d   1       2.994   0.589   1.070  0.00  0.00    -0.323 N 
ATOM      4  H   UNL d   1       3.971   0.796   0.905  0.00  0.00     0.169 HD
ENDROOT
BRANCH   2   5
ATOM      5  C   UNL d   1       3.081  -0.739  -0.999  0.00  0.00     0.067 A 
ATOM      6  C   UNL d   1       4.099  -1.629  -0.632  0.00  0.00     0.043 A 
ATOM      7  C   UNL d   1       4.741  -2.390  -1.614  0.00  0.00     0.035 A 
ATOM      8 CL   UNL d   1       5.970  -3.506  -1.160  0.00  0.00    -0.084 Cl
ATOM      9  C   UNL d   1       4.385  -2.278  -2.958  0.00  0.00     0.026 A 
ATOM     10  C   UNL d   1       3.382  -1.385  -3.333  0.00  0.00     0.039 A 
ATOM     11  C   UNL d   1       2.738  -0.615  -2.358  0.00  0.00     0.081 A 
BRANCH  11  12
ATOM     12  O   UNL d   1       1.786   0.282  -2.754  0.00  0.00    -0.360 OA
ATOM     13  H   UNL d   1       1.614   0.189  -3.705  0.00  0.00     0.217 HD
ENDBRANCH  11  12
ENDBRANCH   2   5
BRANCH   3  14
ATOM     14  C   UNL d   1       2.367   1.249   2.158  0.00  0.00     0.035 A 
ATOM     15  C   UNL d   1       1.234   0.714   2.786  0.00  0.00     0.032 A 
ATOM     16  C   UNL d   1       0.650   1.362   3.880  0.00  0.00     0.044 A 
ATOM     17  C   UNL d   1       1.184   2.560   4.331  0.00  0.00     0.116 A 
ATOM     18  F   UNL d   1       0.622   3.185   5.375  0.00  0.00    -0.206 F 
ATOM     19  C   UNL d   1       2.299   3.116   3.715  0.00  0.00     0.044 A 
ATOM     20  C   UNL d   1       2.905   2.450   2.639  0.00  0.00     0.032 A 
ENDBRANCH   3  14
TORSDOF 3
