@<TRIPOS>MOLECULE
*****
 57 59 0 0 0
SMALL
GASTEIGER

@<TRIPOS>ATOM
      1 C           1.2178    0.0309   -0.7317 C.3     1  UNL1        0.0790
      2 O           2.5382   -0.0348   -0.2151 O.3     1  UNL1       -0.4915
      3 C           2.9945    0.8536    0.7303 C.ar    1  UNL1        0.1615
      4 C           4.2096    1.4261    0.3333 C.ar    1  UNL1       -0.0155
      5 C           4.9993    2.0605    1.2745 C.ar    1  UNL1       -0.0444
      6 C           4.5451    2.2388    2.6066 C.ar    1  UNL1        0.0598
      7 C           5.3330    3.0766    3.4966 C.2     1  UNL1        0.3407
      8 O           6.2261    3.5134    2.8012 O.2     1  UNL1       -0.2483
      9 N           4.9751    3.3923    4.8166 N.am    1  UNL1        0.0006
     10 C           5.7945    3.9836    5.6609 C.2     1  UNL1        0.3844
     11 N           7.1184    4.3273    5.4667 N.pl3   1  UNL1       -0.2729
     12 C           7.6582    4.5901    4.1605 C.3     1  UNL1        0.0912
     13 C           8.8972    5.3697    3.9924 C.ar    1  UNL1        0.0040
     14 C           8.8898    6.7564    3.8469 C.ar    1  UNL1       -0.0527
     15 C          10.0876    7.4042    3.6408 C.ar    1  UNL1       -0.0432
     16 C          11.2259    6.6255    3.5125 C.ar    1  UNL1        0.0276
     17 N          11.2442    5.2752    3.5243 N.ar    1  UNL1       -0.2629
     18 C          10.0711    4.6739    3.7539 C.ar    1  UNL1        0.0337
     19 N           5.3871    4.2663    6.9761 N.pl3   1  UNL1       -0.2448
     20 C           5.8574    5.2696    7.8872 C.ar    1  UNL1        0.1027
     21 C           5.8819    5.0010    9.2756 C.ar    1  UNL1       -0.0227
     22 C           6.3441    5.9548   10.2092 C.ar    1  UNL1       -0.0556
     23 C           6.8829    7.1648    9.7759 C.ar    1  UNL1       -0.0500
     24 C           7.5259    8.1466   10.7107 C.3     1  UNL1       -0.0397
     25 C           6.8435    7.4511    8.4151 C.ar    1  UNL1       -0.0527
     26 C           6.2943    6.5497    7.4832 C.ar    1  UNL1       -0.0118
     27 C           6.1889    7.0470    6.0774 C.3     1  UNL1       -0.0364
     28 C           3.3497    1.7270    3.0034 C.ar    1  UNL1       -0.0027
     29 C           2.5734    1.0233    2.0846 C.ar    1  UNL1        0.1623
     30 O           1.4876    0.5742    2.7880 O.3     1  UNL1       -0.4914
     31 C           0.5325   -0.0538    2.0048 C.3     1  UNL1        0.0790
     32 H           1.1673   -0.5425   -1.6587 H       1  UNL1        0.0660
     33 H           0.8567    1.0524   -0.8699 H       1  UNL1        0.0660
     34 H           0.5145   -0.5492   -0.1431 H       1  UNL1        0.0660
     35 H           4.5835    1.3600   -0.6879 H       1  UNL1        0.0655
     36 H           5.9815    2.4246    0.9590 H       1  UNL1        0.0627
     37 H           7.5856    4.7961    6.2290 H       1  UNL1        0.2580
     38 H           6.9286    5.1686    3.5724 H       1  UNL1        0.0707
     39 H           7.9191    3.5975    3.7867 H       1  UNL1        0.0707
     40 H           7.9622    7.3251    3.8574 H       1  UNL1        0.0622
     41 H          10.1272    8.4834    3.5812 H       1  UNL1        0.0633
     42 H          12.1971    7.0841    3.3860 H       1  UNL1        0.0829
     43 H          10.0709    3.5860    3.6998 H       1  UNL1        0.0833
     44 H           4.4375    3.9806    7.1971 H       1  UNL1        0.2646
     45 H           5.5747    4.0307    9.6636 H       1  UNL1        0.0652
     46 H           6.2986    5.7408   11.2764 H       1  UNL1        0.0621
     47 H           7.4860    7.8055   11.7490 H       1  UNL1        0.0278
     48 H           7.0309    9.1217   10.6492 H       1  UNL1        0.0278
     49 H           8.5816    8.2717   10.4418 H       1  UNL1        0.0278
     50 H           7.2318    8.4064    8.0643 H       1  UNL1        0.0624
     51 H           6.4877    8.0919    5.9772 H       1  UNL1        0.0279
     52 H           5.1867    6.8983    5.6752 H       1  UNL1        0.0279
     53 H           6.8989    6.5379    5.4590 H       1  UNL1        0.0279
     54 H           3.0241    1.8459    4.0327 H       1  UNL1        0.0663
     55 H          -0.3356   -0.3879    2.5656 H       1  UNL1        0.0660
     56 H           1.0096   -0.9539    1.6081 H       1  UNL1        0.0660
     57 H           0.1595    0.6962    1.2997 H       1  UNL1        0.0660
@<TRIPOS>BOND
     1     1     2    1
     2     2     3    1
     3     3     4   ar
     4     4     5   ar
     5     5     6   ar
     6     6     7    1
     7     7     8    2
     8     7     9    1
     9     9    10    2
    10    10    11    1
    11    11    12    1
    12    12    13    1
    13    13    14   ar
    14    14    15   ar
    15    15    16   ar
    16    16    17   ar
    17    17    18   ar
    18    13    18   ar
    19    10    19    1
    20    19    20    1
    21    20    21   ar
    22    21    22   ar
    23    22    23   ar
    24    23    24    1
    25    23    25   ar
    26    25    26   ar
    27    20    26   ar
    28    26    27    1
    29     6    28   ar
    30    28    29   ar
    31     3    29   ar
    32    29    30    1
    33    30    31    1
    34     1    32    1
    35     1    33    1
    36     1    34    1
    37     4    35    1
    38     5    36    1
    39    11    37    1
    40    12    38    1
    41    12    39    1
    42    14    40    1
    43    15    41    1
    44    16    42    1
    45    18    43    1
    46    19    44    1
    47    21    45    1
    48    22    46    1
    49    24    47    1
    50    24    48    1
    51    24    49    1
    52    25    50    1
    53    27    51    1
    54    27    52    1
    55    27    53    1
    56    28    54    1
    57    31    55    1
    58    31    56    1
    59    31    57    1
