REMARK  7 active torsions:
REMARK  status: ('A' for Active; 'I' for Inactive)
REMARK       I    between atoms: C_2  and  N_4 
REMARK    1  A    between atoms: C_5  and  N_4 
REMARK    2  A    between atoms: C_6  and  O_7 
REMARK    3  A    between atoms: O_7  and  C_8 
REMARK    4  A    between atoms: C_28  and  C_29 
REMARK    5  A    between atoms: C_29  and  O_30 
REMARK    6  A    between atoms: C_31  and  O_32 
REMARK    7  A    between atoms: C_33  and  O_34 
ROOT
ATOM      1  C   UNL d   1       5.201   1.072  -2.560  0.00  0.00     0.072 A 
ATOM      2  C   UNL d   1       6.444   1.658  -2.353  0.00  0.00     0.037 A 
ATOM      3  C   UNL d   1       6.508   2.810  -1.554  0.00  0.00     0.011 A 
ATOM      4  C   UNL d   1       5.342   3.433  -1.018  0.00  0.00    -0.047 A 
ATOM      5  C   UNL d   1       4.094   2.854  -1.288  0.00  0.00    -0.049 A 
ATOM      6  C   UNL d   1       4.035   1.698  -2.096  0.00  0.00     0.044 A 
ATOM      7  C   UNL d   1       2.832   3.381  -0.628  0.00  0.00     0.039 C 
ATOM      8  C   UNL d   1       3.033   4.521   0.426  0.00  0.00     0.010 C 
ATOM      9  C   UNL d   1       4.036   5.592  -0.188  0.00  0.00    -0.000 C 
ATOM     10  C   UNL d   1       4.071   7.231   0.398  0.00  0.00     0.006 C 
ATOM     11  C   UNL d   1       3.958   8.945  -0.234  0.00  0.00     0.013 C 
ATOM     12  C   UNL d   1       4.499   9.028  -1.603  0.00  0.00     0.079 C 
ATOM     13  C   UNL d   1       5.488   7.966  -1.272  0.00  0.00     0.135 C 
ATOM     14  O   UNL d   1       6.023   7.414  -2.195  0.00  0.00    -0.297 OA
ATOM     15  C   UNL d   1       5.539   7.551   0.371  0.00  0.00     0.021 C 
ATOM     16  C   UNL d   1       5.627   8.469   1.677  0.00  0.00     0.024 C 
ATOM     17  C   UNL d   1       6.712   6.637   0.478  0.00  0.00     0.018 C 
ATOM     18  C   UNL d   1       6.644   5.438  -0.405  0.00  0.00     0.011 C 
ATOM     19  C   UNL d   1       5.399   4.670  -0.088  0.00  0.00     0.024 C 
ENDROOT
BRANCH   1  20
ATOM     20  O   UNL d   1       5.060  -0.209  -3.031  0.00  0.00    -0.318 OA
BRANCH  20  21
ATOM     21  C   UNL d   1       5.386  -1.221  -2.042  0.00  0.00     0.292 C 
ATOM     22  C   UNL d   1       4.807  -1.005  -0.599  0.00  0.00     0.171 C 
ATOM     23  C   UNL d   1       5.312  -2.142   0.289  0.00  0.00     0.177 C 
ATOM     24  C   UNL d   1       4.984  -3.515  -0.268  0.00  0.00     0.180 C 
ATOM     25  C   UNL d   1       5.347  -3.616  -1.757  0.00  0.00     0.179 C 
ATOM     26  O   UNL d   1       4.864  -2.492  -2.511  0.00  0.00    -0.349 OA
BRANCH  22  27
ATOM     27  N   UNL d   1       5.218   0.223   0.083  0.00  0.00    -0.349 N 
ATOM     28  C   UNL d   1       4.525   0.954   0.999  0.00  0.00     0.214 C 
ATOM     29  C   UNL d   1       3.068   0.647   1.209  0.00  0.00     0.117 C 
ATOM     30  O   UNL d   1       5.084   1.876   1.591  0.00  0.00    -0.274 OA
ATOM     31  H   UNL d   1       6.157   0.573  -0.066  0.00  0.00     0.163 HD
ENDBRANCH  22  27
BRANCH  23  32
ATOM     32  O   UNL d   1       4.797  -2.025   1.623  0.00  0.00    -0.391 OA
ATOM     33  H   UNL d   1       3.829  -2.101   1.582  0.00  0.00     0.210 HD
ENDBRANCH  23  32
BRANCH  24  34
ATOM     34  O   UNL d   1       5.705  -4.487   0.497  0.00  0.00    -0.390 OA
ATOM     35  H   UNL d   1       6.649  -4.256   0.487  0.00  0.00     0.210 HD
ENDBRANCH  24  34
BRANCH  25  36
ATOM     36  C   UNL d   1       4.771  -4.921  -2.341  0.00  0.00     0.198 C 
BRANCH  36  37
ATOM     37  O   UNL d   1       5.251  -6.096  -1.699  0.00  0.00    -0.398 OA
ATOM     38  H   UNL d   1       6.218  -6.039  -1.618  0.00  0.00     0.209 HD
ENDBRANCH  36  37
ENDBRANCH  25  36
ENDBRANCH  20  21
ENDBRANCH   1  20
TORSDOF 7
