@<TRIPOS>MOLECULE
*****
 58 61 0 0 0
SMALL
GASTEIGER

@<TRIPOS>ATOM
      1 C           0.9358   -0.1004    0.0793 C.3     1  UNL1       -0.0307
      2 C           2.4606   -0.0754    0.1040 C.3     1  UNL1        0.0870
      3 O           2.9464    0.3619    1.3742 O.3     1  UNL1       -0.4886
      4 C           2.8567    1.6997    1.6710 C.ar    1  UNL1        0.1623
      5 C           3.2507    2.0046    2.9793 C.ar    1  UNL1       -0.0163
      6 C           3.2133    3.3214    3.4404 C.ar    1  UNL1       -0.0575
      7 C           2.7661    4.3500    2.5988 C.ar    1  UNL1       -0.0494
      8 C           2.3534    4.0623    1.2905 C.ar    1  UNL1        0.0396
      9 C           1.8596    5.1564    0.3942 C.2     1  UNL1        0.0564
     10 N           1.4483    4.8761   -0.8065 N.2     1  UNL1       -0.1873
     11 N           1.0273    5.8779   -1.6383 N.am    1  UNL1       -0.2017
     12 C           0.5593    5.5619   -2.9177 C.2     1  UNL1        0.2810
     13 O           0.4300    4.4000   -3.3232 O.2     1  UNL1       -0.2668
     14 C           0.2231    6.6847   -3.7601 C.ar    1  UNL1        0.1224
     15 C           0.8165    7.9244   -3.9026 C.ar    1  UNL1       -0.0041
     16 C           0.1384    8.5738   -4.9670 C.ar    1  UNL1        0.0932
     17 C           0.4421    9.8856   -5.5305 C.ar    1  UNL1        0.0023
     18 C           1.7252   10.1777   -6.0146 C.ar    1  UNL1       -0.0491
     19 C           2.0158   11.4379   -6.5535 C.ar    1  UNL1       -0.0193
     20 C           1.0289   12.4198   -6.6049 C.ar    1  UNL1        0.1210
     21 O           1.1786   13.6748   -7.1178 O.3     1  UNL1       -0.4874
     22 C           2.4354   14.0008   -7.7163 C.3     1  UNL1        0.1146
     23 C           2.3759   15.4279   -8.2115 C.ar    1  UNL1       -0.0103
     24 C           3.5157   16.2425   -8.1534 C.ar    1  UNL1       -0.0540
     25 C           3.4324   17.5940   -8.4945 C.ar    1  UNL1       -0.0430
     26 C           2.2362   18.1130   -8.9859 C.ar    1  UNL1        0.0410
     27 CL          2.1624   19.7557   -9.4909 Cl      1  UNL1       -0.0835
     28 C           1.1101   17.3033   -9.1017 C.ar    1  UNL1       -0.0430
     29 C           1.1820   15.9639   -8.7196 C.ar    1  UNL1       -0.0540
     30 C          -0.2431   12.1405   -6.0982 C.ar    1  UNL1       -0.0193
     31 C          -0.5394   10.8796   -5.5712 C.ar    1  UNL1       -0.0491
     32 N          -0.8672    7.8117   -5.4192 N.ar    1  UNL1       -0.1732
     33 N          -0.7634    6.6665   -4.7149 N.ar    1  UNL1       -0.2719
     34 C           2.4162    2.7377    0.8278 C.ar    1  UNL1        0.1673
     35 O           2.0492    2.4526   -0.4626 O.3     1  UNL1       -0.5029
     36 H           0.5687   -0.3675   -0.9143 H       1  UNL1        0.0262
     37 H           0.4824    0.8558    0.3603 H       1  UNL1        0.0262
     38 H           0.5628   -0.8190    0.8139 H       1  UNL1        0.0262
     39 H           2.9225    0.4872   -0.7146 H       1  UNL1        0.0694
     40 H           2.8254   -1.0965   -0.0481 H       1  UNL1        0.0694
     41 H           3.5878    1.2065    3.6412 H       1  UNL1        0.0655
     42 H           3.5336    3.5368    4.4587 H       1  UNL1        0.0619
     43 H           2.7510    5.3652    2.9832 H       1  UNL1        0.0625
     44 H           1.8635    6.1831    0.7952 H       1  UNL1        0.0852
     45 H           1.0216    6.8364   -1.3092 H       1  UNL1        0.1776
     46 H           1.6688    8.2983   -3.3583 H       1  UNL1        0.0662
     47 H           2.5088    9.4238   -5.9975 H       1  UNL1        0.0625
     48 H           3.0184   11.6169   -6.9270 H       1  UNL1        0.0654
     49 H           2.6559   13.3358   -8.5601 H       1  UNL1        0.0748
     50 H           3.2209   13.9269   -6.9542 H       1  UNL1        0.0748
     51 H           4.4699   15.8369   -7.8234 H       1  UNL1        0.0622
     52 H           4.2989   18.2369   -8.3666 H       1  UNL1        0.0632
     53 H           0.1716   17.7059   -9.4717 H       1  UNL1        0.0632
     54 H           0.2929   15.3403   -8.7984 H       1  UNL1        0.0622
     55 H          -1.0139   12.9078   -6.1191 H       1  UNL1        0.0654
     56 H          -1.5367   10.6783   -5.1877 H       1  UNL1        0.0625
     57 H          -1.4114    5.9117   -4.9285 H       1  UNL1        0.1891
     58 H           1.6662    3.2455   -0.8977 H       1  UNL1        0.2923
@<TRIPOS>BOND
     1     1     2    1
     2     2     3    1
     3     3     4    1
     4     4     5   ar
     5     5     6   ar
     6     6     7   ar
     7     7     8   ar
     8     8     9    1
     9     9    10    2
    10    10    11    1
    11    11    12   am
    12    12    13    2
    13    12    14    1
    14    14    15   ar
    15    15    16   ar
    16    16    17    1
    17    17    18   ar
    18    18    19   ar
    19    19    20   ar
    20    20    21    1
    21    21    22    1
    22    22    23    1
    23    23    24   ar
    24    24    25   ar
    25    25    26   ar
    26    26    27    1
    27    26    28   ar
    28    28    29   ar
    29    23    29   ar
    30    20    30   ar
    31    30    31   ar
    32    17    31   ar
    33    16    32   ar
    34    32    33   ar
    35    14    33   ar
    36     8    34   ar
    37     4    34   ar
    38    34    35    1
    39     1    36    1
    40     1    37    1
    41     1    38    1
    42     2    39    1
    43     2    40    1
    44     5    41    1
    45     6    42    1
    46     7    43    1
    47     9    44    1
    48    11    45    1
    49    15    46    1
    50    18    47    1
    51    19    48    1
    52    22    49    1
    53    22    50    1
    54    24    51    1
    55    25    52    1
    56    28    53    1
    57    29    54    1
    58    30    55    1
    59    31    56    1
    60    33    57    1
    61    35    58    1
