@<TRIPOS>MOLECULE
*****
 43 45 0 0 0
SMALL
GASTEIGER

@<TRIPOS>ATOM
      1 N           0.9558   -0.0824    0.0354 N.1     1  UNL1       -0.1907
      2 C           2.2168   -0.0824    0.0354 C.1     1  UNL1        0.1045
      3 C           3.7368   -0.0824    0.0354 C.2     1  UNL1        0.1171
      4 C           4.3702    0.6019    1.0212 C.2     1  UNL1        0.0031
      5 C           3.6771    1.2290    2.1186 C.ar    1  UNL1        0.1300
      6 C           2.5916    0.7589    2.8552 C.ar    1  UNL1       -0.0158
      7 C           2.2660    1.7074    3.8419 C.ar    1  UNL1       -0.0153
      8 C           3.1729    2.7279    3.7075 C.ar    1  UNL1        0.1357
      9 C           3.3842    3.9395    4.4877 C.ar    1  UNL1        0.0177
     10 C           3.3539    5.2099    3.9005 C.ar    1  UNL1       -0.0447
     11 C           3.5731    6.3587    4.6754 C.ar    1  UNL1        0.0163
     12 C           3.7420    6.2420    6.0623 C.ar    1  UNL1        0.2732
     13 N           3.8570    7.4522    6.8891 N.pl3   1  UNL1        0.0796
     14 O           3.8274    8.5483    6.3150 O.2     1  UNL1        0.0414
     15 O           3.9581    7.3038    8.1171 O.co2   1  UNL1       -0.5760
     16 C           3.7427    4.9822    6.6692 C.ar    1  UNL1        0.0163
     17 C           3.5605    3.8409    5.8796 C.ar    1  UNL1       -0.0447
     18 O           4.0386    2.4499    2.6805 O.2     1  UNL1       -0.4554
     19 C           4.4306   -0.8407   -1.0544 C.2     1  UNL1        0.2587
     20 O           3.7402   -1.5200   -1.8206 O.2     1  UNL1       -0.2691
     21 N           5.8204   -0.8362   -1.0934 N.am    1  UNL1       -0.2797
     22 C           6.5590   -1.4816   -2.1293 C.ar    1  UNL1        0.0527
     23 C           7.6898   -2.2423   -1.7710 C.ar    1  UNL1       -0.0274
     24 C           8.4953   -2.8546   -2.7580 C.ar    1  UNL1        0.0566
     25 C           9.8105   -3.5135   -2.4054 C.3     1  UNL1        0.4175
     26 F          10.6521   -2.6447   -1.7779 F       1  UNL1       -0.1659
     27 F           9.6764   -4.5786   -1.5733 F       1  UNL1       -0.1659
     28 F          10.4968   -3.9654   -3.4932 F       1  UNL1       -0.1659
     29 C           8.1100   -2.7691   -4.1010 C.ar    1  UNL1       -0.0486
     30 C           7.0149   -1.9934   -4.4671 C.ar    1  UNL1       -0.0411
     31 C           6.2559   -1.3319   -3.4975 C.ar    1  UNL1        0.0622
     32 CL          5.0916   -0.1976   -4.0966 Cl      1  UNL1       -0.0816
     33 H           5.4485    0.6943    1.0578 H       1  UNL1        0.0669
     34 H           2.0731   -0.1772    2.6972 H       1  UNL1        0.0655
     35 H           1.4710    1.6514    4.5713 H       1  UNL1        0.0656
     36 H           3.1248    5.3181    2.8418 H       1  UNL1        0.0627
     37 H           3.5981    7.3309    4.1871 H       1  UNL1        0.0685
     38 H           3.8784    4.8694    7.7435 H       1  UNL1        0.0685
     39 H           3.5468    2.8651    6.3630 H       1  UNL1        0.0627
     40 H           6.3555   -0.5452   -0.2860 H       1  UNL1        0.1552
     41 H           7.9456   -2.3968   -0.7224 H       1  UNL1        0.0642
     42 H           8.6892   -3.2683   -4.8777 H       1  UNL1        0.0623
     43 H           6.7848   -1.8644   -5.5220 H       1  UNL1        0.0633
@<TRIPOS>UNITY_ATOM_ATTR
13 1
charge 1
15 1
charge -1
@<TRIPOS>BOND
     1     1     2    3
     2     2     3    1
     3     3     4    2
     4     4     5    1
     5     5     6   ar
     6     6     7   ar
     7     7     8   ar
     8     8     9    1
     9     9    10   ar
    10    10    11   ar
    11    11    12   ar
    12    12    13    1
    13    13    14    2
    14    13    15    1
    15    12    16   ar
    16    16    17   ar
    17     9    17   ar
    18     8    18   ar
    19     5    18   ar
    20     3    19    1
    21    19    20    2
    22    19    21   am
    23    21    22    1
    24    22    23   ar
    25    23    24   ar
    26    24    25    1
    27    25    26    1
    28    25    27    1
    29    25    28    1
    30    24    29   ar
    31    29    30   ar
    32    30    31   ar
    33    22    31   ar
    34    31    32    1
    35     4    33    1
    36     6    34    1
    37     7    35    1
    38    10    36    1
    39    11    37    1
    40    16    38    1
    41    17    39    1
    42    21    40    1
    43    23    41    1
    44    29    42    1
    45    30    43    1
