REMARK  5 active torsions:
REMARK  status: ('A' for Active; 'I' for Inactive)
REMARK    1  A    between atoms: C_5  and  N_6 
REMARK       I    between atoms: N_6  and  C_7 
REMARK       I    between atoms: C_7  and  N_9 
REMARK    2  A    between atoms: N_9  and  C_10 
REMARK    3  A    between atoms: C_12  and  N_13 
REMARK       I    between atoms: N_13  and  C_14 
REMARK    4  A    between atoms: C_14  and  C_16 
REMARK    5  A    between atoms: C_25  and  N_26 
ROOT
ATOM      1  C   UNL d   1      -3.662  -5.365   0.011  0.00  0.00     0.065 A 
ATOM      2  C   UNL d   1      -4.563  -6.172  -0.759  0.00  0.00     0.061 A 
ATOM      3  C   UNL d   1      -4.579  -7.582  -0.618  0.00  0.00     0.037 A 
ATOM      4  C   UNL d   1      -3.603  -8.154   0.191  0.00  0.00     0.032 A 
ATOM      5  C   UNL d   1      -2.734  -7.380   0.947  0.00  0.00     0.034 A 
ATOM      6  C   UNL d   1      -2.748  -5.985   0.910  0.00  0.00     0.057 A 
ENDROOT
BRANCH   1   7
ATOM      7  N   UNL d   1      -3.670  -3.928  -0.115  0.00  0.00    -0.306 N 
ATOM      8  C   UNL d   1      -2.480  -3.278  -0.431  0.00  0.00     0.325 C 
ATOM      9  N   UNL d   1      -2.468  -1.898  -0.231  0.00  0.00    -0.308 N 
ATOM     10  O   UNL d   1      -1.500  -3.912  -0.831  0.00  0.00    -0.247 OA
ATOM     11  H   UNL d   1      -3.348  -1.446  -0.044  0.00  0.00     0.170 HD
ATOM     12  H   UNL d   1      -4.546  -3.471  -0.317  0.00  0.00     0.170 HD
BRANCH   9  13
ATOM     13  C   UNL d   1      -1.262  -1.091  -0.191  0.00  0.00     0.042 A 
ATOM     14  C   UNL d   1       0.009  -1.696  -0.191  0.00  0.00     0.030 A 
ATOM     15  C   UNL d   1       1.208  -0.999  -0.065  0.00  0.00     0.009 A 
ATOM     16  C   UNL d   1       1.198   0.381  -0.011  0.00  0.00    -0.061 A 
ATOM     17  C   UNL d   1       2.506   1.114   0.016  0.00  0.00     0.048 C 
ATOM     18  C   UNL d   1      -0.048   1.029  -0.011  0.00  0.00     0.015 A 
ATOM     19  C   UNL d   1      -1.284   0.309  -0.062  0.00  0.00    -0.035 A 
ATOM     20  C   UNL d   1      -2.554   1.110  -0.018  0.00  0.00     0.050 C 
ENDBRANCH   9  13
ENDBRANCH   1   7
BRANCH   6  21
ATOM     21  N   UNL d   1      -1.898  -5.359   1.805  0.00  0.00    -0.379 N 
ATOM     22  C   UNL d   1      -2.267  -4.256   2.671  0.00  0.00     0.123 C 
ATOM     23  C   UNL d   1      -1.126  -3.270   2.527  0.00  0.00     0.021 C 
ATOM     24  C   UNL d   1       0.091  -4.130   2.231  0.00  0.00     0.021 C 
ATOM     25  C   UNL d   1      -0.454  -5.393   1.553  0.00  0.00     0.123 C 
ENDBRANCH   6  21
BRANCH   3  26
ATOM     26  N   UNL d   1      -5.581  -8.411  -1.227  0.00  0.00    -0.323 N 
ATOM     27  C   UNL d   1      -5.774  -9.768  -0.926  0.00  0.00     0.256 C 
ATOM     28  O   UNL d   1      -5.101 -10.468  -0.165  0.00  0.00    -0.267 OA
ATOM     29  H   UNL d   1      -6.286  -7.946  -1.785  0.00  0.00     0.169 HD
BRANCH  27  30
ATOM     30  C   UNL d   1      -6.900 -10.490  -1.563  0.00  0.00     0.032 A 
ATOM     31  C   UNL d   1      -7.571 -11.491  -0.829  0.00  0.00     0.020 A 
ATOM     32  C   UNL d   1      -8.490 -12.332  -1.460  0.00  0.00     0.043 A 
ATOM     33  C   UNL d   1      -8.776 -12.131  -2.803  0.00  0.00     0.116 A 
ATOM     34  F   UNL d   1      -9.700 -12.893  -3.402  0.00  0.00    -0.206 F 
ATOM     35  C   UNL d   1      -8.118 -11.146  -3.538  0.00  0.00     0.043 A 
ATOM     36  C   UNL d   1      -7.166 -10.329  -2.923  0.00  0.00     0.020 A 
ENDBRANCH  27  30
ENDBRANCH   3  26
TORSDOF 5
