@<TRIPOS>MOLECULE
*****
 32 33 0 0 0
SMALL
GASTEIGER

@<TRIPOS>ATOM
      1 O           0.9678    0.0324   -0.2220 O.2     1  UNL1       -0.2234
      2 C           2.1811   -0.0770   -0.0130 C.2     1  UNL1        0.3963
      3 N           2.7690   -0.7939    1.0187 N.am    1  UNL1       -0.1498
      4 C           2.0930   -1.5239    1.9992 C.2     1  UNL1        0.3725
      5 N           0.7928   -1.5267    1.9753 N.2     1  UNL1        0.1520
      6 O           0.1960   -2.1488    3.0723 O.2     1  UNL1       -0.3111
      7 C           2.9196   -2.2442    3.0392 C.ar    1  UNL1        0.0700
      8 C           2.4643   -3.4895    3.5092 C.ar    1  UNL1       -0.0467
      9 C           2.9573   -4.0416    4.6918 C.ar    1  UNL1       -0.0609
     10 C           4.0190   -3.4294    5.3442 C.ar    1  UNL1       -0.0617
     11 C           4.5626   -2.2516    4.8255 C.ar    1  UNL1       -0.0609
     12 C           4.0119   -1.6489    3.6805 C.ar    1  UNL1       -0.0467
     13 N           3.0019    0.6509   -0.8397 N.am    1  UNL1       -0.2492
     14 C           4.3890    0.6279   -1.0078 C.ar    1  UNL1        0.0369
     15 C           5.0589    1.8041   -1.3693 C.ar    1  UNL1       -0.0390
     16 C           6.4481    1.7888   -1.5421 C.ar    1  UNL1       -0.0416
     17 C           7.1577    0.6082   -1.3265 C.ar    1  UNL1        0.0411
     18 CL          8.8743    0.6030   -1.4116 Cl      1  UNL1       -0.0835
     19 C           6.4862   -0.5712   -1.0187 C.ar    1  UNL1       -0.0416
     20 C           5.1015   -0.5627   -0.8846 C.ar    1  UNL1       -0.0390
     21 H           3.7683   -0.7243    1.1021 H       1  UNL1        0.3031
     22 H          -0.7507   -2.0705    2.8608 H       1  UNL1        0.3605
     23 H           1.6489   -3.9992    2.9998 H       1  UNL1        0.0626
     24 H           2.4766   -4.9183    5.1201 H       1  UNL1        0.0618
     25 H           4.4098   -3.8643    6.2617 H       1  UNL1        0.0618
     26 H           5.3828   -1.7729    5.3564 H       1  UNL1        0.0618
     27 H           4.4068   -0.6913    3.3580 H       1  UNL1        0.0626
     28 H           2.4710    1.2692   -1.4458 H       1  UNL1        0.1585
     29 H           4.5295    2.7512   -1.4625 H       1  UNL1        0.0636
     30 H           6.9733    2.6972   -1.8290 H       1  UNL1        0.0633
     31 H           7.0251   -1.5051   -0.8934 H       1  UNL1        0.0633
     32 H           4.5839   -1.5055   -0.7304 H       1  UNL1        0.0636
@<TRIPOS>BOND
     1     1     2    2
     2     2     3   am
     3     3     4    1
     4     4     5    2
     5     5     6    1
     6     4     7    1
     7     7     8   ar
     8     8     9   ar
     9     9    10   ar
    10    10    11   ar
    11    11    12   ar
    12     7    12   ar
    13     2    13   am
    14    13    14    1
    15    14    15   ar
    16    15    16   ar
    17    16    17   ar
    18    17    18    1
    19    17    19   ar
    20    19    20   ar
    21    14    20   ar
    22     3    21    1
    23     6    22    1
    24     8    23    1
    25     9    24    1
    26    10    25    1
    27    11    26    1
    28    12    27    1
    29    13    28    1
    30    15    29    1
    31    16    30    1
    32    19    31    1
    33    20    32    1
