REMARK  12 active torsions:
REMARK  status: ('A' for Active; 'I' for Inactive)
REMARK    1  A    between atoms: C_7  and  O_8 
REMARK    2  A    between atoms: O_8  and  C_9 
REMARK    3  A    between atoms: C_9  and  C_10 
REMARK    4  A    between atoms: C_10  and  O_11 
REMARK    5  A    between atoms: C_10  and  C_12 
REMARK    6  A    between atoms: N_13  and  C_12 
REMARK    7  A    between atoms: N_13  and  C_32 
REMARK    8  A    between atoms: N_13  and  C_14 
REMARK    9  A    between atoms: C_14  and  C_15 
REMARK   10  A    between atoms: C_19  and  C_20 
REMARK   11  A    between atoms: C_20  and  O_22 
REMARK   12  A    between atoms: O_22  and  C_23 
ROOT
ATOM      1  C   UNL d   1       4.300   3.870  -0.380  0.00  0.00     0.313 C 
ENDROOT
BRANCH   1   2
ATOM      2  C   UNL d   1       2.816   3.915  -0.922  0.00  0.00     0.134 C 
ATOM      3  N   UNL d   1       2.236   5.074  -1.031  0.00  0.00    -0.225 NA
ATOM      4  C   UNL d   1       0.863   5.045  -0.927  0.00  0.00     0.116 A 
ATOM      5  S   UNL d   1      -0.006   6.431  -0.420  0.00  0.00    -0.063 SA
ATOM      6  C   UNL d   1       0.045   3.934  -0.935  0.00  0.00     0.075 A 
ATOM      7  C   UNL d   1      -1.494   5.597  -0.297  0.00  0.00     0.089 A 
ATOM      8  C   UNL d   1      -1.355   4.253  -0.649  0.00  0.00    -0.020 A 
ATOM      9  C   UNL d   1      -2.491   3.281  -0.525  0.00  0.00     0.051 C 
ATOM     10  C   UNL d   1       0.728   2.656  -1.086  0.00  0.00     0.260 C 
ATOM     11  O   UNL d   1       0.179   1.563  -1.133  0.00  0.00    -0.267 OA
ATOM     12  N   UNL d   1       2.120   2.731  -1.048  0.00  0.00    -0.309 N 
ATOM     13  H   UNL d   1       2.537   1.821  -0.889  0.00  0.00     0.170 HD
BRANCH   7  14
ATOM     14  C   UNL d   1      -2.672   6.344   0.133  0.00  0.00     0.301 C 
ATOM     15  O   UNL d   1      -2.701   7.564   0.362  0.00  0.00    -0.259 OA
BRANCH  14  16
ATOM     16  O   UNL d   1      -3.777   5.546   0.181  0.00  0.00    -0.312 OA
BRANCH  16  17
ATOM     17  C   UNL d   1      -5.071   6.179   0.200  0.00  0.00     0.124 C 
ATOM     18  C   UNL d   1      -5.253   7.002  -1.072  0.00  0.00     0.040 C 
ATOM     19  C   UNL d   1      -6.167   5.105   0.238  0.00  0.00     0.040 C 
ENDBRANCH  16  17
ENDBRANCH  14  16
ENDBRANCH   7  14
ENDBRANCH   1   2
BRANCH   1  20
ATOM     20  N   UNL d   1       4.884   5.258  -0.055  0.00  0.00    -0.058 N 
ATOM     21  H   UNL d   1       4.556   5.857  -0.829  0.00  0.00     0.280 HD
BRANCH  20  22
ATOM     22  C   UNL d   1       6.432   5.256  -0.045  0.00  0.00     0.180 C 
ATOM     23  C   UNL d   1       6.987   4.543  -1.276  0.00  0.00     0.039 C 
ATOM     24  C   UNL d   1       6.950   6.695  -0.035  0.00  0.00     0.039 C 
ENDBRANCH  20  22
BRANCH  20  25
ATOM     25  C   UNL d   1       4.376   5.922   1.261  0.00  0.00     0.269 C 
BRANCH  25  26
ATOM     26  C   UNL d   1       2.855   5.999   1.551  0.00  0.00     0.168 C 
BRANCH  26  27
ATOM     27  C   UNL d   1       2.303   4.612   1.971  0.00  0.00     0.209 C 
BRANCH  27  28
ATOM     28  O   UNL d   1       0.925   4.385   2.238  0.00  0.00    -0.348 OA
BRANCH  28  29
ATOM     29  C   UNL d   1       0.452   3.072   2.146  0.00  0.00     0.074 A 
ATOM     30  C   UNL d   1      -0.948   2.987   2.186  0.00  0.00     0.037 A 
ATOM     31  C   UNL d   1      -1.643   1.777   1.943  0.00  0.00     0.003 A 
ATOM     32  C   UNL d   1      -0.961   0.632   1.603  0.00  0.00     0.001 A 
ATOM     33  C   UNL d   1       0.421   0.671   1.625  0.00  0.00     0.009 A 
ATOM     34  C   UNL d   1       1.148   1.863   1.914  0.00  0.00    -0.029 A 
ATOM     35  C   UNL d   1       2.631   1.694   1.848  0.00  0.00     0.051 C 
ENDBRANCH  28  29
ENDBRANCH  27  28
ENDBRANCH  26  27
BRANCH  26  36
ATOM     36  O   UNL d   1       2.664   6.915   2.627  0.00  0.00    -0.392 OA
ATOM     37  H   UNL d   1       2.588   6.402   3.449  0.00  0.00     0.210 HD
ENDBRANCH  26  36
ENDBRANCH  25  26
ENDBRANCH  20  25
ENDBRANCH   1  20
TORSDOF 12
