REMARK  4 active torsions:
REMARK  status: ('A' for Active; 'I' for Inactive)
REMARK    1  A    between atoms: O_2  and  N_3 
REMARK       I    between atoms: N_3  and  C_4 
REMARK       I    between atoms: C_4  and  N_6 
REMARK    2  A    between atoms: N_6  and  C_7 
REMARK    3  A    between atoms: C_7  and  C_8 
REMARK    4  A    between atoms: C_8  and  C_9 
ROOT
ATOM      1  C   UNL d   1       6.442  -3.861   2.518  0.00  0.00     0.003 A 
ATOM      2  C   UNL d   1       5.985  -5.264   2.157  0.00  0.00     0.017 A 
ATOM      3  C   UNL d   1       7.444  -4.921   2.086  0.00  0.00     0.017 A 
ENDROOT
BRANCH   1   4
ATOM      4  C   UNL d   1       6.174  -2.726   1.538  0.00  0.00     0.138 C 
BRANCH   4   5
ATOM      5  N   UNL d   1       4.753  -2.494   1.383  0.00  0.00    -0.340 N 
ATOM      6  C   UNL d   1       4.335  -1.346   0.757  0.00  0.00     0.339 C 
ATOM      7  N   UNL d   1       2.973  -1.211   0.719  0.00  0.00    -0.217 N 
ATOM      8  O   UNL d   1       5.131  -0.553   0.249  0.00  0.00    -0.245 OA
ATOM      9  H   UNL d   1       2.325  -1.857   1.143  0.00  0.00     0.199 HD
ATOM     10  H   UNL d   1       4.119  -2.991   1.989  0.00  0.00     0.164 HD
BRANCH   7  11
ATOM     11  O   UNL d   1       2.482  -0.108  -0.019  0.00  0.00    -0.281 OA
ATOM     12  C   UNL d   1       1.062  -0.112  -0.033  0.00  0.00     0.237 C 
ENDBRANCH   7  11
ENDBRANCH   4   5
ENDBRANCH   1   4
BRANCH   1  13
ATOM     13  C   UNL d   1       6.391  -3.300   3.938  0.00  0.00    -0.048 C 
ATOM     14  C   UNL d   1       5.177  -3.237   4.646  0.00  0.00     0.008 C 
ATOM     15  C   UNL d   1       4.947  -2.223   5.585  0.00  0.00     0.001 C 
ATOM     16  C   UNL d   1       5.957  -1.323   5.915  0.00  0.00     0.000 C 
ATOM     17  C   UNL d   1       7.198  -1.425   5.296  0.00  0.00     0.001 C 
ATOM     18  C   UNL d   1       7.418  -2.418   4.339  0.00  0.00     0.008 C 
ENDBRANCH   1  13
TORSDOF 4
