REMARK  10 active torsions:
REMARK  status: ('A' for Active; 'I' for Inactive)
REMARK    1  A    between atoms: C_2  and  C_3 
REMARK    2  A    between atoms: C_3  and  C_4 
REMARK    3  A    between atoms: C_4  and  C_5 
REMARK    4  A    between atoms: C_5  and  N_6 
REMARK       I    between atoms: N_6  and  C_7 
REMARK       I    between atoms: C_7  and  N_9 
REMARK    5  A    between atoms: N_9  and  N_10 
REMARK       I    between atoms: N_10  and  C_11 
REMARK    6  A    between atoms: C_11  and  C_13 
REMARK    7  A    between atoms: C_15  and  O_16 
REMARK    8  A    between atoms: C_18  and  O_19 
REMARK    9  A    between atoms: O_19  and  C_20 
REMARK   10  A    between atoms: C_23  and  N_24 
ROOT
ATOM      1  N   UNL d   1       9.421   2.762  -4.539  0.00  0.00    -0.262 N 
ATOM      2  C   UNL d   1      10.808   2.922  -4.449  0.00  0.00     0.272 C 
ATOM      3  O   UNL d   1      11.495   2.398  -3.576  0.00  0.00    -0.266 OA
ATOM      4  H   UNL d   1       8.864   3.417  -5.086  0.00  0.00     0.190 HD
ENDROOT
BRANCH   2   5
ATOM      5  C   UNL d   1      11.483   3.799  -5.490  0.00  0.00     0.069 C 
ATOM      6  C   UNL d   1      12.642   3.320  -6.172  0.00  0.00     0.059 C 
ATOM      7  C   UNL d   1      13.360   4.121  -7.114  0.00  0.00     0.102 C 
ATOM      8  C   UNL d   1      12.857   5.384  -7.457  0.00  0.00     0.104 C 
ATOM      9  C   UNL d   1      11.768   5.882  -6.750  0.00  0.00     0.076 C 
ATOM     10  C   UNL d   1      11.092   5.116  -5.769  0.00  0.00     0.121 C 
BRANCH   7  11
ATOM     11  O   UNL d   1      14.530   3.576  -7.610  0.00  0.00    -0.353 OA
ATOM     12  C   UNL d   1      15.383   4.429  -8.395  0.00  0.00     0.210 C 
ENDBRANCH   7  11
BRANCH   8  13
ATOM     13  O   UNL d   1      13.443   6.067  -8.485  0.00  0.00    -0.349 OA
BRANCH  13  14
ATOM     14  C   UNL d   1      12.932   7.328  -8.900  0.00  0.00     0.171 C 
ATOM     15  C   UNL d   1      13.750   7.811 -10.088  0.00  0.00     0.034 C 
ENDBRANCH  13  14
ENDBRANCH   8  13
BRANCH  10  16
ATOM     16  N   UNL d   1      10.001   5.814  -5.075  0.00  0.00    -0.115 N 
ATOM     17  O   UNL d   1       9.637   6.901  -5.532  0.00  0.00    -0.532 OA
ATOM     18  O   UNL d   1       9.497   5.293  -4.074  0.00  0.00    -0.532 OA
ENDBRANCH  10  16
ENDBRANCH   2   5
BRANCH   1  19
ATOM     19  N   UNL d   1       8.663   2.213  -3.439  0.00  0.00    -0.249 N 
ATOM     20  C   UNL d   1       7.280   2.392  -3.448  0.00  0.00     0.334 C 
ATOM     21  N   UNL d   1       6.609   1.762  -2.416  0.00  0.00    -0.342 N 
ATOM     22  O   UNL d   1       6.703   3.003  -4.346  0.00  0.00    -0.246 OA
ATOM     23  H   UNL d   1       7.135   1.264  -1.715  0.00  0.00     0.164 HD
ATOM     24  H   UNL d   1       9.189   1.909  -2.627  0.00  0.00     0.192 HD
BRANCH  21  25
ATOM     25  C   UNL d   1       5.144   1.722  -2.365  0.00  0.00     0.124 C 
BRANCH  25  26
ATOM     26  C   UNL d   1       4.588   0.917  -1.181  0.00  0.00     0.020 C 
BRANCH  26  27
ATOM     27  C   UNL d   1       3.051   0.902  -1.163  0.00  0.00     0.001 C 
BRANCH  27  28
ATOM     28  C   UNL d   1       2.507   0.100   0.023  0.00  0.00    -0.004 C 
ATOM     29  C   UNL d   1       0.985   0.092   0.034  0.00  0.00     0.005 C 
ENDBRANCH  27  28
ENDBRANCH  26  27
ENDBRANCH  25  26
ENDBRANCH  21  25
ENDBRANCH   1  19
TORSDOF 10
