@<TRIPOS>MOLECULE
*****
 73 75 0 0 0
SMALL
GASTEIGER

@<TRIPOS>ATOM
      1 C           0.6654   -0.0231    0.1454 C.3     1  UNL1       -0.0639
      2 C           2.1616   -0.0123    0.1745 C.3     1  UNL1       -0.0400
      3 C           2.9606    0.3639    1.4108 C.3     1  UNL1        0.0147
      4 N           4.4588    0.3293    1.3057 N.am    1  UNL1       -0.2975
      5 C           5.2083   -0.1016    0.0857 C.3     1  UNL1        0.0147
      6 C           4.4605   -0.4884   -1.1691 C.3     1  UNL1       -0.0400
      7 C           5.2240   -0.8350   -2.4081 C.3     1  UNL1       -0.0639
      8 C           5.1494    0.6491    2.5151 C.2     1  UNL1        0.2466
      9 O           4.5627    0.9106    3.5650 O.2     1  UNL1       -0.2700
     10 C           6.6470    0.7096    2.5501 C.ar    1  UNL1        0.0370
     11 C           7.4004    0.2231    3.6302 C.ar    1  UNL1       -0.0479
     12 C           8.8123    0.3889    3.6629 C.ar    1  UNL1       -0.0398
     13 C           9.4888    0.9595    2.5724 C.ar    1  UNL1        0.0335
     14 N          10.9124    1.0259    2.5136 N.am    1  UNL1       -0.2842
     15 C          11.6283    1.4947    1.4059 C.2     1  UNL1        0.2343
     16 O          11.1372    1.9135    0.3536 O.2     1  UNL1       -0.2738
     17 C          13.1590    1.4489    1.5016 C.3     1  UNL1        0.0861
     18 N          13.7201    2.1244    0.3242 N.pl3   1  UNL1       -0.3354
     19 C          15.0431    2.1140   -0.0473 C.ar    1  UNL1        0.0283
     20 C          15.5762    3.2290   -0.6939 C.ar    1  UNL1       -0.0394
     21 C          16.9155    3.2575   -1.0792 C.ar    1  UNL1       -0.0409
     22 C          17.7645    2.1849   -0.7815 C.ar    1  UNL1        0.0532
     23 CL         19.4257    2.4352   -1.1997 Cl      1  UNL1       -0.0828
     24 C          17.2516    1.0351   -0.1525 C.ar    1  UNL1        0.0567
     25 C          18.1026   -0.1847    0.0807 C.2     1  UNL1        0.2458
     26 O          19.2860   -0.1934   -0.2038 O.2     1  UNL1       -0.2701
     27 N          17.5017   -1.3267    0.6114 N.am    1  UNL1       -0.3085
     28 C          18.3179   -2.4966    0.9109 C.3     1  UNL1        0.0234
     29 C          18.8496   -2.4249    2.3472 C.3     1  UNL1       -0.0345
     30 C          19.7147   -3.6379    2.6778 C.3     1  UNL1       -0.0514
     31 C          18.9657   -4.9436    2.4282 C.3     1  UNL1       -0.0529
     32 C          18.4318   -5.0075    0.9996 C.3     1  UNL1       -0.0514
     33 C          17.5485   -3.8010    0.6785 C.3     1  UNL1       -0.0345
     34 C          15.8924    1.0367    0.2190 C.ar    1  UNL1       -0.0273
     35 C           8.7087    1.4664    1.5406 C.ar    1  UNL1       -0.0398
     36 C           7.3245    1.3965    1.5575 C.ar    1  UNL1       -0.0479
     37 H           0.3731   -0.3381   -0.8693 H       1  UNL1        0.0230
     38 H           0.2702    0.9758    0.3170 H       1  UNL1        0.0230
     39 H           0.2723   -0.7519    0.8514 H       1  UNL1        0.0230
     40 H           2.4021    0.7043   -0.6079 H       1  UNL1        0.0278
     41 H           2.3975   -1.0462   -0.0647 H       1  UNL1        0.0278
     42 H           2.6794   -0.3055    2.2321 H       1  UNL1        0.0464
     43 H           2.6851    1.3806    1.7166 H       1  UNL1        0.0464
     44 H           5.8919   -0.9025    0.3860 H       1  UNL1        0.0464
     45 H           5.7952    0.7504   -0.2416 H       1  UNL1        0.0464
     46 H           3.8880    0.3787   -1.4933 H       1  UNL1        0.0278
     47 H           3.8756   -1.3803   -0.9697 H       1  UNL1        0.0278
     48 H           5.8193    0.0134   -2.7456 H       1  UNL1        0.0230
     49 H           4.4746   -1.0610   -3.1791 H       1  UNL1        0.0230
     50 H           5.8362   -1.7182   -2.2398 H       1  UNL1        0.0230
     51 H           6.8924   -0.2721    4.4576 H       1  UNL1        0.0626
     52 H           9.3462    0.0734    4.5572 H       1  UNL1        0.0636
     53 H          11.4212    0.6494    3.3054 H       1  UNL1        0.1549
     54 H          13.4616    0.4001    1.5596 H       1  UNL1        0.0557
     55 H          13.4820    1.9949    2.3907 H       1  UNL1        0.0557
     56 H          13.0300    2.3767   -0.3916 H       1  UNL1        0.1466
     57 H          14.9602    4.1103   -0.8649 H       1  UNL1        0.0636
     58 H          17.2992    4.1275   -1.6087 H       1  UNL1        0.0633
     59 H          16.5549   -1.3316    0.9472 H       1  UNL1        0.1493
     60 H          19.1729   -2.4947    0.2240 H       1  UNL1        0.0498
     61 H          18.0099   -2.3721    3.0527 H       1  UNL1        0.0283
     62 H          19.4351   -1.5091    2.4898 H       1  UNL1        0.0283
     63 H          20.0388   -3.5886    3.7228 H       1  UNL1        0.0266
     64 H          20.6203   -3.6158    2.0587 H       1  UNL1        0.0266
     65 H          18.1319   -5.0305    3.1358 H       1  UNL1        0.0265
     66 H          19.6336   -5.7923    2.6132 H       1  UNL1        0.0265
     67 H          17.8680   -5.9348    0.8536 H       1  UNL1        0.0266
     68 H          19.2782   -5.0331    0.3012 H       1  UNL1        0.0266
     69 H          16.6444   -3.8285    1.3000 H       1  UNL1        0.0283
     70 H          17.2157   -3.8593   -0.3647 H       1  UNL1        0.0283
     71 H          15.4503    0.1742    0.6943 H       1  UNL1        0.0644
     72 H           9.1188    1.9748    0.6804 H       1  UNL1        0.0636
     73 H           6.8113    1.9241    0.7660 H       1  UNL1        0.0626
@<TRIPOS>BOND
     1     1     2    1
     2     2     3    1
     3     3     4    1
     4     4     5    1
     5     5     6    1
     6     6     7    1
     7     4     8   am
     8     8     9    2
     9     8    10    1
    10    10    11   ar
    11    11    12   ar
    12    12    13   ar
    13    13    14    1
    14    14    15   am
    15    15    16    2
    16    15    17    1
    17    17    18    1
    18    18    19    1
    19    19    20   ar
    20    20    21   ar
    21    21    22   ar
    22    22    23    1
    23    22    24   ar
    24    24    25    1
    25    25    26    2
    26    25    27   am
    27    27    28    1
    28    28    29    1
    29    29    30    1
    30    30    31    1
    31    31    32    1
    32    32    33    1
    33    28    33    1
    34    24    34   ar
    35    19    34   ar
    36    13    35   ar
    37    35    36   ar
    38    10    36   ar
    39     1    37    1
    40     1    38    1
    41     1    39    1
    42     2    40    1
    43     2    41    1
    44     3    42    1
    45     3    43    1
    46     5    44    1
    47     5    45    1
    48     6    46    1
    49     6    47    1
    50     7    48    1
    51     7    49    1
    52     7    50    1
    53    11    51    1
    54    12    52    1
    55    14    53    1
    56    17    54    1
    57    17    55    1
    58    18    56    1
    59    20    57    1
    60    21    58    1
    61    27    59    1
    62    28    60    1
    63    29    61    1
    64    29    62    1
    65    30    63    1
    66    30    64    1
    67    31    65    1
    68    31    66    1
    69    32    67    1
    70    32    68    1
    71    33    69    1
    72    33    70    1
    73    34    71    1
    74    35    72    1
    75    36    73    1
