REMARK  4 active torsions:
REMARK  status: ('A' for Active; 'I' for Inactive)
REMARK       I    between atoms: C_2  and  N_3 
REMARK    1  A    between atoms: C_2  and  C_15 
REMARK    2  A    between atoms: N_3  and  N_4 
REMARK    3  A    between atoms: C_5  and  C_6 
REMARK    4  A    between atoms: C_18  and  O_19 
ROOT
ATOM      1  O   UNL d   1       0.954   0.043   0.169  0.00  0.00    -0.266 OA
ATOM      2  C   UNL d   1       2.181  -0.038   0.072  0.00  0.00     0.271 C 
ATOM      3  N   UNL d   1       2.880  -1.180  -0.336  0.00  0.00    -0.243 N 
ATOM      4  H   UNL d   1       3.893  -1.213  -0.299  0.00  0.00     0.192 HD
ENDROOT
BRANCH   3   5
ATOM      5  N   UNL d   1       2.175  -2.314  -0.715  0.00  0.00    -0.183 NA
ATOM      6  C   UNL d   1       2.842  -3.399  -0.965  0.00  0.00     0.152 C 
BRANCH   6   7
ATOM      7  C   UNL d   1       2.142  -4.621  -1.357  0.00  0.00     0.011 A 
ATOM      8  C   UNL d   1       2.484  -5.906  -0.964  0.00  0.00     0.102 A 
ATOM      9  N   UNL d   1       1.583  -6.790  -1.511  0.00  0.00    -0.364 N 
ATOM     10  C   UNL d   1       0.710  -6.124  -2.340  0.00  0.00     0.043 A 
ATOM     11  H   UNL d   1       1.575  -7.790  -1.360  0.00  0.00     0.165 HD
ATOM     12  C   UNL d   1      -0.320  -6.613  -3.159  0.00  0.00     0.030 A 
ATOM     13  C   UNL d   1       1.028  -4.766  -2.249  0.00  0.00     0.004 A 
ATOM     14  C   UNL d   1      -1.023  -5.686  -3.936  0.00  0.00     0.002 A 
ATOM     15  C   UNL d   1      -0.725  -4.327  -3.872  0.00  0.00     0.001 A 
ATOM     16  C   UNL d   1       0.284  -3.857  -3.026  0.00  0.00     0.014 A 
ENDBRANCH   6   7
ENDBRANCH   3   5
BRANCH   2  17
ATOM     17  C   UNL d   1       2.989   1.174   0.430  0.00  0.00     0.033 A 
ATOM     18  C   UNL d   1       2.621   1.975   1.530  0.00  0.00     0.020 A 
ATOM     19  C   UNL d   1       3.336   3.147   1.843  0.00  0.00     0.037 A 
ATOM     20  C   UNL d   1       4.405   3.527   1.040  0.00  0.00     0.065 A 
ATOM     21  C   UNL d   1       4.753   2.766  -0.072  0.00  0.00     0.037 A 
ATOM     22  C   UNL d   1       4.051   1.592  -0.379  0.00  0.00     0.020 A 
BRANCH  20  23
ATOM     23  O   UNL d   1       5.146   4.645   1.287  0.00  0.00    -0.361 OA
ATOM     24  H   UNL d   1       4.827   5.084   2.092  0.00  0.00     0.217 HD
ENDBRANCH  20  23
ENDBRANCH   2  17
TORSDOF 4
