@<TRIPOS>MOLECULE
*****
 57 59 0 0 0
SMALL
GASTEIGER

@<TRIPOS>ATOM
      1 C           0.9789    0.1034   -0.0455 C.3     1  UNL1       -0.0613
      2 C           2.5038    0.0665   -0.0434 C.3     1  UNL1       -0.0305
      3 C           2.9688   -0.7676    1.1239 C.ar    1  UNL1       -0.0475
      4 C           2.9121   -2.1668    1.1033 C.ar    1  UNL1       -0.0568
      5 C           3.0824   -2.9106    2.2922 C.ar    1  UNL1       -0.0402
      6 C           3.4134   -2.2700    3.4994 C.ar    1  UNL1        0.0338
      7 N           3.6798   -3.0178    4.6871 N.am    1  UNL1       -0.2777
      8 C           4.1070   -2.4786    5.9117 C.2     1  UNL1        0.3048
      9 O           4.2761   -1.2926    6.1937 O.2     1  UNL1       -0.2648
     10 C           4.4215   -3.4805    7.0425 C.2     1  UNL1        0.3184
     11 O           4.3156   -4.6882    6.8166 O.2     1  UNL1       -0.2634
     12 N           4.8132   -2.8743    8.2452 N.am    1  UNL1       -0.1992
     13 N           5.1404   -3.6431    9.3395 N.2     1  UNL1       -0.1873
     14 C           5.4206   -3.0466   10.4585 C.2     1  UNL1        0.0529
     15 C           5.8397   -3.8278   11.6573 C.ar    1  UNL1       -0.0020
     16 C           5.5778   -3.3834   12.9580 C.ar    1  UNL1       -0.0529
     17 C           6.1617   -4.0458   14.0462 C.ar    1  UNL1       -0.0577
     18 C           6.9584   -5.1762   13.8335 C.ar    1  UNL1       -0.0199
     19 C           7.1939   -5.6389   12.5336 C.ar    1  UNL1        0.1218
     20 O           8.0224   -6.7194   12.4217 O.3     1  UNL1       -0.4827
     21 C           8.3632   -7.1631   11.1008 C.3     1  UNL1        0.1655
     22 C           9.3487   -8.3299   11.2154 C.2     1  UNL1        0.2548
     23 O           9.7448   -8.7268   12.3118 O.2     1  UNL1       -0.2717
     24 N           9.7925   -8.8726   10.0070 N.am    1  UNL1       -0.2826
     25 C          10.6457  -10.0060    9.9715 C.ar    1  UNL1        0.0362
     26 C          11.6500  -10.1224    9.0061 C.ar    1  UNL1       -0.0220
     27 C          12.4284  -11.2885    8.9556 C.ar    1  UNL1        0.0441
     28 CL         13.5755  -11.5014    7.6870 Cl      1  UNL1       -0.0834
     29 C          12.2509  -12.3158    9.8804 C.ar    1  UNL1       -0.0249
     30 C          11.2439  -12.1979   10.8281 C.ar    1  UNL1        0.0441
     31 CL         10.9231  -13.4974   11.9090 Cl      1  UNL1       -0.0834
     32 C          10.4473  -11.0570   10.8742 C.ar    1  UNL1       -0.0220
     33 C           6.6201   -4.9695   11.4541 C.ar    1  UNL1       -0.0113
     34 C           3.4980   -0.8763    3.4814 C.ar    1  UNL1       -0.0402
     35 C           3.2910   -0.1341    2.3191 C.ar    1  UNL1       -0.0568
     36 H           0.6035    0.7178   -0.8677 H       1  UNL1        0.0233
     37 H           0.5933    0.5187    0.8938 H       1  UNL1        0.0233
     38 H           0.5618   -0.9042   -0.1520 H       1  UNL1        0.0233
     39 H           2.8900    1.0912    0.0418 H       1  UNL1        0.0311
     40 H           2.8851   -0.3354   -0.9880 H       1  UNL1        0.0311
     41 H           2.6949   -2.6772    0.1649 H       1  UNL1        0.0621
     42 H           2.9202   -3.9851    2.2393 H       1  UNL1        0.0636
     43 H           3.6264   -4.0334    4.6316 H       1  UNL1        0.1553
     44 H           4.8691   -1.8551    8.2848 H       1  UNL1        0.1777
     45 H           5.4071   -1.9477   10.5811 H       1  UNL1        0.0851
     46 H           4.9202   -2.5387   13.1443 H       1  UNL1        0.0624
     47 H           6.0185   -3.6735   15.0600 H       1  UNL1        0.0619
     48 H           7.4012   -5.6914   14.6863 H       1  UNL1        0.0654
     49 H           8.8512   -6.3552   10.5423 H       1  UNL1        0.0795
     50 H           7.4625   -7.5154   10.5860 H       1  UNL1        0.0795
     51 H           9.6154   -8.3842    9.1362 H       1  UNL1        0.1549
     52 H          11.8762   -9.3053    8.3261 H       1  UNL1        0.0651
     53 H          12.8731  -13.2060    9.8521 H       1  UNL1        0.0647
     54 H           9.6401  -11.0095   11.6007 H       1  UNL1        0.0651
     55 H           6.7942   -5.2931   10.4353 H       1  UNL1        0.0660
     56 H           3.6954   -0.3022    4.3759 H       1  UNL1        0.0636
     57 H           3.3490    0.9501    2.3772 H       1  UNL1        0.0621
@<TRIPOS>BOND
     1     1     2    1
     2     2     3    1
     3     3     4   ar
     4     4     5   ar
     5     5     6   ar
     6     6     7    1
     7     7     8   am
     8     8     9    2
     9     8    10    1
    10    10    11    2
    11    10    12   am
    12    12    13    1
    13    13    14    2
    14    14    15    1
    15    15    16   ar
    16    16    17   ar
    17    17    18   ar
    18    18    19   ar
    19    19    20    1
    20    20    21    1
    21    21    22    1
    22    22    23    2
    23    22    24   am
    24    24    25    1
    25    25    26   ar
    26    26    27   ar
    27    27    28    1
    28    27    29   ar
    29    29    30   ar
    30    30    31    1
    31    30    32   ar
    32    25    32   ar
    33    19    33   ar
    34    15    33   ar
    35     6    34   ar
    36    34    35   ar
    37     3    35   ar
    38     1    36    1
    39     1    37    1
    40     1    38    1
    41     2    39    1
    42     2    40    1
    43     4    41    1
    44     5    42    1
    45     7    43    1
    46    12    44    1
    47    14    45    1
    48    16    46    1
    49    17    47    1
    50    18    48    1
    51    21    49    1
    52    21    50    1
    53    24    51    1
    54    26    52    1
    55    29    53    1
    56    32    54    1
    57    33    55    1
    58    34    56    1
    59    35    57    1
