@<TRIPOS>MOLECULE
*****
 51 54 0 0 0
SMALL
GASTEIGER

@<TRIPOS>ATOM
      1 C          -1.1202   -2.7224   -0.0087 C.3     1  UNL1       -0.0396
      2 C          -0.5864   -1.3227   -0.0010 C.ar    1  UNL1       -0.0467
      3 C          -1.4553   -0.2277   -0.0054 C.ar    1  UNL1       -0.0551
      4 C          -0.9625    1.0846   -0.0225 C.ar    1  UNL1       -0.0375
      5 C          -1.9540    2.2161   -0.0881 C.3     1  UNL1       -0.0390
      6 C           0.4359    1.3010   -0.0089 C.ar    1  UNL1        0.0445
      7 C           0.9515    2.6568    0.0793 C.ar    1  UNL1        0.0755
      8 N           1.7351    3.2822   -0.8710 N.ar    1  UNL1       -0.2758
      9 N           2.0518    4.5737   -0.5626 N.ar    1  UNL1       -0.1683
     10 C           1.3906    4.7708    0.5798 C.ar    1  UNL1        0.1529
     11 C           0.7344    3.6256    1.0194 C.ar    1  UNL1        0.0350
     12 C          -0.0045    3.8888    2.2637 C.3     1  UNL1        0.0837
     13 C           0.7605    3.2463    3.3846 C.ar    1  UNL1        0.0127
     14 C           2.0863    3.5977    3.6889 C.ar    1  UNL1       -0.0537
     15 C           2.7168    3.0816    4.8139 C.ar    1  UNL1       -0.0613
     16 C           2.0365    2.1989    5.6478 C.ar    1  UNL1       -0.0590
     17 C           0.7332    1.8103    5.3421 C.ar    1  UNL1       -0.0261
     18 C           0.1095    2.3281    4.2138 C.ar    1  UNL1        0.1287
     19 F          -1.1575    1.9701    3.9541 F       1  UNL1       -0.2051
     20 N           0.0567    5.3625    2.3107 N.am    1  UNL1       -0.2848
     21 C          -0.8895    6.1656    3.0974 C.3     1  UNL1        0.0180
     22 C          -2.0048    5.3567    3.7829 C.3     1  UNL1       -0.0138
     23 C          -3.0104    6.2055    4.5445 C.3     1  UNL1        0.0456
     24 O          -3.9741    5.3606    5.1688 O.3     1  UNL1       -0.3950
     25 C           1.0832    5.8742    1.4836 C.2     1  UNL1        0.2678
     26 O           1.6028    6.9822    1.5337 O.2     1  UNL1       -0.2682
     27 C           1.3003    0.1941   -0.0175 C.ar    1  UNL1        0.1265
     28 O           2.6666    0.2962   -0.0296 O.3     1  UNL1       -0.5061
     29 C           0.7941   -1.1026   -0.0089 C.ar    1  UNL1       -0.0166
     30 H          -2.2150   -2.7324   -0.0090 H       1  UNL1        0.0278
     31 H          -0.7768   -3.2625    0.8786 H       1  UNL1        0.0278
     32 H          -0.7794   -3.2441   -0.9084 H       1  UNL1        0.0278
     33 H          -2.5312   -0.3955   -0.0002 H       1  UNL1        0.0623
     34 H          -2.9889    1.8669   -0.1156 H       1  UNL1        0.0278
     35 H          -1.7691    2.8443   -0.9639 H       1  UNL1        0.0278
     36 H          -1.9014    2.8329    0.7981 H       1  UNL1        0.0278
     37 H           2.0711    2.8860   -1.7452 H       1  UNL1        0.1889
     38 H          -1.0380    3.5735    2.2397 H       1  UNL1        0.0603
     39 H           2.6389    4.2974    3.0662 H       1  UNL1        0.0622
     40 H           3.7335    3.3908    5.0399 H       1  UNL1        0.0618
     41 H           2.5252    1.8187    6.5394 H       1  UNL1        0.0618
     42 H           0.1940    1.1236    5.9861 H       1  UNL1        0.0646
     43 H          -1.3453    6.8850    2.4048 H       1  UNL1        0.0466
     44 H          -0.3225    6.7475    3.8307 H       1  UNL1        0.0466
     45 H          -1.5709    4.6325    4.4807 H       1  UNL1        0.0302
     46 H          -2.5609    4.7667    3.0425 H       1  UNL1        0.0302
     47 H          -3.5388    6.8957    3.8809 H       1  UNL1        0.0557
     48 H          -2.5165    6.7795    5.3324 H       1  UNL1        0.0557
     49 H          -4.4407    4.8607    4.4766 H       1  UNL1        0.2094
     50 H           2.9306    1.2196    0.1102 H       1  UNL1        0.2922
     51 H           1.4838   -1.9433    0.0011 H       1  UNL1        0.0657
@<TRIPOS>BOND
     1     1     2    1
     2     2     3   ar
     3     3     4   ar
     4     4     5    1
     5     4     6   ar
     6     6     7    1
     7     7     8   ar
     8     8     9   ar
     9     9    10   ar
    10    10    11   ar
    11     7    11   ar
    12    11    12    1
    13    13    14   ar
    14    14    15   ar
    15    15    16   ar
    16    16    17   ar
    17    17    18   ar
    18    13    18   ar
    19    18    19    1
    20    12    20    1
    21    20    21    1
    22    21    22    1
    23    22    23    1
    24    23    24    1
    25    20    25   am
    26    10    25    1
    27    25    26    2
    28     6    27   ar
    29    27    28    1
    30    27    29   ar
    31     2    29   ar
    32    12    13    1
    33     1    30    1
    34     1    31    1
    35     1    32    1
    36     3    33    1
    37     5    34    1
    38     5    35    1
    39     5    36    1
    40     8    37    1
    41    12    38    1
    42    14    39    1
    43    15    40    1
    44    16    41    1
    45    17    42    1
    46    21    43    1
    47    21    44    1
    48    22    45    1
    49    22    46    1
    50    23    47    1
    51    23    48    1
    52    24    49    1
    53    28    50    1
    54    29    51    1
