@<TRIPOS>MOLECULE
*****
 75 78 0 0 0
SMALL
GASTEIGER

@<TRIPOS>ATOM
      1 C           1.0312   -0.0631   -0.0734 C.3     1  UNL1       -0.0652
      2 C           2.5531   -0.0463   -0.0876 C.3     1  UNL1       -0.0528
      3 C           3.0993    1.0725   -0.9833 C.3     1  UNL1       -0.0188
      4 C           4.6308    1.0905   -0.9996 C.3     1  UNL1        0.0928
      5 O           5.1256    2.1796   -1.8135 O.3     1  UNL1       -0.4612
      6 C           6.4817    2.2413   -1.8886 C.2     1  UNL1        0.3392
      7 O           7.2570    1.3890   -1.4322 O.2     1  UNL1       -0.2450
      8 C           6.9830    3.4817   -2.5469 C.ar    1  UNL1        0.0591
      9 C           8.1808    3.4684   -3.2659 C.ar    1  UNL1       -0.0460
     10 C           8.7324    4.6732   -3.7946 C.ar    1  UNL1       -0.0386
     11 C           8.0209    5.8882   -3.7719 C.ar    1  UNL1        0.0445
     12 N           8.4915    7.0232   -4.5372 N.pl3   1  UNL1       -0.2644
     13 N           7.6732    8.1019   -4.8742 N.pl3   1  UNL1       -0.2359
     14 C           7.7945    9.0870   -5.8620 C.ar    1  UNL1        0.2154
     15 N           7.6105   10.3159   -5.4433 N.ar    1  UNL1       -0.2195
     16 C           7.6367   11.3679   -6.3240 C.ar    1  UNL1        0.0504
     17 C           7.5230   12.7369   -5.6995 C.3     1  UNL1       -0.0218
     18 C           7.8185   11.2531   -7.6504 C.ar    1  UNL1        0.0425
     19 C           7.8832   12.4563   -8.5661 C.3     1  UNL1        0.0044
     20 C           8.0104   12.2023  -10.0441 C.ar    1  UNL1       -0.0428
     21 C           9.1940   12.5206  -10.7196 C.ar    1  UNL1       -0.0583
     22 C           9.3302   12.1984  -12.0672 C.ar    1  UNL1       -0.0615
     23 C           8.3363   11.4622  -12.7131 C.ar    1  UNL1       -0.0617
     24 C           7.1655   11.1207  -12.0413 C.ar    1  UNL1       -0.0615
     25 C           6.9773   11.5413  -10.7298 C.ar    1  UNL1       -0.0583
     26 C           7.9962    9.8764   -8.1432 C.ar    1  UNL1        0.2593
     27 O           8.2082    9.6289   -9.3331 O.2     1  UNL1       -0.2672
     28 N           7.9054    8.8398   -7.2315 N.ar    1  UNL1       -0.2752
     29 C           7.7776    7.5876   -7.9661 C.3     1  UNL1        0.0545
     30 C           7.3550    6.3693   -7.2433 C.ar    1  UNL1       -0.0244
     31 C           8.2718    5.2944   -7.2297 C.ar    1  UNL1       -0.0537
     32 C           7.9372    4.0936   -6.6261 C.ar    1  UNL1       -0.0501
     33 C           8.9494    2.9828   -6.5426 C.3     1  UNL1       -0.0397
     34 C           6.6959    4.0258   -5.9747 C.ar    1  UNL1       -0.0586
     35 C           5.8294    5.1297   -5.9026 C.ar    1  UNL1       -0.0583
     36 C           6.1178    6.3103   -6.5711 C.ar    1  UNL1       -0.0456
     37 C           5.1608    7.4748   -6.4452 C.3     1  UNL1       -0.0394
     38 C           6.8325    5.8839   -3.0270 C.ar    1  UNL1       -0.0386
     39 C           6.3224    4.7036   -2.4236 C.ar    1  UNL1       -0.0460
     40 H           0.6618   -0.8682    0.5709 H       1  UNL1        0.0230
     41 H           0.6324   -0.2258   -1.0796 H       1  UNL1        0.0230
     42 H           0.6329    0.8831    0.3064 H       1  UNL1        0.0230
     43 H           2.9166   -1.0199   -0.4377 H       1  UNL1        0.0264
     44 H           2.9169    0.0825    0.9389 H       1  UNL1        0.0264
     45 H           2.7237    2.0428   -0.6364 H       1  UNL1        0.0298
     46 H           2.7215    0.9485   -2.0055 H       1  UNL1        0.0298
     47 H           5.0006    0.1325   -1.3858 H       1  UNL1        0.0697
     48 H           4.9969    1.2333    0.0241 H       1  UNL1        0.0697
     49 H           8.6125    2.5009   -3.5361 H       1  UNL1        0.0626
     50 H           9.6384    4.6135   -4.3967 H       1  UNL1        0.0637
     51 H           9.0050    6.6765   -5.3504 H       1  UNL1        0.1700
     52 H           6.9039    8.2910   -4.2417 H       1  UNL1        0.1729
     53 H           7.3850   12.6778   -4.6171 H       1  UNL1        0.0293
     54 H           6.6768   13.2983   -6.1123 H       1  UNL1        0.0293
     55 H           8.4417   13.3064   -5.8828 H       1  UNL1        0.0293
     56 H           8.7303   13.0777   -8.2454 H       1  UNL1        0.0364
     57 H           6.9870   13.0783   -8.4358 H       1  UNL1        0.0364
     58 H          10.0277   12.9791  -10.1923 H       1  UNL1        0.0620
     59 H          10.2276   12.4903  -12.6038 H       1  UNL1        0.0618
     60 H           8.4876   11.1277  -13.7342 H       1  UNL1        0.0618
     61 H           6.4193   10.4892  -12.5141 H       1  UNL1        0.0618
     62 H           6.0907   11.2143  -10.1901 H       1  UNL1        0.0620
     63 H           8.7233    7.4239   -8.5047 H       1  UNL1        0.0543
     64 H           7.0259    7.7034   -8.7685 H       1  UNL1        0.0543
     65 H           9.2822    5.4408   -7.6182 H       1  UNL1        0.0624
     66 H           9.8023    3.1720   -7.2021 H       1  UNL1        0.0278
     67 H           8.4793    2.0380   -6.8106 H       1  UNL1        0.0278
     68 H           9.3909    2.8553   -5.5521 H       1  UNL1        0.0278
     69 H           6.4556    3.1678   -5.3548 H       1  UNL1        0.0620
     70 H           4.9990    5.1099   -5.1990 H       1  UNL1        0.0620
     71 H           4.3970    7.2716   -5.6882 H       1  UNL1        0.0278
     72 H           4.6978    7.6978   -7.4053 H       1  UNL1        0.0278
     73 H           5.5991    8.4071   -6.0945 H       1  UNL1        0.0278
     74 H           6.2119    6.7696   -2.9835 H       1  UNL1        0.0637
     75 H           5.3761    4.7440   -1.8937 H       1  UNL1        0.0626
@<TRIPOS>BOND
     1     1     2    1
     2     2     3    1
     3     3     4    1
     4     4     5    1
     5     5     6    1
     6     6     7    2
     7     6     8    1
     8     8     9   ar
     9     9    10   ar
    10    10    11   ar
    11    11    12    1
    12    12    13    1
    13    13    14    1
    14    14    15   ar
    15    15    16   ar
    16    16    17    1
    17    16    18   ar
    18    18    19    1
    19    19    20    1
    20    20    21   ar
    21    21    22   ar
    22    22    23   ar
    23    23    24   ar
    24    24    25   ar
    25    20    25   ar
    26    18    26   ar
    27    26    27    2
    28    26    28   ar
    29    14    28   ar
    30    28    29    1
    31    29    30    1
    32    30    31   ar
    33    31    32   ar
    34    32    33    1
    35    32    34   ar
    36    34    35   ar
    37    35    36   ar
    38    30    36   ar
    39    36    37    1
    40    11    38   ar
    41    38    39   ar
    42     8    39   ar
    43     1    40    1
    44     1    41    1
    45     1    42    1
    46     2    43    1
    47     2    44    1
    48     3    45    1
    49     3    46    1
    50     4    47    1
    51     4    48    1
    52     9    49    1
    53    10    50    1
    54    12    51    1
    55    13    52    1
    56    17    53    1
    57    17    54    1
    58    17    55    1
    59    19    56    1
    60    19    57    1
    61    21    58    1
    62    22    59    1
    63    23    60    1
    64    24    61    1
    65    25    62    1
    66    29    63    1
    67    29    64    1
    68    31    65    1
    69    33    66    1
    70    33    67    1
    71    33    68    1
    72    34    69    1
    73    35    70    1
    74    37    71    1
    75    37    72    1
    76    37    73    1
    77    38    74    1
    78    39    75    1
