REMARK  5 active torsions:
REMARK  status: ('A' for Active; 'I' for Inactive)
REMARK    1  A    between atoms: C_4  and  C_2 
REMARK    2  A    between atoms: C_4  and  N_6 
REMARK       I    between atoms: N_6  and  C_7 
REMARK    3  A    between atoms: C_7  and  C_9 
REMARK       I    between atoms: C_9  and  N_11 
REMARK    4  A    between atoms: N_11  and  N_12 
REMARK    5  A    between atoms: N_12  and  C_13 
ROOT
ATOM      1  C   UNL d   1       6.881   0.288  -2.675  0.00  0.00     0.327 C 
ATOM      2  O   UNL d   1       7.437   0.207  -1.577  0.00  0.00    -0.261 OA
ATOM      3  N   UNL d   1       7.529   0.483  -3.895  0.00  0.00    -0.261 N 
ATOM      4  H   UNL d   1       7.004   0.486  -4.768  0.00  0.00     0.190 HD
ENDROOT
BRANCH   3   5
ATOM      5  N   UNL d   1       8.940   0.557  -3.912  0.00  0.00    -0.296 N 
ATOM      6  H   UNL d   1       9.417   0.141  -3.109  0.00  0.00     0.187 HD
BRANCH   5   7
ATOM      7  C   UNL d   1       9.624   0.579  -5.149  0.00  0.00     0.070 A 
ATOM      8  C   UNL d   1       9.248   1.492  -6.145  0.00  0.00     0.034 A 
ATOM      9  C   UNL d   1       9.969   1.606  -7.343  0.00  0.00     0.026 A 
ATOM     10  C   UNL d   1      11.061   0.777  -7.586  0.00  0.00     0.035 A 
ATOM     11 CL   UNL d   1      11.936   0.926  -9.062  0.00  0.00    -0.084 Cl
ATOM     12  C   UNL d   1      11.444  -0.165  -6.638  0.00  0.00     0.050 A 
ATOM     13  C   UNL d   1      10.732  -0.258  -5.429  0.00  0.00     0.063 A 
ATOM     14 CL   UNL d   1      11.261  -1.444  -4.286  0.00  0.00    -0.082 Cl
ENDBRANCH   5   7
ENDBRANCH   3   5
BRANCH   1  15
ATOM     15  C   UNL d   1       5.331   0.181  -2.765  0.00  0.00     0.311 C 
ATOM     16  N   UNL d   1       4.650   0.119  -1.551  0.00  0.00    -0.348 N 
ATOM     17  H   UNL d   1       5.218   0.144  -0.707  0.00  0.00     0.163 HD
ATOM     18  O   UNL d   1       4.795   0.227  -3.870  0.00  0.00    -0.262 OA
BRANCH  16  19
ATOM     19  C   UNL d   1       3.184   0.218  -1.431  0.00  0.00     0.084 C 
ATOM     20  C   UNL d   1       2.728  -0.042   0.017  0.00  0.00     0.032 C 
BRANCH  19  21
ATOM     21  C   UNL d   1       2.598   1.558  -2.001  0.00  0.00    -0.000 C 
ATOM     22  C   UNL d   1       3.617   2.700  -2.079  0.00  0.00     0.011 C 
ATOM     23  C   UNL d   1       1.384   2.076  -1.213  0.00  0.00     0.011 C 
ENDBRANCH  19  21
ENDBRANCH  16  19
ENDBRANCH   1  15
TORSDOF 5
