@<TRIPOS>MOLECULE
*****
 53 57 0 0 0
SMALL
GASTEIGER

@<TRIPOS>ATOM
      1 N           1.0550    0.0453    0.1213 N.am    1  UNL1       -0.3293
      2 C           2.4143    0.1001    0.2424 C.2     1  UNL1        0.2105
      3 O           2.9575    0.7459    1.1262 O.2     1  UNL1       -0.2760
      4 C           3.1403   -0.6696   -0.8217 C.3     1  UNL1        0.0252
      5 C           4.6691   -0.5459   -0.7422 C.3     1  UNL1       -0.0285
      6 C           5.4295   -1.3236   -1.8490 C.3     1  UNL1        0.0212
      7 N           5.4237   -2.7598   -1.5155 N.3     1  UNL1       -0.2953
      8 C           4.7181   -3.4937   -2.5683 C.3     1  UNL1        0.1357
      9 C           3.4820   -4.2790   -2.0096 C.2     1  UNL1        0.2428
     10 O           2.5315   -3.8352   -1.3884 O.2     1  UNL1       -0.2730
     11 N           3.6161   -5.5965   -2.4113 N.am    1  UNL1       -0.2834
     12 C           4.8123   -5.7962   -3.0807 C.ar    1  UNL1        0.0390
     13 C           5.2369   -6.9456   -3.7040 C.ar    1  UNL1       -0.0388
     14 C           6.4421   -6.8841   -4.4135 C.ar    1  UNL1       -0.0416
     15 C           7.1936   -5.6960   -4.4623 C.ar    1  UNL1        0.0414
     16 CL          8.6093   -5.6226   -5.4400 Cl      1  UNL1       -0.0835
     17 C           6.7708   -4.5526   -3.7888 C.ar    1  UNL1       -0.0362
     18 C           5.5534   -4.6142   -3.1202 C.ar    1  UNL1        0.0048
     19 C           4.1881   -2.4936   -3.5810 C.3     1  UNL1        0.0795
     20 C           4.6326   -2.6858   -5.0026 C.2     1  UNL1        0.2285
     21 O           4.7229   -3.7396   -5.5783 O.2     1  UNL1       -0.2748
     22 N           4.9716   -1.4729   -5.5343 N.am    1  UNL1       -0.2371
     23 C           5.2531   -1.5333   -7.0001 C.3     1  UNL1        0.0487
     24 C           4.7852   -0.4584   -7.9852 C.ar    1  UNL1       -0.0113
     25 C           4.5620   -0.8005   -9.3622 C.ar    1  UNL1       -0.0557
     26 C           4.5104    0.1889  -10.3661 C.ar    1  UNL1       -0.0614
     27 C           4.5653    1.5279  -10.0149 C.ar    1  UNL1       -0.0604
     28 C           4.5983    1.8673   -8.6752 C.ar    1  UNL1       -0.0431
     29 C           4.7424    0.9012   -7.6805 C.ar    1  UNL1        0.0457
     30 CL          4.8757    1.5853   -6.1199 Cl      1  UNL1       -0.0832
     31 C           5.5489   -0.7940   -4.4734 C.2     1  UNL1        0.2275
     32 O           6.4993   -0.0287   -4.4404 O.2     1  UNL1       -0.2748
     33 C           4.7682   -1.1548   -3.2218 C.3     1  UNL1        0.0651
     34 H           0.5053    0.5468    0.8043 H       1  UNL1        0.1449
     35 H           0.5776   -0.4962   -0.5879 H       1  UNL1        0.1449
     36 H           2.7454   -0.2860   -1.7661 H       1  UNL1        0.0359
     37 H           2.8454   -1.7116   -0.7366 H       1  UNL1        0.0359
     38 H           5.0045   -0.8814    0.2514 H       1  UNL1        0.0285
     39 H           4.9519    0.5112   -0.8045 H       1  UNL1        0.0285
     40 H           6.4755   -0.9929   -1.8504 H       1  UNL1        0.0468
     41 H           5.0264   -2.9554   -0.5938 H       1  UNL1        0.1235
     42 H           2.9031   -6.2873   -2.2335 H       1  UNL1        0.1549
     43 H           4.6416   -7.8499   -3.6912 H       1  UNL1        0.0637
     44 H           6.7866   -7.7599   -4.9558 H       1  UNL1        0.0633
     45 H           7.3064   -3.6136   -3.8928 H       1  UNL1        0.0636
     46 H           3.0953   -2.4212   -3.5861 H       1  UNL1        0.0429
     47 H           4.7450   -2.4405   -7.3692 H       1  UNL1        0.0519
     48 H           6.3240   -1.7103   -7.1383 H       1  UNL1        0.0519
     49 H           4.4584   -1.8359   -9.7016 H       1  UNL1        0.0621
     50 H           4.4536   -0.0688  -11.4241 H       1  UNL1        0.0618
     51 H           4.5793    2.3196  -10.7575 H       1  UNL1        0.0618
     52 H           4.5591    2.9108   -8.3790 H       1  UNL1        0.0632
     53 H           3.9969   -0.3835   -3.1851 H       1  UNL1        0.0418
@<TRIPOS>BOND
     1     1     2   am
     2     2     3    2
     3     2     4    1
     4     4     5    1
     5     5     6    1
     6     6     7    1
     7     7     8    1
     8     8     9    1
     9     9    10    2
    10     9    11   am
    11    11    12    1
    12    12    13   ar
    13    13    14   ar
    14    14    15   ar
    15    15    16    1
    16    15    17   ar
    17    17    18   ar
    18    12    18   ar
    19     8    18    1
    20     8    19    1
    21    19    20    1
    22    20    21    2
    23    20    22   am
    24    22    23    1
    25    23    24    1
    26    24    25   ar
    27    25    26   ar
    28    26    27   ar
    29    27    28   ar
    30    28    29   ar
    31    24    29   ar
    32    29    30    1
    33    22    31   am
    34    31    32    2
    35    31    33    1
    36    19    33    1
    37     6    33    1
    38     1    34    1
    39     1    35    1
    40     4    36    1
    41     4    37    1
    42     5    38    1
    43     5    39    1
    44     6    40    1
    45     7    41    1
    46    11    42    1
    47    13    43    1
    48    14    44    1
    49    17    45    1
    50    19    46    1
    51    23    47    1
    52    23    48    1
    53    25    49    1
    54    26    50    1
    55    27    51    1
    56    28    52    1
    57    33    53    1
