REMARK  7 active torsions:
REMARK  status: ('A' for Active; 'I' for Inactive)
REMARK    1  A    between atoms: C_7  and  N_8 
REMARK       I    between atoms: N_8  and  C_9 
REMARK    2  A    between atoms: C_9  and  C_11 
REMARK    3  A    between atoms: C_11  and  N_12 
REMARK    4  A    between atoms: N_15  and  C_16 
REMARK    5  A    between atoms: C_16  and  C_17 
REMARK    6  A    between atoms: C_28  and  C_29 
REMARK       I    between atoms: C_29  and  N_31 
REMARK    7  A    between atoms: N_31  and  N_32 
ROOT
ATOM      1  N   UNL d   1       4.719   3.430  -0.047  0.00  0.00    -0.283 N 
ATOM      2  C   UNL d   1       5.567   4.545  -0.148  0.00  0.00     0.333 A 
ATOM      3  O   UNL d   1       5.092   5.684  -0.214  0.00  0.00    -0.246 OA
ATOM      4  N   UNL d   1       6.951   4.332  -0.085  0.00  0.00    -0.261 N 
ATOM      5  C   UNL d   1       7.612   3.124  -0.023  0.00  0.00     0.265 A 
ATOM      6  O   UNL d   1       8.833   3.023   0.015  0.00  0.00    -0.267 OA
ATOM      7  C   UNL d   1       6.779   1.973  -0.008  0.00  0.00     0.074 A 
ATOM      8  C   UNL d   1       7.231   0.579   0.015  0.00  0.00    -0.021 A 
ATOM      9  C   UNL d   1       8.631   0.171   0.036  0.00  0.00     0.051 C 
ATOM     10  C   UNL d   1       6.216  -0.349   0.007  0.00  0.00     0.083 A 
ATOM     11  S   UNL d   1       4.855   0.572   0.028  0.00  0.00    -0.065 SA
ATOM     12  C   UNL d   1       5.421   2.148  -0.010  0.00  0.00     0.098 A 
ENDROOT
BRANCH   1  13
ATOM     13  C   UNL d   1       3.192   3.876  -0.005  0.00  0.00     0.237 C 
BRANCH  13  14
ATOM     14  C   UNL d   1       2.201   2.766  -0.016  0.00  0.00     0.240 C 
ATOM     15  N   UNL d   1       0.870   2.610   0.028  0.00  0.00    -0.325 N 
ATOM     16  H   UNL d   1       0.270   3.422   0.009  0.00  0.00     0.169 HD
ATOM     17  O   UNL d   1       2.813   1.734  -0.154  0.00  0.00    -0.271 OA
BRANCH  15  18
ATOM     18  C   UNL d   1       0.222   1.268   0.010  0.00  0.00     0.040 A 
ATOM     19  C   UNL d   1      -1.165   1.257   0.002  0.00  0.00     0.030 A 
ATOM     20  C   UNL d   1      -1.887   0.042  -0.008  0.00  0.00     0.002 A 
ATOM     21  C   UNL d   1      -1.263  -1.202  -0.000  0.00  0.00     0.001 A 
ATOM     22  C   UNL d   1       0.095  -1.245   0.006  0.00  0.00     0.009 A 
ATOM     23  C   UNL d   1       0.816  -0.048   0.007  0.00  0.00    -0.035 A 
ATOM     24  C   UNL d   1       2.245  -0.406  -0.002  0.00  0.00     0.050 C 
ENDBRANCH  15  18
ENDBRANCH  13  14
ENDBRANCH   1  13
BRANCH   4  25
ATOM     25  C   UNL d   1       7.834   5.475   0.010  0.00  0.00     0.175 C 
BRANCH  25  26
ATOM     26  C   UNL d   1       7.681   6.249   1.298  0.00  0.00    -0.040 A 
ATOM     27  C   UNL d   1       8.470   7.383   1.506  0.00  0.00     0.009 A 
ATOM     28  C   UNL d   1       8.295   8.145   2.660  0.00  0.00     0.001 A 
ATOM     29  C   UNL d   1       7.329   7.789   3.604  0.00  0.00     0.000 A 
ATOM     30  C   UNL d   1       6.550   6.659   3.413  0.00  0.00     0.001 A 
ATOM     31  C   UNL d   1       6.753   5.880   2.287  0.00  0.00     0.009 A 
ENDBRANCH  25  26
ENDBRANCH   4  25
BRANCH  10  32
ATOM     32  C   UNL d   1       6.144  -1.833   0.007  0.00  0.00     0.273 C 
ATOM     33  O   UNL d   1       5.103  -2.499   0.004  0.00  0.00    -0.266 OA
ATOM     34  N   UNL d   1       7.379  -2.496   0.027  0.00  0.00    -0.289 N 
ATOM     35  H   UNL d   1       8.235  -1.977  -0.024  0.00  0.00     0.183 HD
BRANCH  34  36
ATOM     36  N   UNL d   1       7.527  -3.893  -0.022  0.00  0.00    -0.247 NA
ATOM     37  H   UNL d   1       6.594  -4.316   0.016  0.00  0.00     0.143 HD
ATOM     38  H   UNL d   1       8.008  -4.186   0.832  0.00  0.00     0.143 HD
ENDBRANCH  34  36
ENDBRANCH  10  32
TORSDOF 7
