@<TRIPOS>MOLECULE
*****
 37 38 0 0 0
SMALL
GASTEIGER

@<TRIPOS>ATOM
      1 C           0.9347   -0.1258    0.0617 C.3     1  UNL1       -0.0571
      2 C           2.4697   -0.0495    0.0644 C.3     1  UNL1       -0.0010
      3 C           2.9863   -0.1414   -1.3757 C.3     1  UNL1       -0.0571
      4 C           2.8861    1.2496    0.6741 C.ar    1  UNL1        0.0869
      5 C           2.4526    2.5113    0.2284 C.ar    1  UNL1        0.0132
      6 C           2.9748    3.4047    1.1169 C.ar    1  UNL1        0.2219
      7 C           2.8341    4.8327    1.2413 C.2     1  UNL1        0.2863
      8 O           3.4315    5.4738    2.0944 O.2     1  UNL1       -0.2664
      9 N           1.9234    5.4102    0.3323 N.am    1  UNL1       -0.2789
     10 C           1.7802    6.8015    0.1960 C.ar    1  UNL1        0.0339
     11 C           0.5741    7.4314   -0.1332 C.ar    1  UNL1       -0.0387
     12 C           0.5260    8.8452   -0.2652 C.ar    1  UNL1       -0.0387
     13 C           1.6908    9.6152   -0.0994 C.ar    1  UNL1        0.0349
     14 N           1.6503   11.0289   -0.0752 N.am    1  UNL1       -0.2696
     15 C           2.6110   11.9691    0.1785 C.2     1  UNL1        0.3013
     16 N           3.8980   11.6070    0.3796 N.am    1  UNL1       -0.3131
     17 O           2.3264   13.1654    0.1940 O.2     1  UNL1       -0.2527
     18 C           2.8773    8.9228    0.0608 C.ar    1  UNL1       -0.0387
     19 C           2.9232    7.5645    0.2817 C.ar    1  UNL1       -0.0387
     20 O           3.7430    2.7208    2.0204 O.2     1  UNL1       -0.3497
     21 N           3.6812    1.3527    1.7435 N.ar    1  UNL1       -0.0822
     22 H           0.5783   -1.0444   -0.4098 H       1  UNL1        0.0236
     23 H           0.4965    0.7158   -0.4905 H       1  UNL1        0.0236
     24 H           0.5413   -0.0772    1.0834 H       1  UNL1        0.0236
     25 H           2.8645   -0.8960    0.6403 H       1  UNL1        0.0360
     26 H           2.6390    0.7083   -1.9770 H       1  UNL1        0.0236
     27 H           2.6359   -1.0552   -1.8638 H       1  UNL1        0.0236
     28 H           4.0814   -0.1308   -1.4015 H       1  UNL1        0.0236
     29 H           1.8025    2.7120   -0.6059 H       1  UNL1        0.0676
     30 H           1.3712    4.8326   -0.2837 H       1  UNL1        0.1552
     31 H          -0.3477    6.8590   -0.2155 H       1  UNL1        0.0637
     32 H          -0.4281    9.3144   -0.5066 H       1  UNL1        0.0637
     33 H           0.7436   11.4669   -0.1981 H       1  UNL1        0.1564
     34 H           4.1135   10.7868    0.9202 H       1  UNL1        0.1465
     35 H           4.5276   12.3651    0.6060 H       1  UNL1        0.1465
     36 H           3.8486    9.3661   -0.0322 H       1  UNL1        0.0637
     37 H           3.8995    7.1243    0.4549 H       1  UNL1        0.0637
@<TRIPOS>BOND
     1     1     2    1
     2     2     3    1
     3     2     4    1
     4     4     5   ar
     5     5     6   ar
     6     6     7    1
     7     7     8    2
     8     7     9   am
     9     9    10    1
    10    10    11   ar
    11    11    12   ar
    12    12    13   ar
    13    13    14    1
    14    14    15   am
    15    15    16   am
    16    15    17    2
    17    13    18   ar
    18    18    19   ar
    19    10    19   ar
    20     6    20   ar
    21    20    21   ar
    22     4    21   ar
    23     1    22    1
    24     1    23    1
    25     1    24    1
    26     2    25    1
    27     3    26    1
    28     3    27    1
    29     3    28    1
    30     5    29    1
    31     9    30    1
    32    11    31    1
    33    12    32    1
    34    14    33    1
    35    16    34    1
    36    16    35    1
    37    18    36    1
    38    19    37    1
