@<TRIPOS>MOLECULE
*****
 42 44 0 0 0
SMALL
GASTEIGER

@<TRIPOS>ATOM
      1 O           1.1185   -0.0526    0.0521 O.2     1  UNL1       -0.2652
      2 C           2.3499   -0.0509    0.0430 C.2     1  UNL1        0.2993
      3 N           3.0665    0.5034   -1.0048 N.am    1  UNL1       -0.3073
      4 C           2.3446    1.0823   -2.1407 C.3     1  UNL1        0.0161
      5 C           3.2873    1.6165   -3.2142 C.3     1  UNL1       -0.0101
      6 C           2.5793    2.2369   -4.3751 C.ar    1  UNL1       -0.0209
      7 C           1.8663    1.5913   -5.3666 C.ar    1  UNL1        0.0060
      8 N           1.4139    2.5328   -6.2563 N.ar    1  UNL1       -0.3604
      9 C           1.8584    3.7832   -5.8907 C.ar    1  UNL1        0.0467
     10 C           1.7046    5.0275   -6.5166 C.ar    1  UNL1       -0.0378
     11 C           2.3082    6.1359   -5.9101 C.ar    1  UNL1       -0.0598
     12 C           3.0047    6.0115   -4.7112 C.ar    1  UNL1       -0.0611
     13 C           3.1280    4.7675   -4.0908 C.ar    1  UNL1       -0.0523
     14 C           2.5663    3.6285   -4.6991 C.ar    1  UNL1        0.0029
     15 C           3.1085   -0.6988    1.2332 C.2     1  UNL1        0.3031
     16 O           2.4263   -1.1718    2.1429 O.2     1  UNL1       -0.2648
     17 N           4.5146   -0.6692    1.2614 N.am    1  UNL1       -0.2775
     18 C           5.2235   -1.2324    2.3633 C.ar    1  UNL1        0.0403
     19 C           4.8294   -2.4678    2.8810 C.ar    1  UNL1       -0.0387
     20 C           5.4429   -3.0077    4.0125 C.ar    1  UNL1       -0.0350
     21 C           6.4701   -2.3262    4.6703 C.ar    1  UNL1        0.1179
     22 CL          7.0565   -3.1124    6.0950 Cl      1  UNL1       -0.0765
     23 C           6.9141   -1.1047    4.1413 C.ar    1  UNL1        0.2930
     24 N           7.9973   -0.3258    4.7743 N.pl3   1  UNL1        0.0812
     25 O           8.3111    0.7451    4.2337 O.2     1  UNL1        0.0415
     26 O           8.5503   -0.7578    5.7914 O.co2   1  UNL1       -0.5760
     27 C           6.3030   -0.5700    2.9658 C.ar    1  UNL1        0.0383
     28 H           4.0719    0.4816   -1.0308 H       1  UNL1        0.1492
     29 H           1.6956    1.8831   -1.7622 H       1  UNL1        0.0465
     30 H           1.6854    0.3108   -2.5592 H       1  UNL1        0.0465
     31 H           3.9339    0.8100   -3.5797 H       1  UNL1        0.0329
     32 H           3.9601    2.3518   -2.7555 H       1  UNL1        0.0329
     33 H           1.6482    0.5424   -5.5203 H       1  UNL1        0.0810
     34 H           0.8645    2.3366   -7.0822 H       1  UNL1        0.1653
     35 H           1.1580    5.1364   -7.4479 H       1  UNL1        0.0638
     36 H           2.2361    7.1126   -6.3829 H       1  UNL1        0.0618
     37 H           3.4669    6.8821   -4.2537 H       1  UNL1        0.0618
     38 H           3.6732    4.6791   -3.1570 H       1  UNL1        0.0624
     39 H           5.0080   -0.0415    0.6456 H       1  UNL1        0.1553
     40 H           4.0320   -3.0381    2.4075 H       1  UNL1        0.0637
     41 H           5.0906   -3.9675    4.3871 H       1  UNL1        0.0635
     42 H           6.6245    0.3961    2.5798 H       1  UNL1        0.0704
@<TRIPOS>UNITY_ATOM_ATTR
24 1
charge 1
26 1
charge -1
@<TRIPOS>BOND
     1     1     2    2
     2     2     3   am
     3     3     4    1
     4     4     5    1
     5     5     6    1
     6     6     7   ar
     7     7     8   ar
     8     8     9   ar
     9     9    10   ar
    10    10    11   ar
    11    11    12   ar
    12    12    13   ar
    13    13    14   ar
    14     6    14   ar
    15     9    14   ar
    16     2    15    1
    17    15    16    2
    18    15    17   am
    19    17    18    1
    20    18    19   ar
    21    19    20   ar
    22    20    21   ar
    23    21    22    1
    24    21    23   ar
    25    23    24    1
    26    24    25    2
    27    24    26    1
    28    23    27   ar
    29    18    27   ar
    30     3    28    1
    31     4    29    1
    32     4    30    1
    33     5    31    1
    34     5    32    1
    35     7    33    1
    36     8    34    1
    37    10    35    1
    38    11    36    1
    39    12    37    1
    40    13    38    1
    41    17    39    1
    42    19    40    1
    43    20    41    1
    44    27    42    1
