@<TRIPOS>MOLECULE
*****
 38 40 0 0 0
SMALL
GASTEIGER

@<TRIPOS>ATOM
      1 O           4.6934   -0.4551   -0.9450 O.2     1  UNL1       -0.2744
      2 C           4.4818    0.7446   -0.7216 C.2     1  UNL1        0.2303
      3 N           5.4411    1.7560   -0.7710 N.am    1  UNL1       -0.2847
      4 C           6.7565    1.5353   -1.1929 C.ar    1  UNL1        0.0335
      5 C           7.8246    2.2385   -0.6307 C.ar    1  UNL1       -0.0387
      6 C           9.1338    1.9919   -1.0788 C.ar    1  UNL1       -0.0388
      7 C           9.3761    1.0184   -2.0566 C.ar    1  UNL1        0.0314
      8 N          10.6807    0.6585   -2.4328 N.pl3   1  UNL1       -0.3145
      9 C          11.0355   -0.2734   -3.4245 C.ar    1  UNL1        0.0313
     10 C          11.7832   -1.4140   -3.1192 C.ar    1  UNL1       -0.0405
     11 C          12.1051   -2.3323   -4.1250 C.ar    1  UNL1       -0.0600
     12 C          11.6186   -2.1549   -5.4211 C.ar    1  UNL1       -0.0616
     13 C          10.8450   -1.0405   -5.7262 C.ar    1  UNL1       -0.0600
     14 C          10.5731   -0.1014   -4.7366 C.ar    1  UNL1       -0.0405
     15 C           8.2761    0.3779   -2.6355 C.ar    1  UNL1       -0.0388
     16 C           6.9864    0.6321   -2.2169 C.ar    1  UNL1       -0.0387
     17 C           3.0665    1.2213   -0.4754 C.3     1  UNL1        0.1009
     18 C           2.6455    1.7675   -1.8125 C.2     1  UNL1       -0.0649
     19 C           2.5224    3.0788   -2.0231 C.2     1  UNL1       -0.0488
     20 C           2.7053    3.9479   -0.8467 C.2     1  UNL1        0.0174
     21 N           2.9396    3.5788    0.3692 N.am    1  UNL1       -0.2184
     22 C           3.0110    2.2321    0.6691 C.2     1  UNL1        0.0897
     23 S           3.1936    1.6760    2.2556 S.2     1  UNL1       -0.0370
     24 H           5.2173    2.6909   -0.4439 H       1  UNL1        0.1548
     25 H           7.6708    2.9116    0.2099 H       1  UNL1        0.0637
     26 H           9.9593    2.5412   -0.6323 H       1  UNL1        0.0637
     27 H          11.4475    1.0448   -1.8994 H       1  UNL1        0.1522
     28 H          12.0798   -1.6232   -2.0943 H       1  UNL1        0.0636
     29 H          12.7274   -3.1940   -3.8972 H       1  UNL1        0.0618
     30 H          11.8337   -2.8895   -6.1920 H       1  UNL1        0.0618
     31 H          10.4525   -0.8931   -6.7276 H       1  UNL1        0.0618
     32 H           9.9673    0.7691   -4.9773 H       1  UNL1        0.0636
     33 H           8.3953   -0.3707   -3.4101 H       1  UNL1        0.0637
     34 H           6.1749    0.1078   -2.7102 H       1  UNL1        0.0637
     35 H           2.4205    0.3698   -0.2244 H       1  UNL1        0.0505
     36 H           2.5584    1.0594   -2.6354 H       1  UNL1        0.0584
     37 H           2.3447    3.5118   -2.9981 H       1  UNL1        0.0628
     38 H           2.6420    5.0271   -1.0576 H       1  UNL1        0.0802
@<TRIPOS>BOND
     1     1     2    2
     2     2     3   am
     3     3     4    1
     4     4     5   ar
     5     5     6   ar
     6     6     7   ar
     7     7     8    1
     8     8     9    1
     9     9    10   ar
    10    10    11   ar
    11    11    12   ar
    12    12    13   ar
    13    13    14   ar
    14     9    14   ar
    15     7    15   ar
    16    15    16   ar
    17     4    16   ar
    18    17    18    1
    19    18    19    2
    20    19    20    1
    21    20    21    2
    22    21    22    1
    23    17    22    1
    24    22    23    2
    25    17     2    1
    26     3    24    1
    27     5    25    1
    28     6    26    1
    29     8    27    1
    30    10    28    1
    31    11    29    1
    32    12    30    1
    33    13    31    1
    34    14    32    1
    35    15    33    1
    36    16    34    1
    37    17    35    1
    38    18    36    1
    39    19    37    1
    40    20    38    1
