REMARK  11 active torsions:
REMARK  status: ('A' for Active; 'I' for Inactive)
REMARK    1  A    between atoms: C_6  and  O_7 
REMARK    2  A    between atoms: O_7  and  C_8 
REMARK    3  A    between atoms: C_8  and  C_10 
REMARK    4  A    between atoms: C_10  and  C_11 
REMARK    5  A    between atoms: C_10  and  N_21 
REMARK    6  A    between atoms: C_11  and  C_12 
REMARK       I    between atoms: N_21  and  C_22 
REMARK    7  A    between atoms: C_22  and  O_24 
REMARK    8  A    between atoms: O_24  and  C_25 
REMARK    9  A    between atoms: C_25  and  C_26 
REMARK   10  A    between atoms: C_37  and  O_38 
REMARK   11  A    between atoms: O_38  and  C_39 
ROOT
ATOM      1  C   UNL d   1       4.827   4.417   0.425  0.00  0.00     0.191 C 
ENDROOT
BRANCH   1   2
ATOM      2  C   UNL d   1       3.496   3.624   0.483  0.00  0.00     0.287 C 
ATOM      3  O   UNL d   1       2.460   4.182   0.111  0.00  0.00    -0.262 OA
BRANCH   2   4
ATOM      4  O   UNL d   1       3.575   2.272   0.955  0.00  0.00    -0.277 OA
BRANCH   4   5
ATOM      5  C   UNL d   1       2.504   1.296   0.793  0.00  0.00     0.082 C 
ATOM      6  C   UNL d   1       1.291   1.707   0.290  0.00  0.00     0.075 C 
ATOM      7  C   UNL d   1       0.289   0.795   0.032  0.00  0.00     0.092 C 
ATOM      8  O   UNL d   1      -0.877   1.371  -0.326  0.00  0.00    -0.311 OA
ATOM      9  C   UNL d   1       0.460  -0.566   0.139  0.00  0.00     0.051 C 
ATOM     10  C   UNL d   1      -2.021   0.693  -0.013  0.00  0.00     0.087 C 
ATOM     11  C   UNL d   1      -3.113   1.703   0.131  0.00  0.00     0.080 C 
ATOM     12  C   UNL d   1      -2.072  -0.661   0.093  0.00  0.00     0.156 C 
ATOM     13  C   UNL d   1      -0.751  -1.402  -0.002  0.00  0.00     0.221 C 
ATOM     14  O   UNL d   1      -0.668  -2.623  -0.072  0.00  0.00    -0.284 OA
ATOM     15  C   UNL d   1       1.725  -1.037   0.464  0.00  0.00     0.021 C 
ATOM     16  C   UNL d   1       2.721  -0.102   0.893  0.00  0.00     0.038 C 
BRANCH  12  17
ATOM     17  O   UNL d   1      -3.186  -1.460   0.339  0.00  0.00    -0.304 OA
BRANCH  17  18
ATOM     18  C   UNL d   1      -4.445  -0.915   0.308  0.00  0.00     0.076 C 
ATOM     19  C   UNL d   1      -5.218  -0.983   1.465  0.00  0.00     0.037 C 
ATOM     20  C   UNL d   1      -6.479  -0.385   1.483  0.00  0.00     0.003 C 
ATOM     21  C   UNL d   1      -6.901   0.396   0.405  0.00  0.00     0.000 C 
ATOM     22  C   UNL d   1      -6.122   0.470  -0.745  0.00  0.00     0.003 C 
ATOM     23  C   UNL d   1      -4.941  -0.271  -0.828  0.00  0.00     0.037 C 
ENDBRANCH  17  18
ENDBRANCH  12  17
ENDBRANCH   4   5
ENDBRANCH   2   4
ENDBRANCH   1   2
BRANCH   1  24
ATOM     24  C   UNL d   1       5.695   4.129  -0.825  0.00  0.00     0.076 C 
BRANCH  24  25
ATOM     25  C   UNL d   1       6.266   2.753  -0.899  0.00  0.00    -0.028 C 
ATOM     26  C   UNL d   1       7.592   2.376  -0.844  0.00  0.00     0.096 C 
ATOM     27  N   UNL d   1       7.646   1.005  -0.816  0.00  0.00    -0.365 N 
ATOM     28  C   UNL d   1       6.388   0.484  -0.995  0.00  0.00     0.042 A 
ATOM     29  H   UNL d   1       8.489   0.451  -0.781  0.00  0.00     0.165 HD
ATOM     30  C   UNL d   1       5.929  -0.838  -1.016  0.00  0.00     0.030 A 
ATOM     31  C   UNL d   1       5.549   1.571  -1.216  0.00  0.00    -0.002 A 
ATOM     32  C   UNL d   1       4.595  -1.039  -1.372  0.00  0.00     0.002 A 
ATOM     33  C   UNL d   1       3.782   0.028  -1.751  0.00  0.00     0.001 A 
ATOM     34  C   UNL d   1       4.236   1.338  -1.638  0.00  0.00     0.014 A 
ENDBRANCH  24  25
ENDBRANCH   1  24
BRANCH   1  35
ATOM     35  N   UNL d   1       4.430   5.870   0.406  0.00  0.00    -0.323 N 
ATOM     36  C   UNL d   1       5.341   6.898   0.475  0.00  0.00     0.361 C 
ATOM     37  O   UNL d   1       6.532   6.739   0.605  0.00  0.00    -0.238 OA
ATOM     38  H   UNL d   1       3.452   6.096   0.247  0.00  0.00     0.165 HD
BRANCH  36  39
ATOM     39  O   UNL d   1       4.732   8.114   0.369  0.00  0.00    -0.299 OA
BRANCH  39  40
ATOM     40  C   UNL d   1       5.641   9.242   0.468  0.00  0.00     0.219 C 
BRANCH  40  41
ATOM     41  C   UNL d   1       4.897  10.568   0.464  0.00  0.00    -0.034 A 
ATOM     42  C   UNL d   1       5.577  11.793   0.321  0.00  0.00     0.009 A 
ATOM     43  C   UNL d   1       4.896  13.009   0.477  0.00  0.00     0.001 A 
ATOM     44  C   UNL d   1       3.520  13.017   0.693  0.00  0.00     0.000 A 
ATOM     45  C   UNL d   1       2.833  11.814   0.807  0.00  0.00     0.001 A 
ATOM     46  C   UNL d   1       3.518  10.604   0.708  0.00  0.00     0.009 A 
ENDBRANCH  40  41
ENDBRANCH  39  40
ENDBRANCH  36  39
ENDBRANCH   1  35
TORSDOF 11
