REMARK  6 active torsions:
REMARK  status: ('A' for Active; 'I' for Inactive)
REMARK       I    between atoms: N_1  and  C_2 
REMARK       I    between atoms: C_2  and  N_4 
REMARK    1  A    between atoms: N_4  and  C_5 
REMARK    2  A    between atoms: C_9  and  C_10 
REMARK    3  A    between atoms: C_10  and  O_12 
REMARK    4  A    between atoms: O_12  and  C_13 
REMARK    5  A    between atoms: C_16  and  N_17 
REMARK       I    between atoms: N_17  and  C_18 
REMARK    6  A    between atoms: C_18  and  C_20 
ROOT
ATOM      1  O   UNL d   1       6.658  -2.874   1.048  0.00  0.00    -0.275 OA
ENDROOT
BRANCH   1   2
ATOM      2  C   UNL d   1       7.465  -2.012   0.312  0.00  0.00     0.298 C 
ATOM      3  O   UNL d   1       8.686  -2.072   0.199  0.00  0.00    -0.259 OA
BRANCH   2   4
ATOM      4  C   UNL d   1       6.677  -0.990  -0.427  0.00  0.00     0.042 A 
ATOM      5  C   UNL d   1       7.364  -0.157  -1.323  0.00  0.00     0.018 A 
ATOM      6  C   UNL d   1       6.668   0.740  -2.133  0.00  0.00     0.003 A 
ATOM      7  C   UNL d   1       5.277   0.843  -2.028  0.00  0.00     0.029 A 
ATOM      8  C   UNL d   1       4.583   0.040  -1.114  0.00  0.00     0.037 A 
ATOM      9  C   UNL d   1       5.290  -0.866  -0.310  0.00  0.00     0.047 A 
BRANCH   8  10
ATOM     10  N   UNL d   1       3.172   0.093  -1.054  0.00  0.00    -0.309 N 
ATOM     11  C   UNL d   1       2.478  -0.002   0.126  0.00  0.00     0.318 C 
ATOM     12  N   UNL d   1       1.130   0.021  -0.006  0.00  0.00    -0.352 N 
ATOM     13  O   UNL d   1       2.962  -0.077   1.249  0.00  0.00    -0.247 OA
ATOM     14  H   UNL d   1       0.611  -0.038   0.861  0.00  0.00     0.160 HD
ATOM     15  H   UNL d   1       0.622   0.047  -0.874  0.00  0.00     0.160 HD
ATOM     16  H   UNL d   1       2.672   0.406  -1.873  0.00  0.00     0.170 HD
ENDBRANCH   8  10
ENDBRANCH   2   4
ENDBRANCH   1   2
BRANCH   1  17
ATOM     17  C   UNL d   1       7.262  -3.791   1.940  0.00  0.00     0.079 A 
ATOM     18  C   UNL d   1       6.625  -5.008   2.194  0.00  0.00     0.039 A 
ATOM     19  C   UNL d   1       7.138  -5.890   3.177  0.00  0.00     0.032 A 
ATOM     20  C   UNL d   1       8.329  -5.589   3.860  0.00  0.00     0.035 A 
ATOM     21  C   UNL d   1       8.924  -4.356   3.588  0.00  0.00     0.032 A 
ATOM     22  C   UNL d   1       8.401  -3.463   2.655  0.00  0.00     0.039 A 
BRANCH  20  23
ATOM     23  N   UNL d   1       8.918  -6.526   4.768  0.00  0.00    -0.321 N 
ATOM     24  C   UNL d   1      10.120  -6.329   5.458  0.00  0.00     0.279 C 
ATOM     25  O   UNL d   1      10.783  -5.285   5.410  0.00  0.00    -0.265 OA
ATOM     26  H   UNL d   1       8.430  -7.402   4.910  0.00  0.00     0.169 HD
BRANCH  24  27
ATOM     27  C   UNL d   1      10.623  -7.421   6.267  0.00  0.00     0.142 A 
ATOM     28  C   UNL d   1      10.705  -8.791   6.091  0.00  0.00     0.045 A 
ATOM     29  C   UNL d   1      11.500  -9.294   7.158  0.00  0.00     0.027 A 
ATOM     30  C   UNL d   1      11.828  -8.214   7.939  0.00  0.00     0.143 A 
ATOM     31  O   UNL d   1      11.306  -7.082   7.411  0.00  0.00    -0.317 OA
ENDBRANCH  24  27
ENDBRANCH  20  23
ENDBRANCH   1  17
TORSDOF 6
