@<TRIPOS>MOLECULE
*****
 57 59 0 0 0
SMALL
GASTEIGER

@<TRIPOS>ATOM
      1 C           1.0248    0.1522    0.0475 C.3     1  UNL1       -0.0470
      2 C           2.5423    0.2076   -0.0103 C.3     1  UNL1        0.0240
      3 N           3.0477    0.1701   -1.3551 N.ar    1  UNL1       -0.3050
      4 C           3.3281    1.2410   -2.2071 C.ar    1  UNL1        0.1512
      5 C           3.2109    2.7505   -1.9803 C.3     1  UNL1        0.0692
      6 N           2.8430    3.2150   -0.6566 N.pl3   1  UNL1       -0.3367
      7 C           2.5989    4.4947   -0.2186 C.ar    1  UNL1        0.0275
      8 C           2.0086    5.5005   -0.9743 C.ar    1  UNL1       -0.0406
      9 C           1.7666    6.7627   -0.4103 C.ar    1  UNL1       -0.0571
     10 C           2.1401    7.0476    0.9091 C.ar    1  UNL1       -0.0503
     11 C           1.9132    8.4047    1.5048 C.3     1  UNL1       -0.0397
     12 C           2.7456    6.0459    1.6662 C.ar    1  UNL1       -0.0571
     13 C           2.9580    4.7864    1.1073 C.ar    1  UNL1       -0.0406
     14 N           3.7432    0.7307   -3.3545 N.ar    1  UNL1       -0.1319
     15 N           3.7377   -0.6384   -3.2630 N.ar    1  UNL1       -0.1224
     16 C           3.3238   -0.9839   -2.0622 C.ar    1  UNL1        0.1921
     17 S           3.1713   -2.6687   -1.6053 S.3     1  UNL1       -0.0766
     18 C           2.6218   -2.8968    0.1093 C.3     1  UNL1        0.0790
     19 C           2.4749   -4.3613    0.5229 C.2     1  UNL1        0.2394
     20 O           2.7360   -5.3311   -0.1942 O.2     1  UNL1       -0.2734
     21 N           2.0277   -4.5462    1.8220 N.am    1  UNL1       -0.2337
     22 N           1.9101   -5.8690    2.3378 N.am    1  UNL1       -0.2341
     23 C           1.3933   -5.9846    3.6125 C.2     1  UNL1        0.2334
     24 O           1.0544   -4.9345    4.1672 O.2     1  UNL1       -0.2739
     25 C           1.2641   -7.4097    4.2101 C.3     1  UNL1        0.0505
     26 C           1.0252   -7.5199    5.7221 C.ar    1  UNL1       -0.0386
     27 C           0.9563   -8.7726    6.3643 C.ar    1  UNL1       -0.0581
     28 C           0.7137   -8.8613    7.7494 C.ar    1  UNL1       -0.0615
     29 C           0.5314   -7.7111    8.5151 C.ar    1  UNL1       -0.0617
     30 C           0.5981   -6.4748    7.9024 C.ar    1  UNL1       -0.0615
     31 C           0.8412   -6.3924    6.5350 C.ar    1  UNL1       -0.0581
     32 H           0.6906    0.0788    1.0864 H       1  UNL1        0.0247
     33 H           0.6254   -0.7158   -0.4906 H       1  UNL1        0.0247
     34 H           0.5715    1.0358   -0.4089 H       1  UNL1        0.0247
     35 H           2.9813   -0.6155    0.5332 H       1  UNL1        0.0490
     36 H           2.9756    1.0295    0.5492 H       1  UNL1        0.0490
     37 H           2.5329    3.1596   -2.7412 H       1  UNL1        0.0542
     38 H           4.1980    3.1826   -2.2064 H       1  UNL1        0.0542
     39 H           2.4797    2.5507   -0.0080 H       1  UNL1        0.1465
     40 H           1.6792    5.3124   -1.9913 H       1  UNL1        0.0636
     41 H           1.2776    7.5250   -1.0125 H       1  UNL1        0.0621
     42 H           1.4086    9.0703    0.7975 H       1  UNL1        0.0278
     43 H           2.8708    8.8627    1.7731 H       1  UNL1        0.0278
     44 H           1.2869    8.3295    2.3999 H       1  UNL1        0.0278
     45 H           3.0620    6.2343    2.6892 H       1  UNL1        0.0621
     46 H           3.4411    4.0221    1.7130 H       1  UNL1        0.0636
     47 H           1.6427   -2.4347    0.2500 H       1  UNL1        0.0476
     48 H           3.3584   -2.4695    0.7963 H       1  UNL1        0.0476
     49 H           1.7785   -3.8037    2.4822 H       1  UNL1        0.1728
     50 H           2.1255   -6.6339    1.7015 H       1  UNL1        0.1728
     51 H           2.1754   -7.9731    3.9659 H       1  UNL1        0.0407
     52 H           0.4261   -7.9034    3.6992 H       1  UNL1        0.0407
     53 H           1.0853   -9.7010    5.8096 H       1  UNL1        0.0620
     54 H           0.6624   -9.8304    8.2409 H       1  UNL1        0.0618
     55 H           0.3369   -7.7664    9.5818 H       1  UNL1        0.0618
     56 H           0.4620   -5.5545    8.4632 H       1  UNL1        0.0618
     57 H           0.8712   -5.3840    6.1508 H       1  UNL1        0.0620
@<TRIPOS>BOND
     1     1     2    1
     2     2     3    1
     3     3     4   ar
     4     4     5    1
     5     5     6    1
     6     6     7    1
     7     7     8   ar
     8     8     9   ar
     9     9    10   ar
    10    10    11    1
    11    10    12   ar
    12    12    13   ar
    13     7    13   ar
    14     4    14   ar
    15    14    15   ar
    16    15    16   ar
    17     3    16   ar
    18    16    17    1
    19    17    18    1
    20    18    19    1
    21    19    20    2
    22    19    21   am
    23    21    22    1
    24    22    23   am
    25    23    24    2
    26    23    25    1
    27    25    26    1
    28    26    27   ar
    29    27    28   ar
    30    28    29   ar
    31    29    30   ar
    32    30    31   ar
    33    26    31   ar
    34     1    32    1
    35     1    33    1
    36     1    34    1
    37     2    35    1
    38     2    36    1
    39     5    37    1
    40     5    38    1
    41     6    39    1
    42     8    40    1
    43     9    41    1
    44    11    42    1
    45    11    43    1
    46    11    44    1
    47    12    45    1
    48    13    46    1
    49    18    47    1
    50    18    48    1
    51    21    49    1
    52    22    50    1
    53    25    51    1
    54    25    52    1
    55    27    53    1
    56    28    54    1
    57    29    55    1
    58    30    56    1
    59    31    57    1
