REMARK  7 active torsions:
REMARK  status: ('A' for Active; 'I' for Inactive)
REMARK    1  A    between atoms: C_8  and  N_9 
REMARK       I    between atoms: N_9  and  C_10 
REMARK    2  A    between atoms: C_10  and  C_12 
REMARK    3  A    between atoms: C_12  and  N_13 
REMARK    4  A    between atoms: N_13  and  C_14 
REMARK    5  A    between atoms: C_17  and  C_18 
REMARK       I    between atoms: C_18  and  N_20 
REMARK    6  A    between atoms: N_20  and  C_21 
REMARK    7  A    between atoms: C_21  and  C_22 
ROOT
ATOM      1  C   UNL d   1      -1.709   7.445  -0.072  0.00  0.00     0.028 A 
ATOM      2  C   UNL d   1      -0.984   8.400  -0.792  0.00  0.00     0.030 A 
ATOM      3  C   UNL d   1      -1.277   9.764  -0.671  0.00  0.00     0.019 A 
ATOM      4  C   UNL d   1      -2.320  10.191   0.160  0.00  0.00     0.032 A 
ATOM      5  C   UNL d   1      -2.990   9.235   0.935  0.00  0.00     0.019 A 
ATOM      6  C   UNL d   1      -2.677   7.882   0.820  0.00  0.00     0.030 A 
ENDROOT
BRANCH   1   7
ATOM      7  N   UNL d   1      -1.474   6.116  -0.296  0.00  0.00    -0.381 N 
ATOM      8  H   UNL d   1      -0.502   5.808  -0.127  0.00  0.00     0.160 HD
BRANCH   7   9
ATOM      9  C   UNL d   1      -2.448   5.017  -0.093  0.00  0.00     0.223 C 
BRANCH   9  10
ATOM     10  C   UNL d   1      -1.612   3.747  -0.027  0.00  0.00     0.239 C 
ATOM     11  N   UNL d   1      -2.210   2.497  -0.035  0.00  0.00    -0.325 N 
ATOM     12  H   UNL d   1      -3.226   2.481  -0.055  0.00  0.00     0.169 HD
ATOM     13  O   UNL d   1      -0.405   4.002   0.057  0.00  0.00    -0.271 OA
BRANCH  11  14
ATOM     14  C   UNL d   1      -1.570   1.192  -0.011  0.00  0.00     0.042 A 
ATOM     15  C   UNL d   1      -2.419   0.059  -0.011  0.00  0.00     0.030 A 
ATOM     16  C   UNL d   1      -1.901  -1.251   0.004  0.00  0.00     0.004 A 
ATOM     17  C   UNL d   1      -0.530  -1.465   0.013  0.00  0.00     0.024 A 
ATOM     18  C   UNL d   1       0.328  -0.380   0.008  0.00  0.00     0.042 A 
ATOM     19  C   UNL d   1      -0.166   0.943   0.002  0.00  0.00    -0.013 A 
ATOM     20 CL   UNL d   1       2.026  -0.741   0.005  0.00  0.00    -0.084 Cl
ATOM     21  C   UNL d   1       0.857   2.028   0.013  0.00  0.00     0.052 C 
ENDBRANCH  11  14
ENDBRANCH   9  10
ENDBRANCH   7   9
ENDBRANCH   1   7
BRANCH   4  22
ATOM     22  C   UNL d   1      -2.710  11.642   0.137  0.00  0.00     0.251 C 
ATOM     23  O   UNL d   1      -2.114  12.437  -0.581  0.00  0.00    -0.268 OA
ATOM     24  N   UNL d   1      -3.777  12.013   0.922  0.00  0.00    -0.351 N 
ATOM     25  H   UNL d   1      -4.228  11.329   1.499  0.00  0.00     0.163 HD
BRANCH  24  26
ATOM     26  C   UNL d   1      -4.303  13.367   0.966  0.00  0.00     0.187 C 
BRANCH  26  27
ATOM     27  C   UNL d   1      -5.482  13.402   1.886  0.00  0.00     0.070 A 
ATOM     28  C   UNL d   1      -6.280  12.418   2.441  0.00  0.00     0.036 A 
ATOM     29  C   UNL d   1      -7.243  13.065   3.242  0.00  0.00     0.027 A 
ATOM     30  C   UNL d   1      -6.999  14.411   3.116  0.00  0.00     0.142 A 
ATOM     31  O   UNL d   1      -5.932  14.629   2.298  0.00  0.00    -0.325 OA
ENDBRANCH  26  27
ENDBRANCH  24  26
ENDBRANCH   4  22
TORSDOF 7
