@<TRIPOS>MOLECULE
*****
 49 50 0 0 0
SMALL
GASTEIGER

@<TRIPOS>ATOM
      1 C           0.6843    0.0920   -0.3230 C.3     1  UNL1       -0.0307
      2 C           2.1982    0.1743   -0.4340 C.3     1  UNL1        0.0870
      3 O           2.8519   -0.8866   -1.1364 O.3     1  UNL1       -0.4885
      4 C           4.2418   -1.0051   -1.0827 C.ar    1  UNL1        0.1636
      5 C           4.8483   -1.2071   -2.3806 C.ar    1  UNL1        0.0050
      6 C           6.2116   -1.5801   -2.5369 C.ar    1  UNL1        0.0385
      7 N           6.7876   -1.9972   -3.7942 N.am    1  UNL1       -0.2694
      8 C           8.0779   -2.5350   -3.9138 C.2     1  UNL1        0.3039
      9 O           8.8947   -2.6703   -3.0248 O.2     1  UNL1       -0.2525
     10 N           8.4410   -2.9324   -5.1871 N.am    1  UNL1       -0.2977
     11 C           9.8030   -3.4732   -5.3698 C.3     1  UNL1        0.0285
     12 C          10.1297   -3.9047   -6.8052 C.3     1  UNL1        0.0247
     13 N          11.4788   -4.4496   -6.9420 N.pl3   1  UNL1       -0.3423
     14 C          11.9900   -4.8537   -8.1638 C.ar    1  UNL1        0.0276
     15 C          12.7268   -6.0441   -8.2575 C.ar    1  UNL1       -0.0344
     16 C          13.2592   -6.4803   -9.4801 C.ar    1  UNL1        0.0173
     17 C          12.9939   -5.7521  -10.6437 C.ar    1  UNL1        0.2733
     18 N          13.4212   -6.2718  -11.9496 N.pl3   1  UNL1        0.0796
     19 O          14.0330   -7.3492  -11.9707 O.2     1  UNL1        0.0414
     20 O          13.1206   -5.6157  -12.9581 O.co2   1  UNL1       -0.5760
     21 C          12.2630   -4.5635  -10.5755 C.ar    1  UNL1        0.0173
     22 C          11.7606   -4.1325   -9.3417 C.ar    1  UNL1       -0.0344
     23 C           6.9835   -1.6001   -1.3860 C.ar    1  UNL1       -0.0367
     24 C           6.4257   -1.4356   -0.1321 C.ar    1  UNL1       -0.0146
     25 C           5.0673   -1.1755    0.0561 C.ar    1  UNL1        0.1616
     26 O           4.8634   -1.2278    1.4120 O.3     1  UNL1       -0.4915
     27 C           3.6361   -0.7828    1.8832 C.3     1  UNL1        0.0790
     28 H           0.3603    0.7750    0.4819 H       1  UNL1        0.0262
     29 H           0.3830   -0.9128    0.0039 H       1  UNL1        0.0262
     30 H           0.1683    0.3545   -1.2394 H       1  UNL1        0.0262
     31 H           2.3006    0.0370    0.6041 H       1  UNL1        0.0694
     32 H           2.6196    1.1606   -0.6422 H       1  UNL1        0.0694
     33 H           4.2166   -1.0867   -3.2598 H       1  UNL1        0.0674
     34 H           6.1708   -2.0362   -4.5903 H       1  UNL1        0.1564
     35 H           7.7875   -2.9252   -5.9517 H       1  UNL1        0.1503
     36 H           9.9387   -4.3203   -4.6828 H       1  UNL1        0.0478
     37 H          10.5139   -2.7002   -5.0466 H       1  UNL1        0.0478
     38 H           9.9961   -3.0373   -7.4575 H       1  UNL1        0.0476
     39 H           9.4100   -4.6727   -7.1097 H       1  UNL1        0.0476
     40 H          12.0676   -4.5552   -6.1212 H       1  UNL1        0.1461
     41 H          12.8603   -6.6713   -7.3778 H       1  UNL1        0.0638
     42 H          13.8582   -7.3883   -9.5075 H       1  UNL1        0.0686
     43 H          12.0730   -3.9623  -11.4618 H       1  UNL1        0.0686
     44 H          11.2114   -3.1959   -9.3094 H       1  UNL1        0.0638
     45 H           8.0473   -1.7870   -1.3856 H       1  UNL1        0.0637
     46 H           7.0754   -1.5747    0.7312 H       1  UNL1        0.0656
     47 H           3.5029   -0.8182    2.9625 H       1  UNL1        0.0660
     48 H           2.8732   -1.4548    1.4705 H       1  UNL1        0.0660
     49 H           3.6052    0.2906    1.6556 H       1  UNL1        0.0660
@<TRIPOS>UNITY_ATOM_ATTR
18 1
charge 1
20 1
charge -1
@<TRIPOS>BOND
     1     1     2    1
     2     2     3    1
     3     3     4    1
     4     4     5   ar
     5     5     6   ar
     6     6     7    1
     7     7     8   am
     8     8     9    2
     9     8    10   am
    10    10    11    1
    11    11    12    1
    12    12    13    1
    13    13    14    1
    14    14    15   ar
    15    15    16   ar
    16    16    17   ar
    17    17    18    1
    18    18    19    2
    19    18    20    1
    20    17    21   ar
    21    21    22   ar
    22    14    22   ar
    23     6    23   ar
    24    23    24   ar
    25    24    25   ar
    26     4    25   ar
    27    25    26    1
    28    26    27    1
    29     1    28    1
    30     1    29    1
    31     1    30    1
    32     2    31    1
    33     2    32    1
    34     5    33    1
    35     7    34    1
    36    10    35    1
    37    11    36    1
    38    11    37    1
    39    12    38    1
    40    12    39    1
    41    13    40    1
    42    15    41    1
    43    16    42    1
    44    21    43    1
    45    22    44    1
    46    23    45    1
    47    24    46    1
    48    27    47    1
    49    27    48    1
    50    27    49    1
