@<TRIPOS>MOLECULE
*****
 60 63 0 0 0
SMALL
GASTEIGER

@<TRIPOS>ATOM
      1 O           1.1063    0.0751    0.0000 O.2     1  UNL1       -0.2717
      2 C           2.3326   -0.0513    0.0229 C.2     1  UNL1        0.2551
      3 C           3.0074   -1.3407    0.5460 C.3     1  UNL1        0.1683
      4 O           2.0914   -2.3678    0.9748 O.3     1  UNL1       -0.4551
      5 C           2.7052   -3.5426    1.3482 C.2     1  UNL1        0.3090
      6 O           3.9056   -3.6932    1.3716 O.2     1  UNL1       -0.2508
      7 C           1.6675   -4.6196    1.7117 C.3     1  UNL1        0.0605
      8 C           2.3389   -5.9382    2.1580 C.3     1  UNL1        0.0231
      9 N           1.4557   -7.1149    2.4554 N.am    1  UNL1       -0.2989
     10 C           2.0641   -8.3363    2.7703 C.2     1  UNL1        0.3001
     11 O           3.2854   -8.3679    2.8676 O.2     1  UNL1       -0.2529
     12 N           1.2302   -9.4591    2.9478 N.am    1  UNL1       -0.2938
     13 C           1.6799  -10.8057    3.6392 C.3     1  UNL1        0.0368
     14 C           2.1069  -12.1617    2.7874 C.3     1  UNL1       -0.0287
     15 C           2.5465  -13.3009    3.7947 C.3     1  UNL1       -0.0386
     16 C           3.7623  -12.7386    4.5463 C.3     1  UNL1       -0.0472
     17 C           3.3282  -11.5895    5.4457 C.3     1  UNL1       -0.0386
     18 C           2.1833  -12.0235    6.3553 C.3     1  UNL1       -0.0472
     19 C           0.9554  -12.4198    5.5220 C.3     1  UNL1       -0.0386
     20 C           1.3127  -13.6228    4.6557 C.3     1  UNL1       -0.0472
     21 C           0.5197  -11.2613    4.5959 C.3     1  UNL1       -0.0287
     22 C           2.8716  -10.4506    4.5553 C.3     1  UNL1       -0.0287
     23 N           3.1066    1.0329   -0.3546 N.am    1  UNL1       -0.2773
     24 C           4.5146    1.1549   -0.3542 C.ar    1  UNL1        0.1130
     25 C           5.2776    0.1193   -0.9095 C.ar    1  UNL1       -0.0155
     26 C           6.6699    0.1490   -0.8890 C.ar    1  UNL1        0.0432
     27 CL          7.5470   -1.1911   -1.5120 Cl      1  UNL1       -0.0835
     28 C           7.3395    1.2482   -0.3706 C.ar    1  UNL1       -0.0369
     29 C           6.6070    2.3291    0.1280 C.ar    1  UNL1        0.0189
     30 C           5.1957    2.2949    0.1282 C.ar    1  UNL1        0.2942
     31 N           4.4820    3.4481    0.7071 N.pl3   1  UNL1        0.0815
     32 O           5.1636    4.3726    1.1727 O.2     1  UNL1        0.0415
     33 O           3.2434    3.4386    0.6898 O.co2   1  UNL1       -0.5760
     34 H           3.6503   -1.0550    1.3890 H       1  UNL1        0.0796
     35 H           3.5993   -1.7645   -0.2640 H       1  UNL1        0.0796
     36 H           1.0476   -4.8034    0.8291 H       1  UNL1        0.0393
     37 H           1.0403   -4.2246    2.5169 H       1  UNL1        0.0393
     38 H           2.9672   -5.7394    3.0383 H       1  UNL1        0.0468
     39 H           3.0226   -6.2667    1.3654 H       1  UNL1        0.0468
     40 H           0.4569   -6.9790    2.4988 H       1  UNL1        0.1502
     41 H           0.2769   -9.1982    3.1623 H       1  UNL1        0.1508
     42 H           2.9534  -12.0014    2.1052 H       1  UNL1        0.0288
     43 H           1.3001  -12.5912    2.1722 H       1  UNL1        0.0288
     44 H           2.8666  -14.2433    3.3253 H       1  UNL1        0.0302
     45 H           4.4809  -12.3659    3.7990 H       1  UNL1        0.0271
     46 H           4.3041  -13.4936    5.1234 H       1  UNL1        0.0271
     47 H           4.1816  -11.2413    6.0365 H       1  UNL1        0.0302
     48 H           1.9221  -11.2066    7.0366 H       1  UNL1        0.0271
     49 H           2.5152  -12.8687    6.9703 H       1  UNL1        0.0271
     50 H           0.1315  -12.6880    6.1941 H       1  UNL1        0.0302
     51 H           0.4688  -13.8511    3.9881 H       1  UNL1        0.0271
     52 H           1.4510  -14.5169    5.2756 H       1  UNL1        0.0271
     53 H           0.1921  -10.4233    5.2234 H       1  UNL1        0.0288
     54 H          -0.3611  -11.5671    4.0129 H       1  UNL1        0.0288
     55 H           3.7298  -10.1820    3.9353 H       1  UNL1        0.0288
     56 H           2.6113   -9.5849    5.1764 H       1  UNL1        0.0288
     57 H           2.5583    1.8960   -0.3901 H       1  UNL1        0.1551
     58 H           4.7996   -0.7092   -1.4222 H       1  UNL1        0.0653
     59 H           8.4268    1.2732   -0.3656 H       1  UNL1        0.0634
     60 H           7.1549    3.1830    0.5258 H       1  UNL1        0.0686
@<TRIPOS>UNITY_ATOM_ATTR
31 1
charge 1
33 1
charge -1
@<TRIPOS>BOND
     1     1     2    2
     2     2     3    1
     3     3     4    1
     4     4     5    1
     5     5     6    2
     6     5     7    1
     7     7     8    1
     8     8     9    1
     9     9    10   am
    10    10    11    2
    11    10    12   am
    12    12    13    1
    13    13    14    1
    14    14    15    1
    15    15    16    1
    16    16    17    1
    17    17    18    1
    18    18    19    1
    19    19    20    1
    20    15    20    1
    21    19    21    1
    22    13    21    1
    23    17    22    1
    24    13    22    1
    25     2    23   am
    26    23    24    1
    27    24    25   ar
    28    25    26   ar
    29    26    27    1
    30    26    28   ar
    31    28    29   ar
    32    29    30   ar
    33    24    30   ar
    34    30    31    1
    35    31    32    2
    36    31    33    1
    37     3    34    1
    38     3    35    1
    39     7    36    1
    40     7    37    1
    41     8    38    1
    42     8    39    1
    43     9    40    1
    44    12    41    1
    45    14    42    1
    46    14    43    1
    47    15    44    1
    48    16    45    1
    49    16    46    1
    50    17    47    1
    51    18    48    1
    52    18    49    1
    53    19    50    1
    54    20    51    1
    55    20    52    1
    56    21    53    1
    57    21    54    1
    58    22    55    1
    59    22    56    1
    60    23    57    1
    61    25    58    1
    62    28    59    1
    63    29    60    1
