REMARK  7 active torsions:
REMARK  status: ('A' for Active; 'I' for Inactive)
REMARK    1  A    between atoms: C_2  and  C_3 
REMARK       I    between atoms: C_2  and  N_12 
REMARK    2  A    between atoms: C_3  and  C_4 
REMARK    3  A    between atoms: C_4  and  O_5 
REMARK    4  A    between atoms: O_5  and  C_6 
REMARK    5  A    between atoms: N_12  and  N_13 
REMARK       I    between atoms: N_13  and  C_14 
REMARK    6  A    between atoms: C_14  and  C_16 
REMARK    7  A    between atoms: C_16  and  C_17 
ROOT
ATOM      1  N   UNL d   1       4.754   1.082   0.939  0.00  0.00    -0.268 N 
ATOM      2  C   UNL d   1       5.464   2.092   1.795  0.00  0.00     0.236 C 
ATOM      3  O   UNL d   1       4.798   2.742   2.604  0.00  0.00    -0.272 OA
ATOM      4  H   UNL d   1       5.237   0.378   0.395  0.00  0.00     0.190 HD
ENDROOT
BRANCH   1   5
ATOM      5  N   UNL d   1       3.225   0.875   0.953  0.00  0.00    -0.267 N 
ATOM      6  C   UNL d   1       2.423   0.037   0.136  0.00  0.00     0.238 C 
ATOM      7  O   UNL d   1       1.188   0.106   0.207  0.00  0.00    -0.272 OA
ATOM      8  H   UNL d   1       2.692   1.505   1.557  0.00  0.00     0.190 HD
BRANCH   6   9
ATOM      9  C   UNL d   1       3.051  -0.971  -0.829  0.00  0.00     0.131 C 
BRANCH   9  10
ATOM     10  C   UNL d   1       2.024  -1.822  -1.639  0.00  0.00     0.185 C 
BRANCH  10  11
ATOM     11  O   UNL d   1       2.722  -2.797  -2.453  0.00  0.00    -0.351 OA
BRANCH  11  12
ATOM     12  C   UNL d   1       1.938  -3.524  -3.325  0.00  0.00     0.068 A 
ATOM     13  C   UNL d   1       2.268  -4.872  -3.523  0.00  0.00     0.037 A 
ATOM     14  C   UNL d   1       1.564  -5.651  -4.456  0.00  0.00     0.003 A 
ATOM     15  C   UNL d   1       0.496  -5.101  -5.161  0.00  0.00     0.000 A 
ATOM     16  C   UNL d   1       0.173  -3.759  -4.980  0.00  0.00     0.003 A 
ATOM     17  C   UNL d   1       0.905  -2.971  -4.083  0.00  0.00     0.037 A 
ENDBRANCH  11  12
ENDBRANCH  10  11
ENDBRANCH   9  10
ENDBRANCH   6   9
ENDBRANCH   1   5
BRANCH   2  18
ATOM     18  C   UNL d   1       7.231   2.240   1.580  0.00  0.00     0.118 C 
BRANCH  18  19
ATOM     19  C   UNL d   1       8.490   3.085   2.572  0.00  0.00     0.014 C 
ATOM     20  C   UNL d   1       8.646   2.314   3.647  0.00  0.00     0.090 C 
ATOM     21  N   UNL d   1       8.669   3.419   4.474  0.00  0.00    -0.288 NA
ATOM     22  C   UNL d   1       9.930   3.875   4.234  0.00  0.00     0.002 C 
ATOM     23  H   UNL d   1       7.953   4.122   4.580  0.00  0.00     0.128 HD
ATOM     24  C   UNL d   1      10.758   4.237   5.356  0.00  0.00     0.044 C 
ATOM     25  C   UNL d   1      10.024   3.986   2.701  0.00  0.00     0.042 C 
ATOM     26  C   UNL d   1      12.065   4.601   5.287  0.00  0.00     0.035 C 
ATOM     27 CL   UNL d   1      12.944   5.030   6.702  0.00  0.00    -0.084 Cl
ATOM     28  C   UNL d   1      12.527   4.583   4.010  0.00  0.00     0.021 C 
ATOM     29  C   UNL d   1      11.596   4.138   2.893  0.00  0.00    -0.007 C 
ENDBRANCH  18  19
ENDBRANCH   2  18
TORSDOF 7
