@<TRIPOS>MOLECULE
*****
 56 57 0 0 0
SMALL
GASTEIGER

@<TRIPOS>ATOM
      1 C           3.1779    0.2336   -1.3807 C.3     1  UNL1       -0.0380
      2 C           2.5005   -0.0070   -0.0337 C.3     1  UNL1        0.0983
      3 N           1.0125   -0.0575   -0.1432 N.am    1  UNL1       -0.3007
      4 C           0.2940    0.4351   -1.2112 C.2     1  UNL1        0.2375
      5 O           0.7938    0.9110   -2.2314 O.2     1  UNL1       -0.2708
      6 C          -1.1824    0.3539   -1.1129 C.2     1  UNL1        0.0007
      7 C          -1.9047    0.7797   -2.1689 C.2     1  UNL1       -0.0497
      8 C          -3.3691    0.8233   -2.1884 C.ar    1  UNL1       -0.0249
      9 C          -4.0907    0.4418   -3.3279 C.ar    1  UNL1       -0.0546
     10 C          -5.4838    0.5683   -3.3525 C.ar    1  UNL1       -0.0612
     11 C          -6.1643    1.0222   -2.2232 C.ar    1  UNL1       -0.0617
     12 C          -5.4517    1.4117   -1.0926 C.ar    1  UNL1       -0.0612
     13 C          -4.0612    1.3324   -1.0850 C.ar    1  UNL1       -0.0546
     14 C           3.0084    1.0234    1.0293 C.2     1  UNL1        0.2491
     15 O           2.2426    1.6667    1.7513 O.2     1  UNL1       -0.2723
     16 N           4.3912    1.1171    1.1731 N.am    1  UNL1       -0.2329
     17 N           4.9466    2.0625    2.0667 N.am    1  UNL1       -0.2344
     18 C           6.3283    2.1720    2.1451 C.2     1  UNL1        0.2291
     19 O           7.0863    1.4720    1.4763 O.2     1  UNL1       -0.2743
     20 C           6.8097    3.2008    3.1482 C.3     1  UNL1        0.0256
     21 C           8.3453    3.2981    3.2547 C.3     1  UNL1       -0.0419
     22 C           8.8300    4.3643    4.2651 C.3     1  UNL1       -0.0406
     23 C           8.6987    5.7751    3.6686 C.3     1  UNL1       -0.0502
     24 C           8.9825    6.8743    4.6873 C.3     1  UNL1       -0.0528
     25 C           8.1342    6.7037    5.9420 C.3     1  UNL1       -0.0530
     26 C           8.3817    5.3431    6.5818 C.3     1  UNL1       -0.0528
     27 C           8.0732    4.2331    5.5955 C.3     1  UNL1       -0.0502
     28 H           4.2641    0.1516   -1.3420 H       1  UNL1        0.0252
     29 H           2.9637    1.2515   -1.7264 H       1  UNL1        0.0252
     30 H           2.8159   -0.4840   -2.1268 H       1  UNL1        0.0252
     31 H           2.7927   -1.0009    0.3337 H       1  UNL1        0.0592
     32 H           0.5123   -0.3409    0.6916 H       1  UNL1        0.1497
     33 H          -1.6429   -0.0274   -0.2130 H       1  UNL1        0.0669
     34 H          -1.4178    1.1593   -3.0688 H       1  UNL1        0.0625
     35 H          -3.5832    0.0354   -4.2008 H       1  UNL1        0.0623
     36 H          -6.0410    0.3165   -4.2518 H       1  UNL1        0.0618
     37 H          -7.2495    1.0774   -2.2240 H       1  UNL1        0.0618
     38 H          -5.9714    1.7915   -0.2182 H       1  UNL1        0.0618
     39 H          -3.5172    1.6803   -0.2111 H       1  UNL1        0.0623
     40 H           5.0711    0.5868    0.6287 H       1  UNL1        0.1728
     41 H           4.2939    2.6312    2.6054 H       1  UNL1        0.1728
     42 H           6.3896    2.8940    4.1119 H       1  UNL1        0.0359
     43 H           6.3894    4.1779    2.8862 H       1  UNL1        0.0359
     44 H           8.7790    3.5107    2.2687 H       1  UNL1        0.0272
     45 H           8.7473    2.3224    3.5579 H       1  UNL1        0.0272
     46 H           9.9001    4.1930    4.4610 H       1  UNL1        0.0301
     47 H           7.6879    5.9223    3.2745 H       1  UNL1        0.0268
     48 H           9.3842    5.8835    2.8183 H       1  UNL1        0.0268
     49 H           8.7764    7.8495    4.2324 H       1  UNL1        0.0265
     50 H          10.0444    6.8605    4.9593 H       1  UNL1        0.0265
     51 H           7.0719    6.8028    5.6802 H       1  UNL1        0.0265
     52 H           8.3632    7.4954    6.6613 H       1  UNL1        0.0265
     53 H           7.7326    5.2244    7.4568 H       1  UNL1        0.0265
     54 H           9.4185    5.2633    6.9239 H       1  UNL1        0.0265
     55 H           6.9950    4.2915    5.4213 H       1  UNL1        0.0268
     56 H           8.2767    3.2534    6.0432 H       1  UNL1        0.0268
@<TRIPOS>BOND
     1     3     4   am
     2     4     5    2
     3     4     6    1
     4     6     7    2
     5     7     8    1
     6     8     9   ar
     7     9    10   ar
     8    10    11   ar
     9    11    12   ar
    10    12    13   ar
    11     8    13   ar
    12     2    14    1
    13    14    15    2
    14    14    16   am
    15    16    17    1
    16    17    18   am
    17    18    19    2
    18    18    20    1
    19    20    21    1
    20    21    22    1
    21    22    23    1
    22    23    24    1
    23    24    25    1
    24    25    26    1
    25    26    27    1
    26    22    27    1
    27     2     3    1
    28     2     1    1
    29     1    28    1
    30     1    29    1
    31     1    30    1
    32     2    31    1
    33     3    32    1
    34     6    33    1
    35     7    34    1
    36     9    35    1
    37    10    36    1
    38    11    37    1
    39    12    38    1
    40    13    39    1
    41    16    40    1
    42    17    41    1
    43    20    42    1
    44    20    43    1
    45    21    44    1
    46    21    45    1
    47    22    46    1
    48    23    47    1
    49    23    48    1
    50    24    49    1
    51    24    50    1
    52    25    51    1
    53    25    52    1
    54    26    53    1
    55    26    54    1
    56    27    55    1
    57    27    56    1
