@<TRIPOS>MOLECULE
*****
 41 41 0 0 0
SMALL
GASTEIGER

@<TRIPOS>ATOM
      1 C          -1.9131   -0.5387   -6.1388 C.3     1  UNL1       -0.0397
      2 C          -2.3314    0.1394   -4.8771 C.ar    1  UNL1       -0.0502
      3 C          -2.4675   -0.6350   -3.7473 C.ar    1  UNL1       -0.0554
      4 C          -2.8248   -0.0473   -2.5478 C.ar    1  UNL1       -0.0197
      5 C          -3.1377    1.2997   -2.4109 C.ar    1  UNL1        0.1216
      6 O          -3.5250    1.9318   -1.2599 O.3     1  UNL1       -0.4798
      7 C          -4.0325    1.2375   -0.1013 C.3     1  UNL1        0.1741
      8 C          -3.2899   -0.0476    0.2885 C.3     1  UNL1       -0.0190
      9 C          -5.5716    0.9659   -0.1219 C.2     1  UNL1        0.2696
     10 O          -6.0444   -0.1734   -0.0879 O.2     1  UNL1       -0.2702
     11 N          -6.4044    2.0739   -0.1229 N.am    1  UNL1       -0.2301
     12 N          -7.8238    1.8759   -0.1304 N.am    1  UNL1       -0.2181
     13 C          -8.6522    2.9854   -0.1167 C.2     1  UNL1        0.3162
     14 O          -8.2002    4.1184   -0.0548 O.2     1  UNL1       -0.2513
     15 N         -10.0062    2.7003   -0.2052 N.am    1  UNL1       -0.2959
     16 C         -11.0236    3.7676   -0.2308 C.3     1  UNL1        0.0190
     17 C         -10.8633    4.6626   -1.4623 C.3     1  UNL1       -0.0468
     18 C         -12.4615    3.2267   -0.2215 C.3     1  UNL1       -0.0468
     19 C          -2.9726    2.0917   -3.5514 C.ar    1  UNL1       -0.0197
     20 C          -2.5672    1.5154   -4.7750 C.ar    1  UNL1       -0.0554
     21 H          -1.7700   -1.6153   -5.9716 H       1  UNL1        0.0278
     22 H          -0.9607   -0.1336   -6.4858 H       1  UNL1        0.0278
     23 H          -2.6898   -0.4254   -6.8971 H       1  UNL1        0.0278
     24 H          -2.2749   -1.7052   -3.7517 H       1  UNL1        0.0621
     25 H          -2.7614   -0.7621   -1.7586 H       1  UNL1        0.0654
     26 H          -3.8476    1.9265    0.7362 H       1  UNL1        0.0829
     27 H          -3.7079   -0.8913   -0.2715 H       1  UNL1        0.0270
     28 H          -3.4491   -0.3621    1.3196 H       1  UNL1        0.0270
     29 H          -2.2099    0.0383    0.1100 H       1  UNL1        0.0270
     30 H          -6.0792    3.0390   -0.1486 H       1  UNL1        0.1729
     31 H          -8.1429    0.9132   -0.1575 H       1  UNL1        0.1744
     32 H         -10.3150    1.7399   -0.1928 H       1  UNL1        0.1505
     33 H         -10.8802    4.3749    0.6718 H       1  UNL1        0.0493
     34 H         -10.9966    4.0826   -2.3817 H       1  UNL1        0.0247
     35 H          -9.8745    5.1248   -1.5036 H       1  UNL1        0.0247
     36 H         -11.5995    5.4741   -1.4584 H       1  UNL1        0.0247
     37 H         -12.6643    2.6118   -1.1057 H       1  UNL1        0.0247
     38 H         -13.1866    4.0527   -0.2281 H       1  UNL1        0.0247
     39 H         -12.6654    2.6199    0.6657 H       1  UNL1        0.0247
     40 H          -3.1429    3.1660   -3.5059 H       1  UNL1        0.0654
     41 H          -2.4331    2.1483   -5.6486 H       1  UNL1        0.0621
@<TRIPOS>BOND
     1     1     2    1
     2     2     3   ar
     3     3     4   ar
     4     4     5   ar
     5     5     6    1
     6     7     9    1
     7     9    10    2
     8     9    11   am
     9    11    12    1
    10    12    13   am
    11    13    14    2
    12    13    15   am
    13    15    16    1
    14    16    17    1
    15    16    18    1
    16     5    19   ar
    17    19    20   ar
    18     2    20   ar
    19     7     8    1
    20     7     6    1
    21     1    21    1
    22     1    22    1
    23     1    23    1
    24     3    24    1
    25     4    25    1
    26     7    26    1
    27     8    27    1
    28     8    28    1
    29     8    29    1
    30    11    30    1
    31    12    31    1
    32    15    32    1
    33    16    33    1
    34    17    34    1
    35    17    35    1
    36    17    36    1
    37    18    37    1
    38    18    38    1
    39    18    39    1
    40    19    40    1
    41    20    41    1
