@<TRIPOS>MOLECULE
*****
 41 43 0 0 0
SMALL
GASTEIGER

@<TRIPOS>ATOM
      1 C           3.2579    0.6380   -1.2893 C.3     1  UNL1       -0.0381
      2 C           2.5961    0.1138   -0.0202 C.3     1  UNL1        0.0972
      3 N           1.1180    0.0452   -0.1161 N.am    1  UNL1       -0.3003
      4 C           0.3710    0.1766   -1.2628 C.2     1  UNL1        0.2447
      5 O           0.8233    0.2917   -2.4058 O.2     1  UNL1       -0.2702
      6 C          -1.0979    0.1837   -1.1379 C.ar    1  UNL1        0.0367
      7 C          -1.8493   -0.4985   -2.1071 C.ar    1  UNL1       -0.0496
      8 C          -3.2384   -0.3931   -2.1161 C.ar    1  UNL1       -0.0610
      9 C          -3.8785    0.3554   -1.1297 C.ar    1  UNL1       -0.0617
     10 C          -3.1300    1.0432   -0.1701 C.ar    1  UNL1       -0.0610
     11 C          -1.7356    0.9709   -0.1780 C.ar    1  UNL1       -0.0496
     12 C           2.9426    0.9931    1.2223 C.2     1  UNL1        0.2373
     13 O           2.0342    1.5252    1.8684 O.2     1  UNL1       -0.2734
     14 N           4.2771    1.1617    1.5221 N.am    1  UNL1       -0.2822
     15 C           4.7690    1.8749    2.6657 C.ar    1  UNL1        0.0596
     16 C           6.0285    2.5070    2.4255 C.ar    1  UNL1       -0.0384
     17 C           6.7311    3.0991    3.4601 C.ar    1  UNL1       -0.0593
     18 C           6.2176    2.9856    4.7360 C.ar    1  UNL1       -0.0524
     19 C           5.0230    2.2917    4.9885 C.ar    1  UNL1        0.0022
     20 C           4.7403    1.9686    6.3138 C.ar    1  UNL1       -0.0511
     21 C           3.7127    1.1034    6.6202 C.ar    1  UNL1       -0.0430
     22 C           2.6457    1.3901    5.8464 C.ar    1  UNL1        0.0283
     23 N           2.8514    1.5152    4.5065 N.ar    1  UNL1       -0.2531
     24 C           4.1330    1.8641    3.9990 C.ar    1  UNL1        0.0921
     25 H           4.3459    0.6776   -1.2217 H       1  UNL1        0.0252
     26 H           2.8933    1.6465   -1.5164 H       1  UNL1        0.0252
     27 H           3.0356   -0.0145   -2.1408 H       1  UNL1        0.0252
     28 H           2.9343   -0.9095    0.1864 H       1  UNL1        0.0592
     29 H           0.6368   -0.0007    0.7790 H       1  UNL1        0.1498
     30 H          -1.3462   -1.0907   -2.8697 H       1  UNL1        0.0625
     31 H          -3.8164   -0.8757   -2.9004 H       1  UNL1        0.0618
     32 H          -4.9639    0.4151   -1.1176 H       1  UNL1        0.0618
     33 H          -3.6341    1.6610    0.5684 H       1  UNL1        0.0618
     34 H          -1.1574    1.5635    0.5261 H       1  UNL1        0.0625
     35 H           4.9680    0.9127    0.8182 H       1  UNL1        0.1549
     36 H           6.4505    2.5977    1.4231 H       1  UNL1        0.0637
     37 H           7.6901    3.5899    3.3027 H       1  UNL1        0.0618
     38 H           6.7811    3.4033    5.5663 H       1  UNL1        0.0624
     39 H           5.2349    2.4972    7.1196 H       1  UNL1        0.0625
     40 H           3.9196    0.0386    6.3267 H       1  UNL1        0.0633
     41 H           1.6679    1.2942    6.3164 H       1  UNL1        0.0830
@<TRIPOS>BOND
     1     3     4   am
     2     4     5    2
     3     4     6    1
     4     6     7   ar
     5     7     8   ar
     6     8     9   ar
     7     9    10   ar
     8    10    11   ar
     9     6    11   ar
    10     2    12    1
    11    12    13    2
    12    12    14   am
    13    14    15    1
    14    15    16   ar
    15    16    17   ar
    16    17    18   ar
    17    18    19   ar
    18    19    20   ar
    19    20    21   ar
    20    21    22   ar
    21    22    23   ar
    22    23    24   ar
    23    15    24   ar
    24    19    24   ar
    25     2     3    1
    26     2     1    1
    27     1    25    1
    28     1    26    1
    29     1    27    1
    30     2    28    1
    31     3    29    1
    32     7    30    1
    33     8    31    1
    34     9    32    1
    35    10    33    1
    36    11    34    1
    37    14    35    1
    38    16    36    1
    39    17    37    1
    40    18    38    1
    41    20    39    1
    42    21    40    1
    43    22    41    1
