REMARK  4 active torsions:
REMARK  status: ('A' for Active; 'I' for Inactive)
REMARK    1  A    between atoms: C_6  and  C_7 
REMARK       I    between atoms: C_7  and  N_9 
REMARK    2  A    between atoms: N_9  and  N_10 
REMARK       I    between atoms: N_10  and  C_11 
REMARK       I    between atoms: C_11  and  N_13 
REMARK    3  A    between atoms: C_14  and  N_13 
REMARK    4  A    between atoms: C_14  and  C_16 
ROOT
ATOM      1  N   UNL d   1       0.023   6.352  -1.331  0.00  0.00    -0.249 N 
ATOM      2  C   UNL d   1       0.317   7.608  -1.781  0.00  0.00     0.335 C 
ATOM      3  O   UNL d   1       1.028   7.805  -2.772  0.00  0.00    -0.246 OA
ATOM      4  N   UNL d   1      -0.262   8.673  -1.138  0.00  0.00    -0.334 N 
ATOM      5  H   UNL d   1      -0.242   6.169  -0.381  0.00  0.00     0.192 HD
ATOM      6  H   UNL d   1       0.052   9.553  -1.530  0.00  0.00     0.165 HD
ENDROOT
BRANCH   1   7
ATOM      7  N   UNL d   1       0.462   5.179  -1.949  0.00  0.00    -0.262 N 
ATOM      8  C   UNL d   1       0.077   3.972  -1.358  0.00  0.00     0.270 C 
ATOM      9  O   UNL d   1      -0.618   3.943  -0.338  0.00  0.00    -0.266 OA
ATOM     10  H   UNL d   1       1.042   5.299  -2.771  0.00  0.00     0.190 HD
BRANCH   8  11
ATOM     11  C   UNL d   1       0.548   2.698  -1.982  0.00  0.00     0.034 A 
ATOM     12  C   UNL d   1       0.198   1.452  -1.430  0.00  0.00     0.017 A 
ATOM     13  C   UNL d   1       0.659   0.264  -2.014  0.00  0.00     0.002 A 
ATOM     14  C   UNL d   1       1.464   0.309  -3.152  0.00  0.00     0.007 A 
ATOM     15  C   UNL d   1       1.812   1.539  -3.713  0.00  0.00    -0.061 A 
ATOM     16  C   UNL d   1       2.659   1.635  -4.945  0.00  0.00     0.048 C 
ATOM     17  C   UNL d   1       1.354   2.721  -3.122  0.00  0.00     0.024 A 
ENDBRANCH   8  11
ENDBRANCH   1   7
BRANCH   4  18
ATOM     18  C   UNL d   1      -1.113   8.769   0.069  0.00  0.00     0.115 C 
ATOM     19  C   UNL d   1      -1.974   7.524   0.291  0.00  0.00     0.037 C 
BRANCH  18  20
ATOM     20  C   UNL d   1      -2.036  10.002   0.040  0.00  0.00    -0.033 A 
ATOM     21  C   UNL d   1      -1.549  11.313   0.077  0.00  0.00     0.028 A 
ATOM     22  C   UNL d   1      -2.466  12.366   0.099  0.00  0.00     0.116 A 
ATOM     23  N   UNL d   1      -3.810  12.219   0.115  0.00  0.00    -0.273 NA
ATOM     24  C   UNL d   1      -4.268  10.960   0.094  0.00  0.00     0.116 A 
ATOM     25  C   UNL d   1      -3.439   9.857   0.043  0.00  0.00     0.028 A 
ENDBRANCH  18  20
ENDBRANCH   4  18
TORSDOF 4
