REMARK  6 active torsions:
REMARK  status: ('A' for Active; 'I' for Inactive)
REMARK    1  A    between atoms: C_2  and  C_4 
REMARK    2  A    between atoms: C_4  and  C_5 
REMARK    3  A    between atoms: C_5  and  C_6 
REMARK       I    between atoms: C_6  and  N_8 
REMARK    4  A    between atoms: N_8  and  N_9 
REMARK       I    between atoms: N_9  and  C_10 
REMARK    5  A    between atoms: C_10  and  C_12 
REMARK    6  A    between atoms: C_14  and  N_15 
ROOT
ATOM      1  N   UNL d   1       7.060   3.339   3.093  0.00  0.00    -0.263 N 
ATOM      2  C   UNL d   1       8.427   3.475   3.290  0.00  0.00     0.271 C 
ATOM      3  O   UNL d   1       9.265   2.862   2.625  0.00  0.00    -0.266 OA
ATOM      4  H   UNL d   1       6.365   3.785   3.695  0.00  0.00     0.190 HD
ENDROOT
BRANCH   2   5
ATOM      5  C   UNL d   1       8.891   4.423   4.365  0.00  0.00     0.057 A 
ATOM      6  C   UNL d   1      10.050   5.213   4.148  0.00  0.00     0.054 A 
ATOM      7  C   UNL d   1      10.546   6.053   5.172  0.00  0.00     0.103 A 
ATOM      8  C   UNL d   1       9.901   6.113   6.412  0.00  0.00     0.038 A 
ATOM      9  C   UNL d   1       8.767   5.331   6.628  0.00  0.00     0.027 A 
ATOM     10  C   UNL d   1       8.266   4.488   5.622  0.00  0.00     0.050 A 
ATOM     11 CL   UNL d   1       6.907   3.517   6.062  0.00  0.00    -0.083 Cl
BRANCH   7  12
ATOM     12  N   UNL d   1      11.755   6.876   4.970  0.00  0.00    -0.116 N 
ATOM     13  O   UNL d   1      12.311   6.824   3.866  0.00  0.00    -0.532 OA
ATOM     14  O   UNL d   1      12.141   7.575   5.920  0.00  0.00    -0.532 OA
ENDBRANCH   7  12
ENDBRANCH   2   5
BRANCH   1  15
ATOM     15  N   UNL d   1       6.537   2.342   2.227  0.00  0.00    -0.267 N 
ATOM     16  C   UNL d   1       5.157   2.210   2.139  0.00  0.00     0.236 C 
ATOM     17  O   UNL d   1       4.395   2.902   2.815  0.00  0.00    -0.272 OA
ATOM     18  H   UNL d   1       7.205   1.785   1.697  0.00  0.00     0.190 HD
BRANCH  16  19
ATOM     19  C   UNL d   1       4.663   1.173   1.132  0.00  0.00     0.105 C 
BRANCH  19  20
ATOM     20  C   UNL d   1       3.124   1.113   1.056  0.00  0.00     0.013 C 
BRANCH  20  21
ATOM     21  C   UNL d   1       2.581   0.096   0.031  0.00  0.00    -0.022 C 
ATOM     22  C   UNL d   1       1.048   0.079   0.051  0.00  0.00     0.009 C 
ATOM     23  C   UNL d   1       3.058   0.416  -1.386  0.00  0.00     0.009 C 
ENDBRANCH  20  21
ENDBRANCH  19  20
ENDBRANCH  16  19
ENDBRANCH   1  15
TORSDOF 6
