REMARK  6 active torsions:
REMARK  status: ('A' for Active; 'I' for Inactive)
REMARK       I    between atoms: C_2  and  N_3 
REMARK    1  A    between atoms: C_2  and  C_12 
REMARK    2  A    between atoms: N_3  and  C_4 
REMARK    3  A    between atoms: C_4  and  C_5 
REMARK    4  A    between atoms: C_5  and  C_6 
REMARK    5  A    between atoms: C_19  and  C_20 
REMARK    6  A    between atoms: C_21  and  O_22 
ROOT
ATOM      1  C   UNL d   1       3.277  -0.634   1.147  0.00  0.00     0.053 C 
ATOM      2  C   UNL d   1       2.717  -1.361   2.168  0.00  0.00     0.019 C 
ATOM      3  C   UNL d   1       3.512  -1.655   3.294  0.00  0.00     0.002 C 
ATOM      4  C   UNL d   1       4.651  -0.900   3.636  0.00  0.00     0.010 C 
ATOM      5  C   UNL d   1       5.218  -0.112   2.671  0.00  0.00    -0.028 C 
ATOM      6  C   UNL d   1       4.641  -0.303   1.367  0.00  0.00     0.031 C 
ATOM      7  N   UNL d   1       5.574  -0.389   0.306  0.00  0.00    -0.282 NA
ATOM      8  C   UNL d   1       6.400   0.829   0.351  0.00  0.00     0.102 C 
ATOM      9  C   UNL d   1       7.216   1.040   1.669  0.00  0.00     0.024 C 
ATOM     10  C   UNL d   1       7.809   2.467   1.626  0.00  0.00     0.034 C 
ATOM     11  C   UNL d   1       6.830   3.276   2.390  0.00  0.00    -0.029 C 
ATOM     12  C   UNL d   1       6.131   2.479   3.215  0.00  0.00    -0.021 C 
ATOM     13  C   UNL d   1       6.376   0.935   2.951  0.00  0.00     0.049 C 
ATOM     14  H   UNL d   1       6.049  -1.292   0.431  0.00  0.00     0.128 HD
ENDROOT
BRANCH   1  15
ATOM     15  C   UNL d   1       2.405  -0.272  -0.074  0.00  0.00     0.253 C 
ATOM     16  O   UNL d   1       1.183  -0.160   0.030  0.00  0.00    -0.268 OA
ATOM     17  N   UNL d   1       3.036  -0.057  -1.284  0.00  0.00    -0.357 N 
ATOM     18  H   UNL d   1       4.040   0.085  -1.237  0.00  0.00     0.162 HD
BRANCH  17  19
ATOM     19  C   UNL d   1       2.312   0.264  -2.520  0.00  0.00     0.127 C 
BRANCH  19  20
ATOM     20  C   UNL d   1       3.246   0.376  -3.711  0.00  0.00     0.058 C 
BRANCH  20  21
ATOM     21  C   UNL d   1       2.569   0.724  -5.005  0.00  0.00    -0.057 C 
ATOM     22  C   UNL d   1       2.386   2.014  -5.535  0.00  0.00     0.007 C 
ATOM     23  C   UNL d   1       1.544   2.243  -6.614  0.00  0.00     0.001 C 
ATOM     24  C   UNL d   1       0.998   1.159  -7.274  0.00  0.00     0.000 C 
ATOM     25  C   UNL d   1       1.218  -0.132  -6.798  0.00  0.00     0.001 C 
ATOM     26  C   UNL d   1       1.996  -0.345  -5.672  0.00  0.00     0.007 C 
ENDBRANCH  20  21
ENDBRANCH  19  20
ENDBRANCH  17  19
ENDBRANCH   1  15
BRANCH   8  27
ATOM     27  C   UNL d   1       5.410   1.969  -0.055  0.00  0.00     0.004 C 
ATOM     28  C   UNL d   1       4.254   2.313   0.775  0.00  0.00     0.074 C 
ATOM     29  C   UNL d   1       3.071   2.734   0.268  0.00  0.00     0.038 C 
ATOM     30  C   UNL d   1       3.070   3.134  -1.008  0.00  0.00     0.015 C 
ATOM     31  C   UNL d   1       4.226   3.020  -1.791  0.00  0.00    -0.028 C 
ATOM     32  C   UNL d   1       4.072   3.364  -3.093  0.00  0.00    -0.005 C 
ATOM     33  C   UNL d   1       5.453   2.480  -1.438  0.00  0.00    -0.016 C 
ATOM     34  C   UNL d   1       4.995   2.944  -4.081  0.00  0.00     0.043 C 
ATOM     35  C   UNL d   1       6.338   3.036  -3.956  0.00  0.00    -0.016 C 
ATOM     36  C   UNL d   1       6.471   2.582  -2.622  0.00  0.00     0.009 C 
BRANCH  28  37
ATOM     37  O   UNL d   1       3.883   2.221   2.082  0.00  0.00    -0.360 OA
ATOM     38  H   UNL d   1       4.442   1.675   2.605  0.00  0.00     0.217 HD
ENDBRANCH  28  37
ENDBRANCH   8  27
TORSDOF 6
