REMARK  3 active torsions:
REMARK  status: ('A' for Active; 'I' for Inactive)
REMARK    1  A    between atoms: C_8  and  N_9 
REMARK       I    between atoms: N_9  and  C_10 
REMARK    2  A    between atoms: C_10  and  C_12 
REMARK    3  A    between atoms: C_17  and  O_18 
ROOT
ATOM      1  N   UNL d   1      -2.209   2.469  -0.049  0.00  0.00    -0.322 N 
ATOM      2  C   UNL d   1      -1.629   3.730  -0.052  0.00  0.00     0.259 C 
ATOM      3  O   UNL d   1      -0.452   4.075   0.030  0.00  0.00    -0.267 OA
ATOM      4  H   UNL d   1      -3.226   2.468  -0.023  0.00  0.00     0.169 HD
ENDROOT
BRANCH   1   5
ATOM      5  C   UNL d   1      -1.571   1.178  -0.017  0.00  0.00     0.042 A 
ATOM      6  C   UNL d   1      -2.417   0.043  -0.011  0.00  0.00     0.030 A 
ATOM      7  C   UNL d   1      -1.893  -1.262   0.006  0.00  0.00     0.004 A 
ATOM      8  C   UNL d   1      -0.520  -1.462   0.014  0.00  0.00     0.024 A 
ATOM      9  C   UNL d   1       0.333  -0.369   0.008  0.00  0.00     0.042 A 
ATOM     10  C   UNL d   1      -0.169   0.947  -0.002  0.00  0.00    -0.013 A 
ATOM     11 CL   UNL d   1       2.034  -0.715   0.005  0.00  0.00    -0.084 Cl
ATOM     12  C   UNL d   1       0.826   2.058   0.012  0.00  0.00     0.052 C 
ENDBRANCH   1   5
BRANCH   2  13
ATOM     13  C   UNL d   1      -2.444   4.930  -0.152  0.00  0.00     0.065 A 
ATOM     14  C   UNL d   1      -1.920   5.958  -0.967  0.00  0.00     0.020 A 
ATOM     15  C   UNL d   1      -2.453   7.234  -0.915  0.00  0.00     0.001 A 
ATOM     16  C   UNL d   1      -3.497   7.484  -0.030  0.00  0.00     0.003 A 
ATOM     17  C   UNL d   1      -3.994   6.471   0.810  0.00  0.00     0.037 A 
ATOM     18  C   UNL d   1      -3.466   5.184   0.748  0.00  0.00     0.081 A 
BRANCH  18  19
ATOM     19  O   UNL d   1      -3.887   4.191   1.583  0.00  0.00    -0.360 OA
ATOM     20  H   UNL d   1      -4.524   4.547   2.223  0.00  0.00     0.217 HD
ENDBRANCH  18  19
ENDBRANCH   2  13
TORSDOF 3
