REMARK  11 active torsions:
REMARK  status: ('A' for Active; 'I' for Inactive)
REMARK    1  A    between atoms: C_2  and  C_3 
REMARK       I    between atoms: C_2  and  N_15 
REMARK    2  A    between atoms: C_3  and  C_4 
REMARK    3  A    between atoms: C_4  and  C_5 
REMARK    4  A    between atoms: C_5  and  O_6 
REMARK    5  A    between atoms: O_6  and  C_7 
REMARK    6  A    between atoms: N_15  and  C_16 
REMARK    7  A    between atoms: C_16  and  N_18 
REMARK    8  A    between atoms: N_18  and  N_19 
REMARK       I    between atoms: N_19  and  C_20 
REMARK    9  A    between atoms: C_22  and  C_20 
REMARK   10  A    between atoms: N_26  and  C_27 
REMARK   11  A    between atoms: C_27  and  C_28 
ROOT
ATOM      1  N   UNL d   1       9.348  -7.228   2.556  0.00  0.00    -0.273 N 
ATOM      2  H   UNL d   1       9.520  -6.911   3.511  0.00  0.00     0.189 HD
ENDROOT
BRANCH   1   3
ATOM      3  C   UNL d   1       9.207  -8.549   2.120  0.00  0.00     0.193 C 
ATOM      4  S   UNL d   1       8.867  -8.816   0.481  0.00  0.00    -0.039 SA
BRANCH   3   5
ATOM      5  N   UNL d   1       9.376  -9.533   3.114  0.00  0.00    -0.303 N 
ATOM      6  C   UNL d   1       9.330 -10.941   3.087  0.00  0.00     0.223 C 
ATOM      7  O   UNL d   1       9.522 -11.587   4.116  0.00  0.00    -0.273 OA
ATOM      8  H   UNL d   1       9.573  -9.218   4.058  0.00  0.00     0.171 HD
BRANCH   6   9
ATOM      9  C   UNL d   1       9.043 -11.601   1.753  0.00  0.00     0.105 C 
BRANCH   9  10
ATOM     10  C   UNL d   1       8.991 -13.116   1.716  0.00  0.00     0.036 C 
BRANCH  10  11
ATOM     11  C   UNL d   1       8.697 -13.589   0.287  0.00  0.00     0.176 C 
BRANCH  11  12
ATOM     12  O   UNL d   1       8.646 -15.017   0.297  0.00  0.00    -0.349 OA
BRANCH  12  13
ATOM     13  C   UNL d   1       8.389 -15.599  -0.917  0.00  0.00     0.090 A 
ATOM     14  C   UNL d   1       9.062 -15.220  -2.082  0.00  0.00     0.040 A 
ATOM     15  C   UNL d   1       8.818 -15.886  -3.286  0.00  0.00     0.026 A 
ATOM     16  C   UNL d   1       7.910 -16.941  -3.325  0.00  0.00     0.035 A 
ATOM     17 CL   UNL d   1       7.621 -17.753  -4.814  0.00  0.00    -0.084 Cl
ATOM     18  C   UNL d   1       7.244 -17.343  -2.171  0.00  0.00     0.050 A 
ATOM     19  C   UNL d   1       7.492 -16.677  -0.967  0.00  0.00     0.069 A 
ATOM     20 CL   UNL d   1       6.651 -17.209   0.447  0.00  0.00    -0.081 Cl
ENDBRANCH  12  13
ENDBRANCH  11  12
ENDBRANCH  10  11
ENDBRANCH   9  10
ENDBRANCH   6   9
ENDBRANCH   3   5
ENDBRANCH   1   3
BRANCH   1  21
ATOM     21  N   UNL d   1       9.144  -6.202   1.576  0.00  0.00    -0.268 N 
ATOM     22  C   UNL d   1       9.250  -4.865   1.865  0.00  0.00     0.242 C 
ATOM     23  O   UNL d   1       9.537  -4.468   2.992  0.00  0.00    -0.271 OA
ATOM     24  H   UNL d   1       8.912  -6.550   0.646  0.00  0.00     0.190 HD
BRANCH  22  25
ATOM     25  C   UNL d   1       8.843  -3.926   0.731  0.00  0.00     0.106 C 
ATOM     26  C   UNL d   1       9.343  -2.510   0.982  0.00  0.00     0.118 C 
ATOM     27  C   UNL d   1       9.287  -1.900  -0.379  0.00  0.00     0.221 C 
ATOM     28  O   UNL d   1       9.181  -0.692  -0.547  0.00  0.00    -0.273 OA
ATOM     29  N   UNL d   1       9.424  -2.922  -1.311  0.00  0.00    -0.347 N 
ATOM     30  C   UNL d   1       9.394  -4.221  -0.665  0.00  0.00     0.140 C 
BRANCH  29  31
ATOM     31  C   UNL d   1       9.618  -2.770  -2.759  0.00  0.00     0.164 C 
BRANCH  31  32
ATOM     32  C   UNL d   1       9.791  -1.351  -3.243  0.00  0.00    -0.040 A 
ATOM     33  C   UNL d   1       8.888  -0.755  -4.133  0.00  0.00     0.009 A 
ATOM     34  C   UNL d   1       9.084   0.566  -4.546  0.00  0.00     0.001 A 
ATOM     35  C   UNL d   1      10.109   1.334  -3.991  0.00  0.00     0.000 A 
ATOM     36  C   UNL d   1      10.990   0.762  -3.081  0.00  0.00     0.001 A 
ATOM     37  C   UNL d   1      10.860  -0.583  -2.750  0.00  0.00     0.009 A 
ENDBRANCH  31  32
ENDBRANCH  29  31
ENDBRANCH  22  25
ENDBRANCH   1  21
TORSDOF 11
