@<TRIPOS>MOLECULE
*****
 43 43 0 0 0
SMALL
GASTEIGER

@<TRIPOS>ATOM
      1 C           0.9602   -0.0698   -0.0595 C.1     1  UNL1       -0.1176
      2 C           2.2641   -0.0698   -0.0595 C.1     1  UNL1       -0.0866
      3 C           3.7841   -0.0698   -0.0595 C.3     1  UNL1        0.0732
      4 N           4.3415    0.7099   -1.1819 N.am    1  UNL1       -0.3044
      5 C           5.7148    0.8324   -1.3582 C.2     1  UNL1        0.2152
      6 O           6.5024    0.2942   -0.5832 O.2     1  UNL1       -0.2757
      7 C           6.2015    1.6701   -2.5641 C.3     1  UNL1        0.0396
      8 C           7.7493    1.7257   -2.6440 C.3     1  UNL1        0.0213
      9 N           8.3246    2.5042   -3.7616 N.am    1  UNL1       -0.2990
     10 C           9.6953    2.6081   -3.9140 C.2     1  UNL1        0.2997
     11 O          10.4975    2.0767   -3.1495 O.2     1  UNL1       -0.2529
     12 N          10.1023    3.3601   -4.9945 N.am    1  UNL1       -0.2979
     13 C          11.5372    3.5469   -5.2887 C.3     1  UNL1        0.0285
     14 C          11.8282    4.4076   -6.5353 C.3     1  UNL1        0.0247
     15 N          13.2522    4.4947   -6.8775 N.pl3   1  UNL1       -0.3423
     16 C          13.6998    5.3518   -7.8761 C.ar    1  UNL1        0.0276
     17 C          14.7342    4.9538   -8.7389 C.ar    1  UNL1       -0.0344
     18 C          15.1669    5.7779   -9.7929 C.ar    1  UNL1        0.0173
     19 C          14.5222    6.9980  -10.0207 C.ar    1  UNL1        0.2733
     20 N          14.8429    7.7976  -11.2109 N.pl3   1  UNL1        0.0796
     21 O          15.7135    7.3670  -11.9801 O.2     1  UNL1        0.0414
     22 O          14.2022    8.8441  -11.3917 O.co2   1  UNL1       -0.5760
     23 C          13.5191    7.4311   -9.1527 C.ar    1  UNL1        0.0173
     24 C          13.1229    6.6094   -8.0922 C.ar    1  UNL1       -0.0344
     25 H          -0.1057   -0.0721   -0.0563 H       1  UNL1        0.1228
     26 H           4.1603   -1.0948   -0.1419 H       1  UNL1        0.0599
     27 H           4.1603    0.3651    0.8723 H       1  UNL1        0.0599
     28 H           3.6982    1.1545   -1.8225 H       1  UNL1        0.1496
     29 H           5.8027    2.6867   -2.4734 H       1  UNL1        0.0374
     30 H           5.8028    1.2302   -3.4852 H       1  UNL1        0.0374
     31 H           8.1521    0.7082   -2.7218 H       1  UNL1        0.0467
     32 H           8.1519    2.1527   -1.7170 H       1  UNL1        0.0467
     33 H           7.7141    2.9584   -4.4220 H       1  UNL1        0.1502
     34 H           9.4146    3.7729   -5.6052 H       1  UNL1        0.1503
     35 H          11.9916    2.5561   -5.4045 H       1  UNL1        0.0478
     36 H          12.0005    4.0102   -4.4085 H       1  UNL1        0.0478
     37 H          11.3954    5.3986   -6.3677 H       1  UNL1        0.0476
     38 H          11.3144    3.9672   -7.3976 H       1  UNL1        0.0476
     39 H          13.9476    4.1265   -6.2338 H       1  UNL1        0.1461
     40 H          15.1772    3.9641   -8.6377 H       1  UNL1        0.0638
     41 H          15.9811    5.4451  -10.4341 H       1  UNL1        0.0686
     42 H          13.0260    8.3912   -9.2859 H       1  UNL1        0.0686
     43 H          12.3535    6.9820   -7.4238 H       1  UNL1        0.0638
@<TRIPOS>UNITY_ATOM_ATTR
20 1
charge 1
22 1
charge -1
@<TRIPOS>BOND
     1     1     2    3
     2     2     3    1
     3     3     4    1
     4     4     5   am
     5     5     6    2
     6     5     7    1
     7     7     8    1
     8     8     9    1
     9     9    10   am
    10    10    11    2
    11    10    12   am
    12    12    13    1
    13    13    14    1
    14    14    15    1
    15    15    16    1
    16    16    17   ar
    17    17    18   ar
    18    18    19   ar
    19    19    20    1
    20    20    21    2
    21    20    22    1
    22    19    23   ar
    23    23    24   ar
    24    16    24   ar
    25     1    25    1
    26     3    26    1
    27     3    27    1
    28     4    28    1
    29     7    29    1
    30     7    30    1
    31     8    31    1
    32     8    32    1
    33     9    33    1
    34    12    34    1
    35    13    35    1
    36    13    36    1
    37    14    37    1
    38    14    38    1
    39    15    39    1
    40    17    40    1
    41    18    41    1
    42    23    42    1
    43    24    43    1
