@<TRIPOS>MOLECULE
*****
 46 47 0 0 0
SMALL
GASTEIGER

@<TRIPOS>ATOM
      1 C           0.9973    0.0001   -0.0085 C.3     1  UNL1       -0.0203
      2 C           2.5202    0.0131   -0.0013 C.2     1  UNL1        0.0635
      3 N           3.1287    0.7534   -0.8909 N.2     1  UNL1       -0.1845
      4 N           4.5067    0.7570   -1.0085 N.am    1  UNL1       -0.2039
      5 C           5.1390    1.5810   -1.9338 C.2     1  UNL1        0.2698
      6 O           4.5268    2.3010   -2.7309 O.2     1  UNL1       -0.2703
      7 C           6.6828    1.5362   -1.8751 C.3     1  UNL1        0.1668
      8 O           7.1879    2.4489   -2.8523 O.3     1  UNL1       -0.4827
      9 C           8.5395    2.5629   -2.9748 C.ar    1  UNL1        0.1212
     10 C           9.0275    3.8565   -3.1641 C.ar    1  UNL1       -0.0197
     11 C          10.3853    4.0800   -3.4073 C.ar    1  UNL1       -0.0549
     12 C          11.2956    3.0145   -3.3868 C.ar    1  UNL1       -0.0446
     13 C          12.7931    3.2984   -3.4395 C.3     1  UNL1       -0.0215
     14 C          13.1973    4.2107   -2.2693 C.3     1  UNL1       -0.0587
     15 C          13.6512    2.0287   -3.3754 C.3     1  UNL1       -0.0587
     16 C          10.7768    1.7148   -3.2592 C.ar    1  UNL1       -0.0549
     17 C           9.4116    1.4871   -3.0586 C.ar    1  UNL1       -0.0197
     18 C           3.1967   -0.8383    1.0197 C.ar    1  UNL1        0.0009
     19 C           4.3519   -0.3486    1.6388 C.ar    1  UNL1       -0.0526
     20 C           5.2257   -1.2241    2.2730 C.ar    1  UNL1       -0.0577
     21 C           4.8567   -2.5540    2.4585 C.ar    1  UNL1       -0.0201
     22 C           3.6322   -3.0018    1.9675 C.ar    1  UNL1        0.1175
     23 O           3.2373   -4.2969    2.1285 O.3     1  UNL1       -0.5067
     24 C           2.7979   -2.1587    1.2387 C.ar    1  UNL1       -0.0113
     25 H           0.6070    0.6624   -0.7880 H       1  UNL1        0.0293
     26 H           0.6124    0.3395    0.9581 H       1  UNL1        0.0293
     27 H           0.6135   -1.0049   -0.2089 H       1  UNL1        0.0293
     28 H           5.0561    0.0975   -0.4743 H       1  UNL1        0.1773
     29 H           7.0152    0.5099   -2.0672 H       1  UNL1        0.0795
     30 H           7.0142    1.8552   -0.8782 H       1  UNL1        0.0795
     31 H           8.3459    4.7018   -3.1115 H       1  UNL1        0.0654
     32 H          10.7263    5.0975   -3.5900 H       1  UNL1        0.0622
     33 H          13.0179    3.8134   -4.3836 H       1  UNL1        0.0343
     34 H          12.9585    3.7409   -1.3077 H       1  UNL1        0.0235
     35 H          12.6783    5.1746   -2.3006 H       1  UNL1        0.0235
     36 H          14.2718    4.4209   -2.2862 H       1  UNL1        0.0235
     37 H          13.4598    1.4765   -2.4466 H       1  UNL1        0.0235
     38 H          14.7193    2.2615   -3.4042 H       1  UNL1        0.0235
     39 H          13.4324    1.3647   -4.2190 H       1  UNL1        0.0235
     40 H          11.4241    0.8437   -3.3094 H       1  UNL1        0.0622
     41 H           9.0638    0.4625   -2.9984 H       1  UNL1        0.0654
     42 H           4.6126    0.7049    1.5507 H       1  UNL1        0.0624
     43 H           6.2029   -0.8714    2.5920 H       1  UNL1        0.0619
     44 H           5.5324   -3.2184    2.9875 H       1  UNL1        0.0654
     45 H           3.9402   -4.7903    2.5836 H       1  UNL1        0.2921
     46 H           1.8842   -2.5634    0.8140 H       1  UNL1        0.0660
@<TRIPOS>BOND
     1     1     2    1
     2     2     3    2
     3     3     4    1
     4     4     5   am
     5     5     6    2
     6     5     7    1
     7     7     8    1
     8     8     9    1
     9     9    10   ar
    10    10    11   ar
    11    11    12   ar
    12    12    13    1
    13    13    14    1
    14    13    15    1
    15    12    16   ar
    16    16    17   ar
    17     9    17   ar
    18     2    18    1
    19    18    19   ar
    20    19    20   ar
    21    20    21   ar
    22    21    22   ar
    23    22    23    1
    24    22    24   ar
    25    18    24   ar
    26     1    25    1
    27     1    26    1
    28     1    27    1
    29     4    28    1
    30     7    29    1
    31     7    30    1
    32    10    31    1
    33    11    32    1
    34    13    33    1
    35    14    34    1
    36    14    35    1
    37    14    36    1
    38    15    37    1
    39    15    38    1
    40    15    39    1
    41    16    40    1
    42    17    41    1
    43    19    42    1
    44    20    43    1
    45    21    44    1
    46    23    45    1
    47    24    46    1
