REMARK  12 active torsions:
REMARK  status: ('A' for Active; 'I' for Inactive)
REMARK    1  A    between atoms: C_2  and  N_3 
REMARK    2  A    between atoms: N_3  and  C_4 
REMARK    3  A    between atoms: N_3  and  C_6 
REMARK    4  A    between atoms: C_9  and  N_10 
REMARK       I    between atoms: N_10  and  C_11 
REMARK    5  A    between atoms: C_11  and  C_13 
REMARK    6  A    between atoms: C_13  and  S_14 
REMARK    7  A    between atoms: S_14  and  C_15 
REMARK    8  A    between atoms: C_18  and  N_19 
REMARK    9  A    between atoms: N_19  and  N_20 
REMARK   10  A    between atoms: C_21  and  C_22 
REMARK   11  A    between atoms: C_26  and  O_27 
REMARK   12  A    between atoms: O_27  and  C_28 
ROOT
ATOM      1  C   UNL d   1      13.579   0.792   2.390  0.00  0.00     0.226 A 
ATOM      2  N   UNL d   1      14.199  -0.388   2.471  0.00  0.00    -0.132 NA
ATOM      3  N   UNL d   1      15.487   0.014   2.632  0.00  0.00    -0.103 N 
ATOM      4  C   UNL d   1      15.611   1.381   2.653  0.00  0.00     0.739 A 
ATOM      5  N   UNL d   1      14.406   1.881   2.492  0.00  0.00    -0.034 NA
ATOM      6  H   UNL d   1      16.212  -0.685   2.722  0.00  0.00     0.208 HD
ENDROOT
BRANCH   1   7
ATOM      7  S   UNL d   1      11.878   1.027   2.158  0.00  0.00    -0.079 SA
BRANCH   7   8
ATOM      8  C   UNL d   1      11.030  -0.601   2.192  0.00  0.00     0.185 C 
BRANCH   8   9
ATOM      9  C   UNL d   1       9.510  -0.325   1.998  0.00  0.00     0.231 C 
ATOM     10  N   UNL d   1       8.626  -1.425   2.012  0.00  0.00    -0.327 N 
ATOM     11  H   UNL d   1       9.014  -2.357   2.109  0.00  0.00     0.169 HD
ATOM     12  O   UNL d   1       9.117   0.820   1.827  0.00  0.00    -0.272 OA
BRANCH  10  13
ATOM     13  C   UNL d   1       7.207  -1.312   1.785  0.00  0.00     0.034 A 
ATOM     14  C   UNL d   1       6.372  -2.438   1.695  0.00  0.00     0.032 A 
ATOM     15  C   UNL d   1       4.983  -2.307   1.370  0.00  0.00     0.039 A 
ATOM     16  C   UNL d   1       4.393  -1.039   1.233  0.00  0.00     0.134 A 
ATOM     17  C   UNL d   1       5.223   0.065   1.337  0.00  0.00     0.039 A 
ATOM     18  C   UNL d   1       6.583  -0.076   1.610  0.00  0.00     0.032 A 
BRANCH  16  19
ATOM     19  N   UNL d   1       2.910  -0.733   1.171  0.00  0.00    -0.042 N 
ATOM     20  H   UNL d   1       2.840   0.006   1.881  0.00  0.00     0.286 HD
BRANCH  19  21
ATOM     21  C   UNL d   1       2.563   0.072  -0.089  0.00  0.00     0.237 C 
ATOM     22  C   UNL d   1       1.090   0.356  -0.298  0.00  0.00     0.035 C 
ENDBRANCH  19  21
BRANCH  19  23
ATOM     23  C   UNL d   1       2.062  -1.796   1.847  0.00  0.00     0.237 C 
ATOM     24  C   UNL d   1       0.566  -1.600   1.724  0.00  0.00     0.035 C 
ENDBRANCH  19  23
ENDBRANCH  16  19
ENDBRANCH  10  13
ENDBRANCH   8   9
ENDBRANCH   7   8
ENDBRANCH   1   7
BRANCH   4  25
ATOM     25  N   UNL d   1      16.807   2.021   2.812  0.00  0.00    -0.106 N 
ATOM     26  H   UNL d   1      17.674   1.502   2.926  0.00  0.00     0.208 HD
BRANCH  25  27
ATOM     27  N   UNL d   1      16.859   3.390   2.824  0.00  0.00    -0.172 NA
ATOM     28  C   UNL d   1      18.010   3.982   2.888  0.00  0.00     0.150 C 
BRANCH  28  29
ATOM     29  C   UNL d   1      18.079   5.465   2.900  0.00  0.00    -0.014 A 
ATOM     30  C   UNL d   1      19.073   6.173   2.223  0.00  0.00     0.013 A 
ATOM     31  C   UNL d   1      19.108   7.573   2.310  0.00  0.00     0.004 A 
ATOM     32  C   UNL d   1      18.136   8.260   3.047  0.00  0.00     0.037 A 
ATOM     33  C   UNL d   1      17.145   7.547   3.727  0.00  0.00     0.076 A 
ATOM     34  C   UNL d   1      17.113   6.153   3.629  0.00  0.00     0.050 A 
BRANCH  33  35
ATOM     35  O   UNL d   1      16.219   8.286   4.434  0.00  0.00    -0.311 OA
BRANCH  35  36
ATOM     36  C   UNL d   1      15.407   7.640   5.342  0.00  0.00     0.076 A 
ATOM     37  C   UNL d   1      14.040   7.906   5.280  0.00  0.00     0.037 A 
ATOM     38  C   UNL d   1      13.180   7.335   6.220  0.00  0.00     0.003 A 
ATOM     39  C   UNL d   1      13.674   6.437   7.168  0.00  0.00     0.000 A 
ATOM     40  C   UNL d   1      15.037   6.156   7.219  0.00  0.00     0.003 A 
ATOM     41  C   UNL d   1      15.909   6.790   6.336  0.00  0.00     0.037 A 
ENDBRANCH  35  36
ENDBRANCH  33  35
ENDBRANCH  28  29
ENDBRANCH  25  27
ENDBRANCH   4  25
TORSDOF 12
