REMARK  8 active torsions:
REMARK  status: ('A' for Active; 'I' for Inactive)
REMARK    1  A    between atoms: O_2  and  C_3 
REMARK    2  A    between atoms: C_8  and  S_9 
REMARK    3  A    between atoms: S_9  and  C_10 
REMARK    4  A    between atoms: C_10  and  C_11 
REMARK       I    between atoms: C_11  and  N_13 
REMARK    5  A    between atoms: N_13  and  C_14 
REMARK    6  A    between atoms: C_19  and  C_20 
REMARK       I    between atoms: C_20  and  N_22 
REMARK    7  A    between atoms: N_22  and  C_23 
REMARK    8  A    between atoms: C_23  and  C_24 
ROOT
ATOM      1  C   UNL d   1       9.539  -6.498  -1.630  0.00  0.00     0.231 C 
ATOM      2  O   UNL d   1       9.544  -7.117  -2.700  0.00  0.00    -0.272 OA
ATOM      3  N   UNL d   1      10.719  -6.322  -0.866  0.00  0.00    -0.326 N 
ATOM      4  H   UNL d   1      10.638  -6.022   0.101  0.00  0.00     0.169 HD
ENDROOT
BRANCH   3   5
ATOM      5  C   UNL d   1      11.945  -6.984  -1.194  0.00  0.00     0.050 A 
ATOM      6  C   UNL d   1      12.457  -7.888  -0.231  0.00  0.00     0.030 A 
ATOM      7  C   UNL d   1      13.633  -8.617  -0.458  0.00  0.00     0.002 A 
ATOM      8  C   UNL d   1      14.308  -8.471  -1.662  0.00  0.00     0.001 A 
ATOM      9  C   UNL d   1      13.836  -7.555  -2.608  0.00  0.00     0.019 A 
ATOM     10  C   UNL d   1      12.664  -6.784  -2.396  0.00  0.00     0.058 A 
BRANCH  10  11
ATOM     11  C   UNL d   1      12.336  -5.782  -3.474  0.00  0.00     0.254 C 
ATOM     12  O   UNL d   1      12.932  -5.853  -4.574  0.00  0.00    -0.268 OA
ATOM     13  N   UNL d   1      11.431  -4.776  -3.240  0.00  0.00    -0.353 N 
ATOM     14  H   UNL d   1      10.970  -4.767  -2.341  0.00  0.00     0.163 HD
BRANCH  13  15
ATOM     15  C   UNL d   1      10.868  -3.976  -4.341  0.00  0.00     0.161 C 
BRANCH  15  16
ATOM     16  C   UNL d   1       9.697  -3.138  -3.912  0.00  0.00    -0.041 C 
ATOM     17  C   UNL d   1       9.608  -1.737  -3.829  0.00  0.00     0.009 C 
ATOM     18  C   UNL d   1       8.542  -1.075  -3.176  0.00  0.00     0.001 C 
ATOM     19  C   UNL d   1       7.618  -1.805  -2.518  0.00  0.00     0.000 C 
ATOM     20  C   UNL d   1       7.835  -3.142  -2.567  0.00  0.00     0.001 C 
ATOM     21  C   UNL d   1       8.640  -3.835  -3.444  0.00  0.00     0.009 C 
ENDBRANCH  15  16
ENDBRANCH  13  15
ENDBRANCH  10  11
ENDBRANCH   3   5
BRANCH   1  22
ATOM     22  C   UNL d   1       8.322  -5.671  -1.109  0.00  0.00     0.185 C 
BRANCH  22  23
ATOM     23  S   UNL d   1       6.600  -5.982  -2.152  0.00  0.00    -0.083 SA
BRANCH  23  24
ATOM     24  C   UNL d   1       5.501  -4.500  -2.150  0.00  0.00     0.168 C 
ATOM     25  N   UNL d   1       4.857  -3.925  -3.167  0.00  0.00    -0.223 NA
ATOM     26  C   UNL d   1       4.192  -2.806  -2.631  0.00  0.00     0.086 C 
ATOM     27  C   UNL d   1       3.240  -1.906  -3.156  0.00  0.00     0.037 C 
ATOM     28  C   UNL d   1       4.560  -2.634  -1.304  0.00  0.00     0.066 C 
ATOM     29  C   UNL d   1       2.611  -1.000  -2.269  0.00  0.00     0.039 C 
ATOM     30  C   UNL d   1       3.044  -0.854  -0.947  0.00  0.00     0.070 C 
ATOM     31  C   UNL d   1       4.124  -1.595  -0.475  0.00  0.00     0.068 C 
ATOM     32  N   UNL d   1       5.408  -3.682  -1.046  0.00  0.00    -0.333 N 
ATOM     33  H   UNL d   1       6.080  -3.648  -0.304  0.00  0.00     0.168 HD
BRANCH  30  34
ATOM     34  O   UNL d   1       2.467  -0.000  -0.041  0.00  0.00    -0.356 OA
ATOM     35  C   UNL d   1       1.040  -0.034  -0.055  0.00  0.00     0.210 C 
ENDBRANCH  30  34
ENDBRANCH  23  24
ENDBRANCH  22  23
ENDBRANCH   1  22
TORSDOF 8
