REMARK  8 active torsions:
REMARK  status: ('A' for Active; 'I' for Inactive)
REMARK    1  A    between atoms: C_2  and  C_3 
REMARK       I    between atoms: C_3  and  N_5 
REMARK    2  A    between atoms: N_5  and  C_6 
REMARK    3  A    between atoms: C_9  and  N_10 
REMARK       I    between atoms: N_10  and  C_11 
REMARK       I    between atoms: C_11  and  N_13 
REMARK    4  A    between atoms: N_13  and  C_14 
REMARK    5  A    between atoms: C_15  and  C_14 
REMARK    6  A    between atoms: C_15  and  O_17 
REMARK    7  A    between atoms: C_15  and  C_18 
REMARK    8  A    between atoms: C_18  and  O_19 
ROOT
ATOM      1  N   UNL d   1      11.064 -12.617  -2.841  0.00  0.00    -0.309 N 
ATOM      2  C   UNL d   1      10.254 -11.790  -3.602  0.00  0.00     0.320 C 
ATOM      3  O   UNL d   1      10.641 -10.982  -4.452  0.00  0.00    -0.247 OA
ATOM      4  N   UNL d   1       8.906 -11.894  -3.387  0.00  0.00    -0.340 N 
ATOM      5  H   UNL d   1      10.618 -13.196  -2.143  0.00  0.00     0.170 HD
ATOM      6  H   UNL d   1       8.478 -12.474  -2.679  0.00  0.00     0.164 HD
ENDROOT
BRANCH   1   7
ATOM      7  C   UNL d   1      12.497 -12.621  -2.901  0.00  0.00     0.036 A 
ATOM      8  C   UNL d   1      13.279 -13.421  -2.051  0.00  0.00     0.032 A 
ATOM      9  C   UNL d   1      14.701 -13.328  -2.062  0.00  0.00     0.032 A 
ATOM     10  C   UNL d   1      15.353 -12.452  -2.936  0.00  0.00     0.034 A 
ATOM     11  C   UNL d   1      14.575 -11.700  -3.802  0.00  0.00     0.032 A 
ATOM     12  C   UNL d   1      13.187 -11.799  -3.793  0.00  0.00     0.032 A 
BRANCH  10  13
ATOM     13  N   UNL d   1      16.766 -12.348  -2.995  0.00  0.00    -0.327 N 
ATOM     14  C   UNL d   1      17.403 -11.128  -3.210  0.00  0.00     0.221 C 
ATOM     15  O   UNL d   1      16.815 -10.048  -3.274  0.00  0.00    -0.273 OA
ATOM     16  H   UNL d   1      17.314 -13.163  -2.756  0.00  0.00     0.169 HD
BRANCH  14  17
ATOM     17  C   UNL d   1      18.920 -11.186  -3.316  0.00  0.00     0.098 C 
ATOM     18  C   UNL d   1      19.483  -9.773  -3.476  0.00  0.00     0.014 C 
ENDBRANCH  14  17
ENDBRANCH  10  13
ENDBRANCH   1   7
BRANCH   4  19
ATOM     19  C   UNL d   1       8.014 -11.032  -4.166  0.00  0.00     0.164 C 
BRANCH  19  20
ATOM     20  C   UNL d   1       6.510 -11.199  -3.860  0.00  0.00     0.091 C 
ATOM     21  C   UNL d   1       5.805  -9.836  -3.813  0.00  0.00     0.050 C 
BRANCH  20  22
ATOM     22  O   UNL d   1       6.364 -11.803  -2.559  0.00  0.00    -0.386 OA
ATOM     23  H   UNL d   1       5.421 -12.001  -2.432  0.00  0.00     0.210 HD
ENDBRANCH  20  22
BRANCH  20  24
ATOM     24  C   UNL d   1       5.827 -12.057  -4.945  0.00  0.00     0.206 C 
BRANCH  24  25
ATOM     25  O   UNL d   1       6.449 -13.338  -5.032  0.00  0.00    -0.393 OA
ATOM     26  C   UNL d   1       5.858 -14.129  -6.051  0.00  0.00     0.201 C 
ENDBRANCH  24  25
ENDBRANCH  20  24
ENDBRANCH  19  20
ENDBRANCH   4  19
TORSDOF 8
