REMARK  6 active torsions:
REMARK  status: ('A' for Active; 'I' for Inactive)
REMARK    1  A    between atoms: C_7  and  C_8 
REMARK       I    between atoms: C_8  and  N_10 
REMARK    2  A    between atoms: N_10  and  C_11 
REMARK    3  A    between atoms: C_11  and  C_12 
REMARK    4  A    between atoms: C_12  and  C_13 
REMARK       I    between atoms: C_13  and  N_15 
REMARK    5  A    between atoms: N_15  and  N_16 
REMARK       I    between atoms: N_16  and  C_17 
REMARK    6  A    between atoms: C_17  and  C_19 
ROOT
ATOM      1  C   UNL d   1       4.761   3.616   0.001  0.00  0.00     0.124 C 
ENDROOT
BRANCH   1   2
ATOM      2  C   UNL d   1       3.238   3.888  -0.003  0.00  0.00     0.132 C 
BRANCH   2   3
ATOM      3  N   UNL d   1       2.454   2.664   0.003  0.00  0.00    -0.356 N 
ATOM      4  C   UNL d   1       1.071   2.593   0.001  0.00  0.00     0.252 C 
ATOM      5  O   UNL d   1       0.384   3.619  -0.003  0.00  0.00    -0.268 OA
ATOM      6  H   UNL d   1       3.014   1.844  -0.009  0.00  0.00     0.162 HD
BRANCH   4   7
ATOM      7  C   UNL d   1       0.382   1.231   0.002  0.00  0.00     0.037 A 
ATOM      8  C   UNL d   1      -1.034   1.232  -0.001  0.00  0.00     0.017 A 
ATOM      9  C   UNL d   1      -1.776   0.040  -0.006  0.00  0.00     0.001 A 
ATOM     10  C   UNL d   1      -1.123  -1.184  -0.000  0.00  0.00     0.001 A 
ATOM     11  C   UNL d   1       0.266  -1.214   0.005  0.00  0.00     0.007 A 
ATOM     12  C   UNL d   1       1.029  -0.028   0.002  0.00  0.00    -0.046 A 
ATOM     13  C   UNL d   1       2.513  -0.210  -0.010  0.00  0.00     0.049 C 
ENDBRANCH   4   7
ENDBRANCH   2   3
ENDBRANCH   1   2
BRANCH   1  14
ATOM     14  C   UNL d   1       5.531   4.934  -0.002  0.00  0.00     0.237 C 
ATOM     15  O   UNL d   1       4.964   6.027  -0.009  0.00  0.00    -0.272 OA
ATOM     16  N   UNL d   1       6.912   4.854   0.009  0.00  0.00    -0.267 N 
ATOM     17  H   UNL d   1       7.457   3.990  -0.005  0.00  0.00     0.190 HD
BRANCH  16  18
ATOM     18  N   UNL d   1       7.661   6.079   0.007  0.00  0.00    -0.265 N 
ATOM     19  C   UNL d   1       9.039   6.021   0.027  0.00  0.00     0.265 C 
ATOM     20  O   UNL d   1       9.606   4.919   0.039  0.00  0.00    -0.269 OA
ATOM     21  H   UNL d   1       7.111   6.933  -0.034  0.00  0.00     0.190 HD
BRANCH  19  22
ATOM     22  C   UNL d   1       9.878   7.336  -0.012  0.00  0.00     0.215 C 
ATOM     23  C   UNL d   1       9.299   8.723   0.247  0.00  0.00     0.044 C 
ATOM     24  C   UNL d   1      10.252   9.626  -0.518  0.00  0.00     0.029 C 
ATOM     25  C   UNL d   1      10.624   8.780  -1.711  0.00  0.00     0.168 C 
ATOM     26  O   UNL d   1      10.556   7.418  -1.283  0.00  0.00    -0.376 OA
ENDBRANCH  19  22
ENDBRANCH  16  18
ENDBRANCH   1  14
TORSDOF 6
