@<TRIPOS>MOLECULE
*****
 65 67 0 0 0
SMALL
GASTEIGER

@<TRIPOS>ATOM
      1 C          17.4163   -4.2673    9.1240 C.3     1  UNL1        0.0820
      2 O          16.6214   -3.2046    8.5947 O.3     1  UNL1       -0.4641
      3 C          16.9409   -2.8784    7.3066 C.2     1  UNL1        0.3460
      4 O          17.7869   -3.4408    6.6396 O.2     1  UNL1       -0.2444
      5 C          16.0861   -1.7922    6.8549 C.ar    1  UNL1        0.1018
      6 S          15.4777   -1.9061    5.2706 S.2     1  UNL1       -0.0617
      7 C          14.6089   -0.4661    5.4600 C.ar    1  UNL1        0.1166
      8 N          13.8107   -0.0249    4.4917 N.ar    1  UNL1       -0.2211
      9 C          13.3273    1.1622    4.5596 C.ar    1  UNL1        0.1564
     10 C          12.5813    1.6744    3.3216 C.3     1  UNL1        0.0275
     11 N          12.5761    0.6514    2.1198 N.4     1  UNL1        0.2428
     12 C          11.3372   -0.2353    2.1912 C.3     1  UNL1       -0.0290
     13 C          11.4151   -1.7561    2.3615 C.3     1  UNL1       -0.0064
     14 C          12.2601   -2.3029    3.5018 C.3     1  UNL1       -0.0578
     15 C          10.0463   -2.4024    2.4112 C.3     1  UNL1       -0.0578
     16 C          13.9539    0.0697    1.8912 C.3     1  UNL1       -0.0016
     17 C          14.1774   -0.8331    0.7077 C.3     1  UNL1        0.1285
     18 O          13.3280   -1.9529    0.5875 O.3     1  UNL1       -0.3831
     19 C          15.5014   -1.5047    0.9548 C.3     1  UNL1        0.1204
     20 O          16.5461   -0.5732    0.8841 O.3     1  UNL1       -0.4889
     21 C          17.7630   -1.1907    0.9617 C.ar    1  UNL1        0.1235
     22 C          18.6489   -0.6101    1.8690 C.ar    1  UNL1       -0.0197
     23 C          19.8675   -1.2262    2.1194 C.ar    1  UNL1       -0.0583
     24 C          20.3096   -2.2370    1.2735 C.ar    1  UNL1       -0.0613
     25 C          19.4712   -2.7378    0.2849 C.ar    1  UNL1       -0.0554
     26 C          18.1537   -2.2956    0.1840 C.ar    1  UNL1       -0.0088
     27 C          17.2496   -3.0692   -0.7305 C.3     1  UNL1       -0.0362
     28 N          13.5048    1.9426    5.6568 N.ar    1  UNL1       -0.3061
     29 C          14.2064    1.4941    6.7683 C.ar    1  UNL1        0.2602
     30 O          14.2606    2.1918    7.7807 O.2     1  UNL1       -0.2671
     31 C          14.8422    0.1876    6.6286 C.ar    1  UNL1        0.0756
     32 C          15.6730   -0.6144    7.4792 C.ar    1  UNL1       -0.0149
     33 C          16.0768   -0.2135    8.8461 C.3     1  UNL1       -0.0376
     34 H          17.0754   -4.4720   10.1425 H       1  UNL1        0.0661
     35 H          18.4664   -3.9632    9.1636 H       1  UNL1        0.0661
     36 H          17.2991   -5.1805    8.5307 H       1  UNL1        0.0661
     37 H          13.0412    2.5943    2.9448 H       1  UNL1        0.0897
     38 H          11.5412    1.8977    3.5759 H       1  UNL1        0.0897
     39 H          12.4379    1.2345    1.2841 H       1  UNL1        0.2039
     40 H          10.7236    0.1453    3.0099 H       1  UNL1        0.0817
     41 H          10.8083   -0.0104    1.2580 H       1  UNL1        0.0817
     42 H          11.6727   -2.1857    1.4130 H       1  UNL1        0.0347
     43 H          11.8892   -1.9556    4.4696 H       1  UNL1        0.0234
     44 H          13.3045   -2.0436    3.4177 H       1  UNL1        0.0234
     45 H          12.2942   -3.3958    3.5027 H       1  UNL1        0.0234
     46 H           9.5032   -2.1189    3.3079 H       1  UNL1        0.0234
     47 H          10.1803   -3.4919    2.3779 H       1  UNL1        0.0234
     48 H           9.4866   -2.1221    1.5125 H       1  UNL1        0.0234
     49 H          14.1891   -0.5917    2.6913 H       1  UNL1        0.0841
     50 H          14.6753    0.8972    1.9308 H       1  UNL1        0.0841
     51 H          14.1267   -0.2711   -0.2215 H       1  UNL1        0.0681
     52 H          13.5150   -2.5681    1.3334 H       1  UNL1        0.2102
     53 H          15.4774   -2.2255    0.1600 H       1  UNL1        0.0725
     54 H          15.5232   -2.0852    1.8981 H       1  UNL1        0.0725
     55 H          18.3871    0.3023    2.3972 H       1  UNL1        0.0654
     56 H          20.4795   -0.9106    2.9585 H       1  UNL1        0.0619
     57 H          21.3114   -2.6406    1.3775 H       1  UNL1        0.0618
     58 H          19.8365   -3.5017   -0.3961 H       1  UNL1        0.0621
     59 H          17.7696   -3.8143   -1.3291 H       1  UNL1        0.0279
     60 H          16.7266   -2.3874   -1.4112 H       1  UNL1        0.0279
     61 H          16.5487   -3.6633   -0.1254 H       1  UNL1        0.0279
     62 H          13.0590    2.8434    5.7641 H       1  UNL1        0.1702
     63 H          15.6689    0.7608    9.1147 H       1  UNL1        0.0278
     64 H          17.1663   -0.1544    8.8979 H       1  UNL1        0.0278
     65 H          15.7038   -0.9444    9.5663 H       1  UNL1        0.0278
@<TRIPOS>UNITY_ATOM_ATTR
11 1
charge 1
@<TRIPOS>BOND
     1     1     2    1
     2     2     3    1
     3     3     4    2
     4     3     5    1
     5     5     6   ar
     6     6     7   ar
     7     7     8   ar
     8     8     9   ar
     9     9    10    1
    10    12    13    1
    11    13    14    1
    12    13    15    1
    13    11    16    1
    14    17    19    1
    15    19    20    1
    16    20    21    1
    17    21    22   ar
    18    22    23   ar
    19    23    24   ar
    20    24    25   ar
    21    25    26   ar
    22    21    26   ar
    23    26    27    1
    24     9    28   ar
    25    28    29   ar
    26    29    30    2
    27    29    31   ar
    28     7    31   ar
    29    31    32   ar
    30     5    32   ar
    31    32    33    1
    32    11    12    1
    33    11    10    1
    34    17    18    1
    35    17    16    1
    36     1    34    1
    37     1    35    1
    38     1    36    1
    39    10    37    1
    40    10    38    1
    41    11    39    1
    42    12    40    1
    43    12    41    1
    44    13    42    1
    45    14    43    1
    46    14    44    1
    47    14    45    1
    48    15    46    1
    49    15    47    1
    50    15    48    1
    51    16    49    1
    52    16    50    1
    53    17    51    1
    54    18    52    1
    55    19    53    1
    56    19    54    1
    57    22    55    1
    58    23    56    1
    59    24    57    1
    60    25    58    1
    61    27    59    1
    62    27    60    1
    63    27    61    1
    64    28    62    1
    65    33    63    1
    66    33    64    1
    67    33    65    1
