@<TRIPOS>MOLECULE
*****
 41 42 0 0 0
SMALL
GASTEIGER

@<TRIPOS>ATOM
      1 C           0.9389   -0.0070    0.0584 C.3     1  UNL1       -0.0014
      2 C           2.4462   -0.0340    0.1036 C.2     1  UNL1        0.1601
      3 O           3.0870    0.4042    1.0536 O.2     1  UNL1       -0.2924
      4 C           3.1645   -0.6319   -1.0456 C.ar    1  UNL1        0.0172
      5 C           4.2696   -1.4647   -0.8372 C.ar    1  UNL1       -0.0495
      6 C           4.9857   -1.9731   -1.9369 C.ar    1  UNL1       -0.0398
      7 C           4.5620   -1.6930   -3.2464 C.ar    1  UNL1        0.0338
      8 N           5.2176   -2.2874   -4.3473 N.am    1  UNL1       -0.2800
      9 C           4.8874   -2.1243   -5.6957 C.2     1  UNL1        0.2697
     10 O           3.9375   -1.5133   -6.1669 O.2     1  UNL1       -0.2679
     11 C           5.8195   -2.7899   -6.7199 C.2     1  UNL1        0.1393
     12 S           7.3398   -3.2461   -6.1781 S.2     1  UNL1       -0.0299
     13 N           5.3143   -2.7931   -8.0240 N.am    1  UNL1       -0.3042
     14 C           5.9191   -3.3933   -9.1559 C.ar    1  UNL1        0.0377
     15 C           6.2175   -2.6188  -10.3007 C.ar    1  UNL1       -0.0290
     16 C           6.1411   -1.1144  -10.3332 C.3     1  UNL1       -0.0379
     17 C           6.7775   -3.2477  -11.4320 C.ar    1  UNL1       -0.0571
     18 C           7.1045   -4.5995  -11.4066 C.ar    1  UNL1       -0.0611
     19 C           6.7932   -5.3609  -10.2870 C.ar    1  UNL1       -0.0571
     20 C           6.1666   -4.7836   -9.1712 C.ar    1  UNL1       -0.0290
     21 C           5.7313   -5.7043   -8.0641 C.3     1  UNL1       -0.0379
     22 C           3.4821   -0.8288   -3.4234 C.ar    1  UNL1       -0.0398
     23 C           2.7811   -0.3058   -2.3407 C.ar    1  UNL1       -0.0495
     24 H           0.5608    0.4604    0.9725 H       1  UNL1        0.0309
     25 H           0.5552   -1.0298    0.0101 H       1  UNL1        0.0309
     26 H           0.5733    0.5767   -0.7895 H       1  UNL1        0.0309
     27 H           4.5663   -1.7225    0.1790 H       1  UNL1        0.0625
     28 H           5.8706   -2.5762   -1.7407 H       1  UNL1        0.0636
     29 H           6.0147   -2.8880   -4.1540 H       1  UNL1        0.1552
     30 H           4.5772   -2.1074   -8.1976 H       1  UNL1        0.1528
     31 H           5.7420   -0.6886   -9.4106 H       1  UNL1        0.0278
     32 H           5.5227   -0.7669  -11.1670 H       1  UNL1        0.0278
     33 H           7.1542   -0.7105  -10.4573 H       1  UNL1        0.0278
     34 H           7.0080   -2.6734  -12.3284 H       1  UNL1        0.0621
     35 H           7.6102   -5.0610  -12.2512 H       1  UNL1        0.0618
     36 H           7.0291   -6.4226  -10.2903 H       1  UNL1        0.0621
     37 H           5.9457   -6.7495   -8.3033 H       1  UNL1        0.0278
     38 H           4.6568   -5.6070   -7.8819 H       1  UNL1        0.0278
     39 H           6.2709   -5.5092   -7.1423 H       1  UNL1        0.0278
     40 H           3.1545   -0.5188   -4.4076 H       1  UNL1        0.0636
     41 H           1.9582    0.3707   -2.5455 H       1  UNL1        0.0625
@<TRIPOS>BOND
     1     1     2    1
     2     2     3    2
     3     2     4    1
     4     4     5   ar
     5     5     6   ar
     6     6     7   ar
     7     7     8    1
     8     8     9   am
     9     9    10    2
    10     9    11    1
    11    11    12    2
    12    11    13    1
    13    13    14    1
    14    14    15   ar
    15    15    16    1
    16    15    17   ar
    17    17    18   ar
    18    18    19   ar
    19    19    20   ar
    20    14    20   ar
    21    20    21    1
    22     7    22   ar
    23    22    23   ar
    24     4    23   ar
    25     1    24    1
    26     1    25    1
    27     1    26    1
    28     5    27    1
    29     6    28    1
    30     8    29    1
    31    13    30    1
    32    16    31    1
    33    16    32    1
    34    16    33    1
    35    17    34    1
    36    18    35    1
    37    19    36    1
    38    21    37    1
    39    21    38    1
    40    21    39    1
    41    22    40    1
    42    23    41    1
