@<TRIPOS>MOLECULE
*****
 57 62 0 0 0
SMALL
GASTEIGER

@<TRIPOS>ATOM
      1 C           0.9498   -0.5128   -0.2734 C.3     1  UNL1       -0.0252
      2 C           2.4749   -0.5828   -0.4507 C.2     1  UNL1        0.0228
      3 C           3.1222    0.2382   -1.2945 C.2     1  UNL1        0.0068
      4 C           2.6156    1.1307   -2.3608 C.3     1  UNL1        0.1159
      5 C           2.8757    2.6383   -2.2388 C.ar    1  UNL1        0.2671
      6 N           4.0664    3.2824   -2.3037 N.ar    1  UNL1       -0.2466
      7 C           3.9065    4.6348   -2.1440 C.ar    1  UNL1        0.1283
      8 C           2.5643    4.8631   -2.1287 C.ar    1  UNL1        0.1283
      9 N           1.9617    3.6344   -2.2375 N.ar    1  UNL1       -0.2466
     10 C           3.2473    0.6312   -3.6116 C.2     1  UNL1        0.0306
     11 C           4.4181   -0.0375   -3.5778 C.2     1  UNL1        0.0138
     12 C           5.0163   -0.5945   -4.8218 C.3     1  UNL1       -0.0067
     13 C           4.2607   -0.3088   -6.1418 C.3     1  UNL1        0.0025
     14 C           5.1591    0.5529   -6.9828 C.ar    1  UNL1       -0.0064
     15 C           5.5434    1.8430   -6.6709 C.ar    1  UNL1       -0.0513
     16 C           6.3059    2.4293   -7.7026 C.ar    1  UNL1       -0.0545
     17 C           6.5019    1.5556   -8.7480 C.ar    1  UNL1       -0.0241
     18 S           5.7650    0.0342   -8.4825 S.2     1  UNL1       -0.1013
     19 C           2.9076    0.4166   -6.1186 C.3     1  UNL1        0.0179
     20 C           2.4378    0.8963   -4.8028 C.2     1  UNL1        0.1624
     21 O           1.3998    1.5536   -4.7092 O.2     1  UNL1       -0.2923
     22 N           5.1152   -0.2272   -2.3585 N.pl3   1  UNL1       -0.3241
     23 C           4.6144    0.3260   -1.0786 C.3     1  UNL1        0.1294
     24 N           4.8271   -0.3767    0.2495 N.pl3   1  UNL1       -0.2282
     25 C           4.9860    0.6307    1.3672 C.ar    1  UNL1        0.0588
     26 C           6.1475    1.0024    2.0791 C.ar    1  UNL1       -0.0384
     27 C           6.0238    1.5128    3.4273 C.ar    1  UNL1       -0.0599
     28 C           4.7895    1.6501    4.0677 C.ar    1  UNL1       -0.0610
     29 C           3.6732    1.3627    3.3482 C.ar    1  UNL1       -0.0511
     30 C           3.8051    1.0561    1.9958 C.ar    1  UNL1        0.0199
     31 C           2.6806    1.6034    1.2331 C.2     1  UNL1        0.0735
     32 O           1.5371    1.4315    1.6910 O.co2   1  UNL1       -0.5446
     33 O           2.9957    2.3086    0.2030 O.co2   1  UNL1       -0.5446
     34 N           3.4664   -1.1372    0.4058 N.pl3   1  UNL1       -0.2663
     35 H           0.4970    0.0931   -1.0711 H       1  UNL1        0.0290
     36 H           0.5579    0.0064    0.6016 H       1  UNL1        0.0290
     37 H           0.4403   -1.4718   -0.2519 H       1  UNL1        0.0290
     38 H           1.5278    1.0664   -2.4344 H       1  UNL1        0.0522
     39 H           4.9535    2.7961   -2.2994 H       1  UNL1        0.3104
     40 H           4.7793    5.2584   -2.0830 H       1  UNL1        0.1117
     41 H           1.9615    5.7502   -2.0600 H       1  UNL1        0.1117
     42 H           0.9649    3.4467   -2.1905 H       1  UNL1        0.3104
     43 H           5.1332   -1.6780   -4.7087 H       1  UNL1        0.0332
     44 H           6.0376   -0.1898   -4.8753 H       1  UNL1        0.0332
     45 H           4.0763   -1.2833   -6.6148 H       1  UNL1        0.0362
     46 H           5.2473    2.3437   -5.7560 H       1  UNL1        0.0626
     47 H           6.6804    3.4430   -7.6774 H       1  UNL1        0.0623
     48 H           7.0410    1.7382   -9.6639 H       1  UNL1        0.0693
     49 H           2.1254   -0.2230   -6.5358 H       1  UNL1        0.0351
     50 H           2.9341    1.3330   -6.7270 H       1  UNL1        0.0351
     51 H           5.7507   -1.0192   -2.2890 H       1  UNL1        0.1479
     52 H           5.0232    1.3296   -1.0246 H       1  UNL1        0.0773
     53 H           7.1566    0.9839    1.6684 H       1  UNL1        0.0637
     54 H           6.8944    1.7628    4.0311 H       1  UNL1        0.0618
     55 H           4.6396    2.0432    5.0682 H       1  UNL1        0.0618
     56 H           2.6659    1.5140    3.7299 H       1  UNL1        0.0625
     57 H           3.1567   -1.1705    1.3856 H       1  UNL1        0.1698
@<TRIPOS>UNITY_ATOM_ATTR
9 1
charge 1
33 1
charge -1
@<TRIPOS>BOND
     1     1     2    1
     2     2     3    2
     3     3     4    1
     4     4     5    1
     5     5     6   ar
     6     6     7   ar
     7     7     8   ar
     8     8     9   ar
     9     5     9   ar
    10     4    10    1
    11    10    11    2
    12    11    12    1
    13    12    13    1
    14    13    14    1
    15    14    15   ar
    16    15    16   ar
    17    16    17   ar
    18    17    18   ar
    19    14    18   ar
    20    13    19    1
    21    19    20    1
    22    10    20    1
    23    20    21    2
    24    11    22    1
    25    22    23    1
    26     3    23    1
    27    23    24    1
    28    24    25    1
    29    25    26   ar
    30    26    27   ar
    31    27    28   ar
    32    28    29   ar
    33    29    30   ar
    34    25    30   ar
    35    30    31    1
    36    31    32   ar
    37    31    33   ar
    38    24    34    1
    39     2    34    1
    40     1    35    1
    41     1    36    1
    42     1    37    1
    43     4    38    1
    44     6    39    1
    45     7    40    1
    46     8    41    1
    47     9    42    1
    48    12    43    1
    49    12    44    1
    50    13    45    1
    51    15    46    1
    52    16    47    1
    53    17    48    1
    54    19    49    1
    55    19    50    1
    56    22    51    1
    57    23    52    1
    58    26    53    1
    59    27    54    1
    60    28    55    1
    61    29    56    1
    62    34    57    1
