@<TRIPOS>MOLECULE
*****
 51 53 0 0 0
SMALL
GASTEIGER

@<TRIPOS>ATOM
      1 N          -3.0850    0.0325    0.0330 N.1     1  UNL1       -0.1909
      2 C          -1.9310    0.0612   -0.0196 C.1     1  UNL1        0.0992
      3 C          -0.4953    0.0584   -0.0490 C.ar    1  UNL1        0.0535
      4 C           0.2421    1.2340   -0.0383 C.ar    1  UNL1       -0.0442
      5 C           1.6373    1.1668    0.0158 C.ar    1  UNL1       -0.0588
      6 C           2.2966   -0.0780    0.0590 C.ar    1  UNL1       -0.0404
      7 C           1.5581   -1.2691    0.0116 C.ar    1  UNL1        0.0349
      8 N           2.2053   -2.5384    0.0289 N.am    1  UNL1       -0.2815
      9 C           1.5338   -3.7599   -0.0701 C.2     1  UNL1        0.2485
     10 O           0.3238   -3.9379   -0.1617 O.2     1  UNL1       -0.2698
     11 C           2.3209   -5.0059   -0.0234 C.ar    1  UNL1        0.0435
     12 C           1.9261   -6.1027   -0.7825 C.ar    1  UNL1       -0.0475
     13 C           2.5032   -7.3552   -0.5383 C.ar    1  UNL1       -0.0335
     14 C           3.5536   -7.5500    0.4088 C.ar    1  UNL1        0.1054
     15 N           3.9909   -8.8865    0.4932 N.pl3   1  UNL1       -0.3383
     16 C           5.2180   -9.1794    1.2050 C.3     1  UNL1        0.0146
     17 C           5.8386  -10.5431    1.0168 C.3     1  UNL1        0.0045
     18 C           6.3377  -10.6939   -0.4157 C.3     1  UNL1        0.0488
     19 O           5.2519  -10.5539   -1.3270 O.3     1  UNL1       -0.3947
     20 C           7.0004  -10.6572    2.0312 C.3     1  UNL1        0.0118
     21 C           7.6805  -11.9642    1.9236 C.ar    1  UNL1        0.1052
     22 C           8.9617  -12.2881    1.5453 C.ar    1  UNL1       -0.0207
     23 C           9.0135  -13.6961    1.5043 C.ar    1  UNL1       -0.0237
     24 C           7.7623  -14.1402    1.8657 C.ar    1  UNL1        0.0921
     25 O           6.9401  -13.0885    2.1240 O.2     1  UNL1       -0.4678
     26 C           3.9083   -6.4161    1.2015 C.ar    1  UNL1        0.2944
     27 N           4.8701   -6.3268    2.3507 N.pl3   1  UNL1        0.0815
     28 O           5.5295   -7.2847    2.7454 O.2     1  UNL1        0.0415
     29 O           4.9959   -5.2176    2.8909 O.co2   1  UNL1       -0.5760
     30 C           3.2877   -5.1668    0.9530 C.ar    1  UNL1        0.0296
     31 C           0.1659   -1.1674   -0.0483 C.ar    1  UNL1       -0.0231
     32 H          -0.2651    2.1959   -0.0584 H       1  UNL1        0.0630
     33 H           2.2063    2.0950    0.0344 H       1  UNL1        0.0619
     34 H           3.3828   -0.0785    0.1260 H       1  UNL1        0.0636
     35 H           3.2178   -2.5362    0.0844 H       1  UNL1        0.1551
     36 H           1.1426   -5.9944   -1.5337 H       1  UNL1        0.0626
     37 H           2.0922   -8.2057   -1.0895 H       1  UNL1        0.0638
     38 H           3.9095   -9.4032   -0.3872 H       1  UNL1        0.1463
     39 H           4.9187   -9.1877    2.2518 H       1  UNL1        0.0465
     40 H           5.9917   -8.4466    0.9346 H       1  UNL1        0.0465
     41 H           5.0714  -11.2933    1.2381 H       1  UNL1        0.0342
     42 H           6.7814  -11.6781   -0.5774 H       1  UNL1        0.0560
     43 H           7.0927   -9.9333   -0.6506 H       1  UNL1        0.0560
     44 H           4.5996  -11.2316   -1.0732 H       1  UNL1        0.2094
     45 H           6.6576  -10.4947    3.0621 H       1  UNL1        0.0347
     46 H           7.7430   -9.8674    1.8399 H       1  UNL1        0.0347
     47 H           9.7367  -11.5768    1.2991 H       1  UNL1        0.0652
     48 H           9.8579  -14.3110    1.2330 H       1  UNL1        0.0649
     49 H           7.3221  -15.1220    1.9716 H       1  UNL1        0.1029
     50 H           3.5091   -4.3101    1.5836 H       1  UNL1        0.0693
     51 H          -0.4674   -2.0436   -0.0828 H       1  UNL1        0.0649
@<TRIPOS>UNITY_ATOM_ATTR
27 1
charge 1
29 1
charge -1
@<TRIPOS>BOND
     1     1     2    3
     2     2     3    1
     3     3     4   ar
     4     4     5   ar
     5     5     6   ar
     6     6     7   ar
     7     7     8    1
     8     8     9   am
     9     9    10    2
    10     9    11    1
    11    11    12   ar
    12    12    13   ar
    13    13    14   ar
    14    14    15    1
    15    15    16    1
    16    16    17    1
    17    17    18    1
    18    18    19    1
    19    17    20    1
    20    20    21    1
    21    21    22   ar
    22    22    23   ar
    23    23    24   ar
    24    24    25   ar
    25    21    25   ar
    26    14    26   ar
    27    26    27    1
    28    27    28    2
    29    27    29    1
    30    26    30   ar
    31    11    30   ar
    32     7    31   ar
    33     3    31   ar
    34     4    32    1
    35     5    33    1
    36     6    34    1
    37     8    35    1
    38    12    36    1
    39    13    37    1
    40    15    38    1
    41    16    39    1
    42    16    40    1
    43    17    41    1
    44    18    42    1
    45    18    43    1
    46    19    44    1
    47    20    45    1
    48    20    46    1
    49    22    47    1
    50    23    48    1
    51    24    49    1
    52    30    50    1
    53    31    51    1
