@<TRIPOS>MOLECULE
*****
 58 60 0 0 0
SMALL
GASTEIGER

@<TRIPOS>ATOM
      1 C           0.8923    0.0406    0.0069 C.3     1  UNL1       -0.0653
      2 C           2.4083    0.0420    0.0016 C.3     1  UNL1       -0.0559
      3 C           2.9352    0.5988   -1.3128 C.3     1  UNL1       -0.0533
      4 C           4.4571    0.5959   -1.3199 C.3     1  UNL1       -0.0528
      5 C           4.9709    1.1495   -2.6371 C.3     1  UNL1       -0.0489
      6 C           6.4973    1.1730   -2.6555 C.3     1  UNL1       -0.0242
      7 C           6.9797    1.7626   -3.9550 C.ar    1  UNL1       -0.0052
      8 C           7.5014    0.9301   -4.9622 C.ar    1  UNL1       -0.0444
      9 C           7.8703    1.4699   -6.1982 C.ar    1  UNL1        0.0187
     10 C           8.4163    0.6656   -7.2853 C.ar    1  UNL1       -0.0353
     11 C           8.7517    1.1939   -8.4814 C.ar    1  UNL1        0.0825
     12 C           9.3170    0.3217   -9.6034 C.2     1  UNL1        0.0702
     13 C           9.5158   -1.1682   -9.3666 C.3     1  UNL1       -0.0200
     14 N           9.6240    0.8511  -10.7570 N.2     1  UNL1       -0.1841
     15 N          10.1303    0.0934  -11.7890 N.am    1  UNL1       -0.2027
     16 C          10.5018    0.7191  -12.9756 C.2     1  UNL1        0.2633
     17 O          10.4051    1.9213  -13.2183 O.2     1  UNL1       -0.2685
     18 C          11.1012   -0.1463  -14.0341 C.ar    1  UNL1        0.0388
     19 C          12.2216    0.3368  -14.7320 C.ar    1  UNL1       -0.0432
     20 C          12.7697   -0.3850  -15.8005 C.ar    1  UNL1        0.0163
     21 C          12.2305   -1.6315  -16.1365 C.ar    1  UNL1        0.2732
     22 N          12.9014   -2.4668  -17.1468 N.pl3   1  UNL1        0.0796
     23 O          13.9243   -2.0165  -17.6824 O.2     1  UNL1        0.0414
     24 O          12.4255   -3.5884  -17.3737 O.co2   1  UNL1       -0.5760
     25 C          11.0933   -2.1119  -15.4674 C.ar    1  UNL1        0.0163
     26 C          10.5250   -1.3638  -14.4210 C.ar    1  UNL1       -0.0432
     27 C           8.5523    2.6659   -8.6959 C.ar    1  UNL1        0.3463
     28 O           8.8103    3.2516   -9.7408 O.2     1  UNL1       -0.2445
     29 O           8.0395    3.4053   -7.6325 O.2     1  UNL1       -0.4216
     30 C           7.6981    2.8279   -6.4053 C.ar    1  UNL1        0.1426
     31 C           7.1841    3.6749   -5.4303 C.ar    1  UNL1        0.0231
     32 C           6.8390    3.1353   -4.2023 C.ar    1  UNL1        0.1235
     33 O           6.3370    3.9360   -3.2160 O.3     1  UNL1       -0.5064
     34 H           0.5176   -0.3614    0.9518 H       1  UNL1        0.0230
     35 H           0.5033   -0.5759   -0.8098 H       1  UNL1        0.0230
     36 H           0.5038    1.0567   -0.1152 H       1  UNL1        0.0230
     37 H           2.7782   -0.9794    0.1476 H       1  UNL1        0.0263
     38 H           2.7790    0.6465    0.8376 H       1  UNL1        0.0263
     39 H           2.5650    1.6215   -1.4596 H       1  UNL1        0.0265
     40 H           2.5605   -0.0020   -2.1509 H       1  UNL1        0.0265
     41 H           4.8322   -0.4237   -1.1750 H       1  UNL1        0.0265
     42 H           4.8333    1.2064   -0.4899 H       1  UNL1        0.0265
     43 H           4.5635    2.1582   -2.7799 H       1  UNL1        0.0268
     44 H           4.5949    0.5453   -3.4729 H       1  UNL1        0.0268
     45 H           6.8887    0.1567   -2.5240 H       1  UNL1        0.0314
     46 H           6.8886    1.7620   -1.8166 H       1  UNL1        0.0314
     47 H           7.5990   -0.1374   -4.7722 H       1  UNL1        0.0628
     48 H           8.5205   -0.3802   -7.0343 H       1  UNL1        0.0633
     49 H           9.2251   -1.5251   -8.3836 H       1  UNL1        0.0293
     50 H          10.5755   -1.4087   -9.4924 H       1  UNL1        0.0293
     51 H           8.9194   -1.7235  -10.0961 H       1  UNL1        0.0293
     52 H          10.3179   -0.8897  -11.6492 H       1  UNL1        0.1776
     53 H          12.6729    1.2850  -14.4404 H       1  UNL1        0.0627
     54 H          13.6090    0.0354  -16.3526 H       1  UNL1        0.0685
     55 H          10.6365   -3.0575  -15.7570 H       1  UNL1        0.0685
     56 H           9.6185   -1.7252  -13.9426 H       1  UNL1        0.0627
     57 H           7.0558    4.7289   -5.6471 H       1  UNL1        0.0691
     58 H           6.2668    4.8466   -3.5465 H       1  UNL1        0.2921
@<TRIPOS>UNITY_ATOM_ATTR
22 1
charge 1
24 1
charge -1
@<TRIPOS>BOND
     1     1     2    1
     2     2     3    1
     3     3     4    1
     4     4     5    1
     5     5     6    1
     6     6     7    1
     7     7     8   ar
     8     8     9   ar
     9     9    10   ar
    10    10    11   ar
    11    11    12    1
    12    12    13    1
    13    12    14    2
    14    14    15    1
    15    15    16   am
    16    16    17    2
    17    16    18    1
    18    18    19   ar
    19    19    20   ar
    20    20    21   ar
    21    21    22    1
    22    22    23    2
    23    22    24    1
    24    21    25   ar
    25    25    26   ar
    26    18    26   ar
    27    11    27   ar
    28    27    28    2
    29    27    29   ar
    30    29    30   ar
    31     9    30   ar
    32    30    31   ar
    33    31    32   ar
    34     7    32   ar
    35    32    33    1
    36     1    34    1
    37     1    35    1
    38     1    36    1
    39     2    37    1
    40     2    38    1
    41     3    39    1
    42     3    40    1
    43     4    41    1
    44     4    42    1
    45     5    43    1
    46     5    44    1
    47     6    45    1
    48     6    46    1
    49     8    47    1
    50    10    48    1
    51    13    49    1
    52    13    50    1
    53    13    51    1
    54    15    52    1
    55    19    53    1
    56    20    54    1
    57    25    55    1
    58    26    56    1
    59    31    57    1
    60    33    58    1
