@<TRIPOS>MOLECULE
*****
 67 69 0 0 0
SMALL
GASTEIGER

@<TRIPOS>ATOM
      1 C           1.0699    0.0054    0.0713 C.1     1  UNL1       -0.1169
      2 C           2.3737    0.0054    0.0713 C.1     1  UNL1       -0.0773
      3 C           3.8937    0.0054    0.0713 C.3     1  UNL1        0.1081
      4 O           4.4194   -0.9470   -0.7833 O.3     1  UNL1       -0.3646
      5 C           5.8382   -0.8654   -0.6933 C.3     1  UNL1        0.0798
      6 C           6.2953   -1.7096   -1.8315 C.3     1  UNL1        0.1180
      7 O           5.7182   -1.0249   -2.8952 O.3     1  UNL1       -0.3842
      8 C           7.7744   -1.6883   -2.0165 C.3     1  UNL1       -0.0024
      9 N           8.2717   -2.5246   -3.2068 N.4     1  UNL1        0.2447
     10 C           7.7653   -2.0845   -4.6517 C.3     1  UNL1        0.0278
     11 C           6.2552   -2.1277   -4.9259 C.ar    1  UNL1        0.1564
     12 N           5.6378   -1.0243   -5.2595 N.ar    1  UNL1       -0.2211
     13 C           4.2858   -1.0516   -5.0057 C.ar    1  UNL1        0.1166
     14 S           3.4046    0.3781   -4.6994 S.2     1  UNL1       -0.0617
     15 C           1.9187   -0.4803   -4.4992 C.ar    1  UNL1        0.1018
     16 C           0.7133    0.3387   -4.3803 C.2     1  UNL1        0.3465
     17 O           0.6913    1.5524   -4.2824 O.2     1  UNL1       -0.2444
     18 O          -0.4109   -0.4397   -4.4509 O.3     1  UNL1       -0.4581
     19 C          -1.6808    0.2398   -4.4439 C.3     1  UNL1        0.0978
     20 C          -1.8404    1.0823   -5.7050 C.3     1  UNL1       -0.0280
     21 C          -2.7940   -0.8106   -4.4113 C.3     1  UNL1       -0.0280
     22 C           2.1280   -1.8579   -4.5184 C.ar    1  UNL1       -0.0149
     23 C           1.0886   -2.9303   -4.4338 C.3     1  UNL1       -0.0376
     24 C           3.5315   -2.1574   -4.6773 C.ar    1  UNL1        0.0756
     25 C           4.2379   -3.4203   -4.5728 C.ar    1  UNL1        0.2602
     26 O           3.7147   -4.5139   -4.4101 O.2     1  UNL1       -0.2671
     27 N           5.6144   -3.3116   -4.6345 N.ar    1  UNL1       -0.3061
     28 C           9.8142   -2.5530   -3.1872 C.3     1  UNL1       -0.0203
     29 C          10.3659   -1.1180   -3.2501 C.3     1  UNL1       -0.0096
     30 C          11.8742   -1.0723   -3.1267 C.3     1  UNL1       -0.0480
     31 C          12.3312   -1.7882   -1.8629 C.3     1  UNL1       -0.0527
     32 C          11.8416   -3.2350   -1.8436 C.3     1  UNL1       -0.0480
     33 C          10.3223   -3.3081   -1.9464 C.3     1  UNL1       -0.0096
     34 H           0.0040    0.0071    0.0693 H       1  UNL1        0.1229
     35 H           4.1958   -0.2647    1.0922 H       1  UNL1        0.0697
     36 H           4.2478    1.0237   -0.1304 H       1  UNL1        0.0697
     37 H           6.1927   -1.2148    0.2744 H       1  UNL1        0.0588
     38 H           6.1567    0.1750   -0.8720 H       1  UNL1        0.0588
     39 H           5.8886   -2.7263   -1.7940 H       1  UNL1        0.0670
     40 H           6.1365   -0.1839   -3.1511 H       1  UNL1        0.2101
     41 H           8.2228   -2.0763   -1.1042 H       1  UNL1        0.0841
     42 H           8.0860   -0.6601   -2.1996 H       1  UNL1        0.0841
     43 H           7.9449   -3.4885   -3.0612 H       1  UNL1        0.2042
     44 H           8.2633   -2.7533   -5.3570 H       1  UNL1        0.0897
     45 H           8.1115   -1.0562   -4.7768 H       1  UNL1        0.0897
     46 H          -1.7498    0.8515   -3.5372 H       1  UNL1        0.0728
     47 H          -1.7503    0.4549   -6.5984 H       1  UNL1        0.0265
     48 H          -1.0649    1.8466   -5.7893 H       1  UNL1        0.0265
     49 H          -2.8073    1.5909   -5.7147 H       1  UNL1        0.0265
     50 H          -2.7445   -1.4686   -5.2873 H       1  UNL1        0.0265
     51 H          -3.7794   -0.3313   -4.4009 H       1  UNL1        0.0265
     52 H          -2.7129   -1.4541   -3.5294 H       1  UNL1        0.0265
     53 H           0.0679   -2.5574   -4.4297 H       1  UNL1        0.0278
     54 H           1.2111   -3.5418   -3.5365 H       1  UNL1        0.0278
     55 H           1.1719   -3.5659   -5.3217 H       1  UNL1        0.0278
     56 H           6.0963   -4.1884   -4.5220 H       1  UNL1        0.1702
     57 H          10.1179   -3.1145   -4.0794 H       1  UNL1        0.0851
     58 H           9.9849   -0.5074   -2.4263 H       1  UNL1        0.0320
     59 H          10.0694   -0.6233   -4.1790 H       1  UNL1        0.0320
     60 H          12.1915   -0.0238   -3.0984 H       1  UNL1        0.0267
     61 H          12.3240   -1.5336   -4.0110 H       1  UNL1        0.0267
     62 H          11.9497   -1.2568   -0.9799 H       1  UNL1        0.0265
     63 H          13.4229   -1.7632   -1.8075 H       1  UNL1        0.0265
     64 H          12.1649   -3.7182   -0.9153 H       1  UNL1        0.0267
     65 H          12.2870   -3.7858   -2.6783 H       1  UNL1        0.0267
     66 H           9.9375   -2.8836   -1.0156 H       1  UNL1        0.0320
     67 H           9.9905   -4.3525   -1.9716 H       1  UNL1        0.0320
@<TRIPOS>UNITY_ATOM_ATTR
9 1
charge 1
@<TRIPOS>BOND
     1     1     2    3
     2     2     3    1
     3     3     4    1
     4     4     5    1
     5     5     6    1
     6     6     7    1
     7     6     8    1
     8     8     9    1
     9     9    10    1
    10    10    11    1
    11    11    12   ar
    12    12    13   ar
    13    13    14   ar
    14    14    15   ar
    15    15    16    1
    16    16    17    2
    17    16    18    1
    18    18    19    1
    19    19    20    1
    20    19    21    1
    21    15    22   ar
    22    22    23    1
    23    22    24   ar
    24    13    24   ar
    25    24    25   ar
    26    25    26    2
    27    25    27   ar
    28    11    27   ar
    29     9    28    1
    30    28    29    1
    31    29    30    1
    32    30    31    1
    33    31    32    1
    34    32    33    1
    35    28    33    1
    36     1    34    1
    37     3    35    1
    38     3    36    1
    39     5    37    1
    40     5    38    1
    41     6    39    1
    42     7    40    1
    43     8    41    1
    44     8    42    1
    45     9    43    1
    46    10    44    1
    47    10    45    1
    48    19    46    1
    49    20    47    1
    50    20    48    1
    51    20    49    1
    52    21    50    1
    53    21    51    1
    54    21    52    1
    55    23    53    1
    56    23    54    1
    57    23    55    1
    58    27    56    1
    59    28    57    1
    60    29    58    1
    61    29    59    1
    62    30    60    1
    63    30    61    1
    64    31    62    1
    65    31    63    1
    66    32    64    1
    67    32    65    1
    68    33    66    1
    69    33    67    1
