@<TRIPOS>MOLECULE
*****
 32 33 0 0 0
SMALL
GASTEIGER

@<TRIPOS>ATOM
      1 C           2.9775    0.0273    0.0680 C.3     1  UNL1       -0.0397
      2 C           1.4777    0.0018   -0.0056 C.ar    1  UNL1       -0.0495
      3 C           0.7463    1.1888   -0.0325 C.ar    1  UNL1       -0.0553
      4 C          -0.6457    1.1460   -0.0383 C.ar    1  UNL1       -0.0192
      5 C          -1.3168   -0.0872   -0.0237 C.ar    1  UNL1        0.1290
      6 O          -2.6838   -0.0595    0.0250 O.3     1  UNL1       -0.5060
      7 C          -0.6091   -1.3078   -0.0407 C.ar    1  UNL1        0.0797
      8 C          -1.3225   -2.6498   -0.0618 C.2     1  UNL1        0.2636
      9 O          -2.5518   -2.7345   -0.1221 O.2     1  UNL1       -0.2685
     10 N          -0.5374   -3.8103   -0.0184 N.am    1  UNL1       -0.2323
     11 N          -1.1886   -5.0357   -0.1971 N.pl3   1  UNL1       -0.2615
     12 C          -0.4686   -6.2373   -0.2073 C.ar    1  UNL1        0.0797
     13 C           0.6479   -6.4472    0.6148 C.ar    1  UNL1       -0.0339
     14 C           1.3424   -7.6650    0.5913 C.ar    1  UNL1       -0.0245
     15 C           0.9527   -8.6692   -0.2875 C.ar    1  UNL1        0.1262
     16 F           1.6218   -9.8299   -0.3032 F       1  UNL1       -0.2054
     17 C          -0.1189   -8.4822   -1.1447 C.ar    1  UNL1        0.0107
     18 C          -0.8193   -7.2758   -1.0945 C.ar    1  UNL1        0.1483
     19 F          -1.8495   -7.1101   -1.9392 F       1  UNL1       -0.2034
     20 C           0.7978   -1.2320   -0.0264 C.ar    1  UNL1       -0.0431
     21 H           3.3638    1.0520    0.0774 H       1  UNL1        0.0278
     22 H           3.4095   -0.4895   -0.7942 H       1  UNL1        0.0278
     23 H           3.3121   -0.4628    0.9884 H       1  UNL1        0.0278
     24 H           1.2531    2.1523   -0.0372 H       1  UNL1        0.0621
     25 H          -1.1925    2.0862   -0.0467 H       1  UNL1        0.0654
     26 H          -3.0056    0.8542    0.0785 H       1  UNL1        0.2922
     27 H           0.4608   -3.8139   -0.1717 H       1  UNL1        0.1730
     28 H          -2.1946   -5.0165   -0.3784 H       1  UNL1        0.1701
     29 H           0.9481   -5.6868    1.3304 H       1  UNL1        0.0638
     30 H           2.1773   -7.8407    1.2633 H       1  UNL1        0.0647
     31 H          -0.4072   -9.2627   -1.8397 H       1  UNL1        0.0675
     32 H           1.4113   -2.1247   -0.0215 H       1  UNL1        0.0629
@<TRIPOS>BOND
     1     1     2    1
     2     2     3   ar
     3     3     4   ar
     4     4     5   ar
     5     5     6    1
     6     5     7   ar
     7     7     8    1
     8     8     9    2
     9     8    10   am
    10    10    11    1
    11    11    12    1
    12    12    13   ar
    13    13    14   ar
    14    14    15   ar
    15    15    16    1
    16    15    17   ar
    17    17    18   ar
    18    12    18   ar
    19    18    19    1
    20     7    20   ar
    21     2    20   ar
    22     1    21    1
    23     1    22    1
    24     1    23    1
    25     3    24    1
    26     4    25    1
    27     6    26    1
    28    10    27    1
    29    11    28    1
    30    13    29    1
    31    14    30    1
    32    17    31    1
    33    20    32    1
